MODEL        1
REMARK 921   NORMALIZED FREE ENERGY PREDICTED BY IDOCK:   -6.95 KCAL/MOL
REMARK 922        TOTAL FREE ENERGY PREDICTED BY IDOCK:  -10.67 KCAL/MOL
REMARK 923 INTER-LIGAND FREE ENERGY PREDICTED BY IDOCK:   -9.79 KCAL/MOL
REMARK 924 INTRA-LIGAND FREE ENERGY PREDICTED BY IDOCK:   -0.88 KCAL/MOL
REMARK 927      BINDING AFFINITY PREDICTED BY RF-SCORE:    0.00 PKD
ROOT
HETATM    1 CL   UNL     1     -13.325   9.721  72.104  1.00  0.00    -0.538 Cl 
HETATM    2  C   UNL     1     -12.825  11.161  71.305  1.00  0.00    -0.412 A  
HETATM    3  C   UNL     1     -13.148  12.399  71.851  1.00  0.00    -0.471 A  
HETATM    4  C   UNL     1     -12.777  13.566  71.181  1.00  0.00    -0.425 A  
HETATM    5  C   UNL     1     -12.075  13.509  69.965  1.00  0.00    -0.411 A  
HETATM    6  C   UNL     1     -11.740  12.254  69.441  1.00  0.00    -0.392 A  
HETATM    7  C   UNL     1     -12.116  11.084  70.109  1.00  0.00    -0.438 A  
ENDROOT
BRANCH   5   8
HETATM    8  C   UNL     1     -11.760  14.778  69.201  1.00  0.00    -0.344 C  
BRANCH   8   9
HETATM    9  C   UNL     1     -11.642  14.563  67.691  1.00  0.00    -0.402 C  
BRANCH   9  10
HETATM   10  C   UNL     1     -10.661  15.518  66.977  1.00  0.00    -0.311 C  
BRANCH  10  11
HETATM   11  S   UNL     1     -10.605  17.145  67.838  1.00  0.00    -0.361 SA 
BRANCH  11  12
HETATM   12  C   UNL     1      -8.950  17.589  68.420  1.00  0.00    -0.276 A  
HETATM   13 CL   UNL     1      -7.956  15.101  69.292  1.00  0.00    -0.204 Cl 
HETATM   14  C   UNL     1      -6.403  18.691  69.143  1.00  0.00    -0.274 A  
HETATM   15  C   UNL     1      -7.905  16.786  68.929  1.00  0.00    -0.244 A  
HETATM   16  C   UNL     1      -6.647  17.336  69.259  1.00  0.00    -0.237 A  
HETATM   17  C   UNL     1      -7.420  19.519  68.712  1.00  0.00    -0.387 A  
HETATM   18  C   UNL     1      -8.671  18.987  68.361  1.00  0.00    -0.346 A  
HETATM   19 CL   UNL     1      -9.842  20.190  67.878  1.00  0.00    -0.523 Cl 
ENDBRANCH  11  12
ENDBRANCH  10  11
BRANCH  10  20
HETATM   20  C   UNL     1     -10.686  15.664  65.438  1.00  0.00    -0.408 C  
BRANCH  20  21
HETATM   21  N   UNL     1     -11.140  14.479  64.721  1.00  0.00    -0.394 NA 
HETATM   22  C   UNL     1     -12.396  14.281  64.215  1.00  0.00    -0.377 A  
HETATM   23  N   UNL     1     -12.500  13.108  63.637  1.00  0.00    -0.735 NA 
HETATM   24  C   UNL     1     -10.430  13.329  64.521  1.00  0.00    -0.415 A  
HETATM   25  C   UNL     1     -11.280  12.507  63.817  1.00  0.00    -0.462 A  
ENDBRANCH  20  21
ENDBRANCH  10  20
ENDBRANCH   9  10
ENDBRANCH   8   9
ENDBRANCH   5   8
TORSDOF 7
ENDMDL
MODEL        2
REMARK 921   NORMALIZED FREE ENERGY PREDICTED BY IDOCK:   -6.90 KCAL/MOL
REMARK 922        TOTAL FREE ENERGY PREDICTED BY IDOCK:  -10.60 KCAL/MOL
REMARK 923 INTER-LIGAND FREE ENERGY PREDICTED BY IDOCK:   -9.59 KCAL/MOL
REMARK 924 INTRA-LIGAND FREE ENERGY PREDICTED BY IDOCK:   -1.01 KCAL/MOL
REMARK 927      BINDING AFFINITY PREDICTED BY RF-SCORE:    0.00 PKD
ROOT
HETATM    1 CL   UNL     1     -12.574  15.793  74.561  1.00  0.00    -0.708 Cl 
HETATM    2  C   UNL     1     -12.469  15.285  72.920  1.00  0.00    -0.406 A  
HETATM    3  C   UNL     1     -12.915  14.016  72.562  1.00  0.00    -0.480 A  
HETATM    4  C   UNL     1     -12.792  13.590  71.238  1.00  0.00    -0.420 A  
HETATM    5  C   UNL     1     -12.230  14.427  70.259  1.00  0.00    -0.397 A  
HETATM    6  C   UNL     1     -11.806  15.708  70.633  1.00  0.00    -0.409 A  
HETATM    7  C   UNL     1     -11.924  16.134  71.961  1.00  0.00    -0.607 A  
ENDROOT
BRANCH   5   8
HETATM    8  C   UNL     1     -12.016  13.920  68.849  1.00  0.00    -0.393 C  
BRANCH   8   9
HETATM    9  C   UNL     1     -11.106  14.820  68.012  1.00  0.00    -0.294 C  
BRANCH   9  10
HETATM   10  C   UNL     1      -9.790  14.159  67.548  1.00  0.00    -0.235 C  
BRANCH  10  11
HETATM   11  S   UNL     1      -8.539  15.444  67.129  1.00  0.00    -0.228 SA 
BRANCH  11  12
HETATM   12  C   UNL     1      -9.185  17.132  67.234  1.00  0.00    -0.230 A  
HETATM   13 CL   UNL     1     -10.952  17.211  65.041  1.00  0.00    -0.118 Cl 
HETATM   14  C   UNL     1     -10.008  19.819  67.802  1.00  0.00    -0.535 A  
HETATM   15  C   UNL     1     -10.162  17.795  66.458  1.00  0.00    -0.358 A  
HETATM   16  C   UNL     1     -10.577  19.110  66.763  1.00  0.00    -0.528 A  
HETATM   17  C   UNL     1      -9.002  19.230  68.543  1.00  0.00    -0.414 A  
HETATM   18  C   UNL     1      -8.590  17.916  68.266  1.00  0.00    -0.275 A  
HETATM   19 CL   UNL     1      -7.282  17.357  69.280  1.00  0.00    -0.168 Cl 
ENDBRANCH  11  12
ENDBRANCH  10  11
BRANCH  10  20
HETATM   20  C   UNL     1      -9.810  12.998  66.527  1.00  0.00    -0.263 C  
BRANCH  20  21
HETATM   21  N   UNL     1     -10.863  13.087  65.524  1.00  0.00    -0.275 NA 
HETATM   22  C   UNL     1     -12.027  12.367  65.519  1.00  0.00    -0.391 A  
HETATM   23  N   UNL     1     -12.765  12.659  64.474  1.00  0.00    -0.709 NA 
HETATM   24  C   UNL     1     -10.827  13.819  64.372  1.00  0.00    -0.328 A  
HETATM   25  C   UNL     1     -12.030  13.566  63.754  1.00  0.00    -0.422 A  
ENDBRANCH  20  21
ENDBRANCH  10  20
ENDBRANCH   9  10
ENDBRANCH   8   9
ENDBRANCH   5   8
TORSDOF 7
ENDMDL
MODEL        3
REMARK 921   NORMALIZED FREE ENERGY PREDICTED BY IDOCK:   -6.88 KCAL/MOL
REMARK 922        TOTAL FREE ENERGY PREDICTED BY IDOCK:  -10.58 KCAL/MOL
REMARK 923 INTER-LIGAND FREE ENERGY PREDICTED BY IDOCK:   -9.67 KCAL/MOL
REMARK 924 INTRA-LIGAND FREE ENERGY PREDICTED BY IDOCK:   -0.91 KCAL/MOL
REMARK 927      BINDING AFFINITY PREDICTED BY RF-SCORE:    0.00 PKD
ROOT
HETATM    1 CL   UNL     1     -12.843  15.723  74.196  1.00  0.00    -0.620 Cl 
HETATM    2  C   UNL     1     -12.457  15.141  72.623  1.00  0.00    -0.376 A  
HETATM    3  C   UNL     1     -12.833  13.853  72.254  1.00  0.00    -0.385 A  
HETATM    4  C   UNL     1     -12.484  13.368  70.992  1.00  0.00    -0.437 A  
HETATM    5  C   UNL     1     -11.764  14.164  70.086  1.00  0.00    -0.350 A  
HETATM    6  C   UNL     1     -11.411  15.464  70.467  1.00  0.00    -0.354 A  
HETATM    7  C   UNL     1     -11.756  15.950  71.733  1.00  0.00    -0.575 A  
ENDROOT
BRANCH   5   8
HETATM    8  C   UNL     1     -11.310  13.594  68.759  1.00  0.00    -0.326 C  
BRANCH   8   9
HETATM    9  C   UNL     1     -11.643  14.494  67.567  1.00  0.00    -0.403 C  
BRANCH   9  10
HETATM   10  C   UNL     1     -10.438  15.258  66.976  1.00  0.00    -0.292 C  
BRANCH  10  11
HETATM   11  S   UNL     1     -10.684  17.075  67.148  1.00  0.00    -0.101 SA 
BRANCH  11  12
HETATM   12  C   UNL     1      -9.198  17.949  67.701  1.00  0.00    -0.258 A  
HETATM   13 CL   UNL     1      -8.042  16.070  69.453  1.00  0.00    -0.204 Cl 
HETATM   14  C   UNL     1      -6.939  19.627  68.250  1.00  0.00    -0.333 A  
HETATM   15  C   UNL     1      -8.147  17.534  68.550  1.00  0.00    -0.275 A  
HETATM   16  C   UNL     1      -7.028  18.360  68.793  1.00  0.00    -0.291 A  
HETATM   17  C   UNL     1      -7.977  20.095  67.469  1.00  0.00    -0.352 A  
HETATM   18  C   UNL     1      -9.089  19.280  67.200  1.00  0.00    -0.299 A  
HETATM   19 CL   UNL     1     -10.316  20.056  66.229  1.00  0.00    -0.578 Cl 
ENDBRANCH  11  12
ENDBRANCH  10  11
BRANCH  10  20
HETATM   20  C   UNL     1      -9.858  14.867  65.598  1.00  0.00    -0.337 C  
BRANCH  20  21
HETATM   21  N   UNL     1     -10.787  14.163  64.723  1.00  0.00    -0.408 NA 
HETATM   22  C   UNL     1     -11.955  14.670  64.222  1.00  0.00    -0.386 A  
HETATM   23  N   UNL     1     -12.579  13.787  63.479  1.00  0.00    -0.808 NA 
HETATM   24  C   UNL     1     -10.707  12.855  64.338  1.00  0.00    -0.386 A  
HETATM   25  C   UNL     1     -11.809  12.654  63.539  1.00  0.00    -0.541 A  
ENDBRANCH  20  21
ENDBRANCH  10  20
ENDBRANCH   9  10
ENDBRANCH   8   9
ENDBRANCH   5   8
TORSDOF 7
ENDMDL
MODEL        4
REMARK 921   NORMALIZED FREE ENERGY PREDICTED BY IDOCK:   -6.88 KCAL/MOL
REMARK 922        TOTAL FREE ENERGY PREDICTED BY IDOCK:  -10.57 KCAL/MOL
REMARK 923 INTER-LIGAND FREE ENERGY PREDICTED BY IDOCK:   -9.74 KCAL/MOL
REMARK 924 INTRA-LIGAND FREE ENERGY PREDICTED BY IDOCK:   -0.83 KCAL/MOL
REMARK 927      BINDING AFFINITY PREDICTED BY RF-SCORE:    0.00 PKD
ROOT
HETATM    1 CL   UNL     1     -13.416   9.548  72.221  1.00  0.00    -0.527 Cl 
HETATM    2  C   UNL     1     -12.943  11.041  71.510  1.00  0.00    -0.448 A  
HETATM    3  C   UNL     1     -13.336  12.240  72.098  1.00  0.00    -0.473 A  
HETATM    4  C   UNL     1     -12.987  13.451  71.498  1.00  0.00    -0.429 A  
HETATM    5  C   UNL     1     -12.236  13.477  70.310  1.00  0.00    -0.417 A  
HETATM    6  C   UNL     1     -11.832  12.263  69.743  1.00  0.00    -0.388 A  
HETATM    7  C   UNL     1     -12.187  11.049  70.341  1.00  0.00    -0.461 A  
ENDROOT
BRANCH   5   8
HETATM    8  C   UNL     1     -11.944  14.792  69.618  1.00  0.00    -0.360 C  
BRANCH   8   9
HETATM    9  C   UNL     1     -11.678  14.642  68.119  1.00  0.00    -0.360 C  
BRANCH   9  10
HETATM   10  C   UNL     1     -10.750  15.719  67.515  1.00  0.00    -0.317 C  
BRANCH  10  11
HETATM   11  S   UNL     1      -9.594  14.961  66.298  1.00  0.00    -0.316 SA 
BRANCH  11  12
HETATM   12  C   UNL     1     -10.363  13.665  65.294  1.00  0.00    -0.348 A  
HETATM   13 CL   UNL     1      -8.839  11.404  66.005  1.00  0.00    -0.198 Cl 
HETATM   14  C   UNL     1     -11.901  11.916  63.622  1.00  0.00    -0.573 A  
HETATM   15  C   UNL     1     -10.104  12.277  65.226  1.00  0.00    -0.271 A  
HETATM   16  C   UNL     1     -10.885  11.422  64.417  1.00  0.00    -0.397 A  
HETATM   17  C   UNL     1     -12.140  13.276  63.609  1.00  0.00    -0.551 A  
HETATM   18  C   UNL     1     -11.387  14.139  64.422  1.00  0.00    -0.299 A  
HETATM   19 CL   UNL     1     -11.807  15.825  64.243  1.00  0.00    -0.269 Cl 
ENDBRANCH  11  12
ENDBRANCH  10  11
BRANCH  10  20
HETATM   20  C   UNL     1     -10.054  16.757  68.425  1.00  0.00    -0.285 C  
BRANCH  20  21
HETATM   21  N   UNL     1     -10.086  18.125  67.924  1.00  0.00    -0.338 NA 
HETATM   22  C   UNL     1      -9.897  19.256  68.671  1.00  0.00    -0.431 A  
HETATM   23  N   UNL     1     -10.002  20.338  67.936  1.00  0.00    -0.390 NA 
HETATM   24  C   UNL     1     -10.409  18.519  66.657  1.00  0.00    -0.408 A  
HETATM   25  C   UNL     1     -10.317  19.891  66.678  1.00  0.00    -0.485 A  
ENDBRANCH  20  21
ENDBRANCH  10  20
ENDBRANCH   9  10
ENDBRANCH   8   9
ENDBRANCH   5   8
TORSDOF 7
ENDMDL
MODEL        5
REMARK 921   NORMALIZED FREE ENERGY PREDICTED BY IDOCK:   -6.85 KCAL/MOL
REMARK 922        TOTAL FREE ENERGY PREDICTED BY IDOCK:  -10.54 KCAL/MOL
REMARK 923 INTER-LIGAND FREE ENERGY PREDICTED BY IDOCK:   -9.77 KCAL/MOL
REMARK 924 INTRA-LIGAND FREE ENERGY PREDICTED BY IDOCK:   -0.77 KCAL/MOL
REMARK 927      BINDING AFFINITY PREDICTED BY RF-SCORE:    0.00 PKD
ROOT
HETATM    1 CL   UNL     1     -13.383   9.669  72.257  1.00  0.00    -0.520 Cl 
HETATM    2  C   UNL     1     -12.891  11.117  71.468  1.00  0.00    -0.437 A  
HETATM    3  C   UNL     1     -13.275  12.349  71.989  1.00  0.00    -0.514 A  
HETATM    4  C   UNL     1     -12.909  13.522  71.325  1.00  0.00    -0.420 A  
HETATM    5  C   UNL     1     -12.153  13.477  70.142  1.00  0.00    -0.425 A  
HETATM    6  C   UNL     1     -11.758  12.229  69.644  1.00  0.00    -0.386 A  
HETATM    7  C   UNL     1     -12.129  11.053  70.305  1.00  0.00    -0.448 A  
ENDROOT
BRANCH   5   8
HETATM    8  C   UNL     1     -11.843  14.748  69.382  1.00  0.00    -0.360 C  
BRANCH   8   9
HETATM    9  C   UNL     1     -11.570  14.515  67.895  1.00  0.00    -0.371 C  
BRANCH   9  10
HETATM   10  C   UNL     1     -10.544  15.482  67.265  1.00  0.00    -0.299 C  
BRANCH  10  11
HETATM   11  S   UNL     1     -10.427  17.029  68.257  1.00  0.00    -0.380 SA 
BRANCH  11  12
HETATM   12  C   UNL     1      -9.158  18.171  67.654  1.00  0.00    -0.259 A  
HETATM   13 CL   UNL     1     -10.624  19.766  65.853  1.00  0.00    -0.608 Cl 
HETATM   14  C   UNL     1      -6.893  19.814  67.031  1.00  0.00    -0.227 A  
HETATM   15  C   UNL     1      -9.251  19.267  66.766  1.00  0.00    -0.323 A  
HETATM   16  C   UNL     1      -8.133  20.083  66.486  1.00  0.00    -0.346 A  
HETATM   17  C   UNL     1      -6.747  18.712  67.851  1.00  0.00    -0.222 A  
HETATM   18  C   UNL     1      -7.851  17.901  68.156  1.00  0.00    -0.266 A  
HETATM   19 CL   UNL     1      -7.465  16.535  69.175  1.00  0.00    -0.232 Cl 
ENDBRANCH  11  12
ENDBRANCH  10  11
BRANCH  10  20
HETATM   20  C   UNL     1     -10.550  15.754  65.743  1.00  0.00    -0.355 C  
BRANCH  20  21
HETATM   21  N   UNL     1     -11.074  14.663  64.931  1.00  0.00    -0.387 NA 
HETATM   22  C   UNL     1     -12.319  14.611  64.366  1.00  0.00    -0.398 A  
HETATM   23  N   UNL     1     -12.499  13.491  63.707  1.00  0.00    -0.727 NA 
HETATM   24  C   UNL     1     -10.460  13.468  64.683  1.00  0.00    -0.421 A  
HETATM   25  C   UNL     1     -11.346  12.772  63.893  1.00  0.00    -0.442 A  
ENDBRANCH  20  21
ENDBRANCH  10  20
ENDBRANCH   9  10
ENDBRANCH   8   9
ENDBRANCH   5   8
TORSDOF 7
ENDMDL
MODEL        6
REMARK 921   NORMALIZED FREE ENERGY PREDICTED BY IDOCK:   -6.85 KCAL/MOL
REMARK 922        TOTAL FREE ENERGY PREDICTED BY IDOCK:  -10.53 KCAL/MOL
REMARK 923 INTER-LIGAND FREE ENERGY PREDICTED BY IDOCK:   -9.44 KCAL/MOL
REMARK 924 INTRA-LIGAND FREE ENERGY PREDICTED BY IDOCK:   -1.09 KCAL/MOL
REMARK 927      BINDING AFFINITY PREDICTED BY RF-SCORE:    0.00 PKD
ROOT
HETATM    1 CL   UNL     1     -11.046   7.799  73.012  1.00  0.00    -0.463 Cl 
HETATM    2  C   UNL     1     -11.337   8.968  71.783  1.00  0.00    -0.377 A  
HETATM    3  C   UNL     1     -10.341   9.253  70.854  1.00  0.00    -0.367 A  
HETATM    4  C   UNL     1     -10.563  10.231  69.882  1.00  0.00    -0.324 A  
HETATM    5  C   UNL     1     -11.783  10.926  69.823  1.00  0.00    -0.413 A  
HETATM    6  C   UNL     1     -12.782  10.611  70.752  1.00  0.00    -0.468 A  
HETATM    7  C   UNL     1     -12.557   9.636  71.730  1.00  0.00    -0.497 A  
ENDROOT
BRANCH   5   8
HETATM    8  C   UNL     1     -11.978  12.048  68.825  1.00  0.00    -0.299 C  
BRANCH   8   9
HETATM    9  C   UNL     1     -11.163  13.300  69.153  1.00  0.00    -0.305 C  
BRANCH   9  10
HETATM   10  C   UNL     1     -11.643  14.588  68.450  1.00  0.00    -0.326 C  
BRANCH  10  11
HETATM   11  S   UNL     1     -10.658  14.892  66.924  1.00  0.00    -0.306 SA 
BRANCH  11  12
HETATM   12  C   UNL     1     -10.778  13.548  65.716  1.00  0.00    -0.275 A  
HETATM   13 CL   UNL     1      -9.013  11.638  66.800  1.00  0.00    -0.183 Cl 
HETATM   14  C   UNL     1     -11.316  11.649  63.637  1.00  0.00    -0.485 A  
HETATM   15  C   UNL     1     -10.183  12.266  65.701  1.00  0.00    -0.261 A  
HETATM   16  C   UNL     1     -10.475  11.331  64.684  1.00  0.00    -0.387 A  
HETATM   17  C   UNL     1     -11.865  12.916  63.579  1.00  0.00    -0.605 A  
HETATM   18  C   UNL     1     -11.601  13.852  64.592  1.00  0.00    -0.385 A  
HETATM   19 CL   UNL     1     -12.349  15.408  64.329  1.00  0.00    -0.256 Cl 
ENDBRANCH  11  12
ENDBRANCH  10  11
BRANCH  10  20
HETATM   20  C   UNL     1     -11.893  15.881  69.260  1.00  0.00    -0.318 C  
BRANCH  20  21
HETATM   21  N   UNL     1     -12.383  15.665  70.615  1.00  0.00    -0.413 NA 
HETATM   22  C   UNL     1     -13.630  15.216  70.954  1.00  0.00    -0.338 A  
HETATM   23  N   UNL     1     -13.775  15.142  72.256  1.00  0.00    -0.443 NA 
HETATM   24  C   UNL     1     -11.728  15.971  71.774  1.00  0.00    -0.509 A  
HETATM   25  C   UNL     1     -12.595  15.606  72.778  1.00  0.00    -0.434 A  
ENDBRANCH  20  21
ENDBRANCH  10  20
ENDBRANCH   9  10
ENDBRANCH   8   9
ENDBRANCH   5   8
TORSDOF 7
ENDMDL
MODEL        7
REMARK 921   NORMALIZED FREE ENERGY PREDICTED BY IDOCK:   -6.82 KCAL/MOL
REMARK 922        TOTAL FREE ENERGY PREDICTED BY IDOCK:  -10.49 KCAL/MOL
REMARK 923 INTER-LIGAND FREE ENERGY PREDICTED BY IDOCK:   -9.44 KCAL/MOL
REMARK 924 INTRA-LIGAND FREE ENERGY PREDICTED BY IDOCK:   -1.05 KCAL/MOL
REMARK 927      BINDING AFFINITY PREDICTED BY RF-SCORE:    0.00 PKD
ROOT
HETATM    1 CL   UNL     1     -13.200   9.248  71.865  1.00  0.00    -0.451 Cl 
HETATM    2  C   UNL     1     -12.853  10.821  71.259  1.00  0.00    -0.438 A  
HETATM    3  C   UNL     1     -12.132  10.959  70.077  1.00  0.00    -0.433 A  
HETATM    4  C   UNL     1     -11.816  12.235  69.607  1.00  0.00    -0.393 A  
HETATM    5  C   UNL     1     -12.222  13.384  70.307  1.00  0.00    -0.405 A  
HETATM    6  C   UNL     1     -12.964  13.226  71.484  1.00  0.00    -0.426 A  
HETATM    7  C   UNL     1     -13.276  11.947  71.958  1.00  0.00    -0.461 A  
ENDROOT
BRANCH   5   8
HETATM    8  C   UNL     1     -11.793  14.758  69.839  1.00  0.00    -0.364 C  
BRANCH   8   9
HETATM    9  C   UNL     1     -12.007  14.983  68.341  1.00  0.00    -0.231 C  
BRANCH   9  10
HETATM   10  C   UNL     1     -10.886  15.780  67.640  1.00  0.00    -0.310 C  
BRANCH  10  11
HETATM   11  S   UNL     1      -9.678  14.633  66.854  1.00  0.00    -0.251 SA 
BRANCH  11  12
HETATM   12  C   UNL     1     -10.427  13.542  65.619  1.00  0.00    -0.293 A  
HETATM   13 CL   UNL     1     -12.127  15.315  64.237  1.00  0.00    -0.351 Cl 
HETATM   14  C   UNL     1     -11.305  11.515  63.791  1.00  0.00    -0.420 A  
HETATM   15  C   UNL     1     -11.333  13.822  64.570  1.00  0.00    -0.380 A  
HETATM   16  C   UNL     1     -11.739  12.820  63.662  1.00  0.00    -0.587 A  
HETATM   17  C   UNL     1     -10.472  11.187  64.843  1.00  0.00    -0.372 A  
HETATM   18  C   UNL     1     -10.043  12.174  65.745  1.00  0.00    -0.247 A  
HETATM   19 CL   UNL     1      -9.028  11.566  67.030  1.00  0.00    -0.169 Cl 
ENDBRANCH  11  12
ENDBRANCH  10  11
BRANCH  10  20
HETATM   20  C   UNL     1     -10.197  16.965  68.355  1.00  0.00    -0.322 C  
BRANCH  20  21
HETATM   21  N   UNL     1     -10.185  18.210  67.598  1.00  0.00    -0.355 NA 
HETATM   22  C   UNL     1     -10.090  19.469  68.127  1.00  0.00    -0.429 A  
HETATM   23  N   UNL     1     -10.122  20.386  67.190  1.00  0.00    -0.415 NA 
HETATM   24  C   UNL     1     -10.368  18.344  66.251  1.00  0.00    -0.415 A  
HETATM   25  C   UNL     1     -10.290  19.697  66.015  1.00  0.00    -0.523 A  
ENDBRANCH  20  21
ENDBRANCH  10  20
ENDBRANCH   9  10
ENDBRANCH   8   9
ENDBRANCH   5   8
TORSDOF 7
ENDMDL
MODEL        8
REMARK 921   NORMALIZED FREE ENERGY PREDICTED BY IDOCK:   -6.78 KCAL/MOL
REMARK 922        TOTAL FREE ENERGY PREDICTED BY IDOCK:  -10.43 KCAL/MOL
REMARK 923 INTER-LIGAND FREE ENERGY PREDICTED BY IDOCK:   -9.55 KCAL/MOL
REMARK 924 INTRA-LIGAND FREE ENERGY PREDICTED BY IDOCK:   -0.88 KCAL/MOL
REMARK 927      BINDING AFFINITY PREDICTED BY RF-SCORE:    0.00 PKD
ROOT
HETATM    1 CL   UNL     1      -9.814  10.504  62.917  1.00  0.00    -0.307 Cl 
HETATM    2  C   UNL     1     -10.545  11.448  64.156  1.00  0.00    -0.369 A  
HETATM    3  C   UNL     1     -11.756  12.088  63.910  1.00  0.00    -0.537 A  
HETATM    4  C   UNL     1     -12.328  12.887  64.902  1.00  0.00    -0.532 A  
HETATM    5  C   UNL     1     -11.702  13.048  66.149  1.00  0.00    -0.445 A  
HETATM    6  C   UNL     1     -10.495  12.380  66.387  1.00  0.00    -0.267 A  
HETATM    7  C   UNL     1      -9.918  11.584  65.391  1.00  0.00    -0.288 A  
ENDROOT
BRANCH   5   8
HETATM    8  C   UNL     1     -12.283  13.991  67.182  1.00  0.00    -0.356 C  
BRANCH   8   9
HETATM    9  C   UNL     1     -11.363  14.216  68.384  1.00  0.00    -0.315 C  
BRANCH   9  10
HETATM   10  C   UNL     1     -11.452  15.623  69.013  1.00  0.00    -0.363 C  
BRANCH  10  11
HETATM   11  S   UNL     1     -10.741  16.882  67.871  1.00  0.00    -0.313 SA 
BRANCH  11  12
HETATM   12  C   UNL     1      -9.100  17.456  68.373  1.00  0.00    -0.274 A  
HETATM   13 CL   UNL     1      -7.825  15.036  69.051  1.00  0.00    -0.158 Cl 
HETATM   14  C   UNL     1      -6.623  18.761  68.996  1.00  0.00    -0.306 A  
HETATM   15  C   UNL     1      -7.953  16.733  68.775  1.00  0.00    -0.250 A  
HETATM   16  C   UNL     1      -6.733  17.385  69.056  1.00  0.00    -0.243 A  
HETATM   17  C   UNL     1      -7.739  19.507  68.673  1.00  0.00    -0.390 A  
HETATM   18  C   UNL     1      -8.956  18.875  68.371  1.00  0.00    -0.340 A  
HETATM   19 CL   UNL     1     -10.262  19.982  68.024  1.00  0.00    -0.552 Cl 
ENDBRANCH  11  12
ENDBRANCH  10  11
BRANCH  10  20
HETATM   20  C   UNL     1     -11.036  15.855  70.483  1.00  0.00    -0.364 C  
BRANCH  20  21
HETATM   21  N   UNL     1     -12.126  15.766  71.446  1.00  0.00    -0.402 NA 
HETATM   22  C   UNL     1     -12.036  16.039  72.784  1.00  0.00    -0.531 A  
HETATM   23  N   UNL     1     -13.185  15.850  73.389  1.00  0.00    -0.576 NA 
HETATM   24  C   UNL     1     -13.386  15.298  71.206  1.00  0.00    -0.510 A  
HETATM   25  C   UNL     1     -14.036  15.392  72.415  1.00  0.00    -0.560 A  
ENDBRANCH  20  21
ENDBRANCH  10  20
ENDBRANCH   9  10
ENDBRANCH   8   9
ENDBRANCH   5   8
TORSDOF 7
ENDMDL
MODEL        9
REMARK 921   NORMALIZED FREE ENERGY PREDICTED BY IDOCK:   -6.74 KCAL/MOL
REMARK 922        TOTAL FREE ENERGY PREDICTED BY IDOCK:  -10.38 KCAL/MOL
REMARK 923 INTER-LIGAND FREE ENERGY PREDICTED BY IDOCK:   -9.59 KCAL/MOL
REMARK 924 INTRA-LIGAND FREE ENERGY PREDICTED BY IDOCK:   -0.79 KCAL/MOL
REMARK 927      BINDING AFFINITY PREDICTED BY RF-SCORE:    0.00 PKD
ROOT
HETATM    1 CL   UNL     1     -10.757   6.993  73.485  1.00  0.00    -0.390 Cl 
HETATM    2  C   UNL     1     -11.095   8.270  72.382  1.00  0.00    -0.377 A  
HETATM    3  C   UNL     1     -12.388   8.774  72.287  1.00  0.00    -0.448 A  
HETATM    4  C   UNL     1     -12.670   9.782  71.363  1.00  0.00    -0.483 A  
HETATM    5  C   UNL     1     -11.663  10.301  70.531  1.00  0.00    -0.418 A  
HETATM    6  C   UNL     1     -10.362   9.796  70.654  1.00  0.00    -0.330 A  
HETATM    7  C   UNL     1     -10.081   8.782  71.576  1.00  0.00    -0.371 A  
ENDROOT
BRANCH   5   8
HETATM    8  C   UNL     1     -11.999  11.326  69.469  1.00  0.00    -0.421 C  
BRANCH   8   9
HETATM    9  C   UNL     1     -12.107  12.752  70.014  1.00  0.00    -0.355 C  
BRANCH   9  10
HETATM   10  C   UNL     1     -11.925  13.864  68.959  1.00  0.00    -0.364 C  
BRANCH  10  11
HETATM   11  S   UNL     1     -10.359  13.611  68.023  1.00  0.00    -0.257 SA 
BRANCH  11  12
HETATM   12  C   UNL     1     -10.602  12.777  66.435  1.00  0.00    -0.255 A  
HETATM   13 CL   UNL     1     -12.954  14.006  65.490  1.00  0.00    -0.478 Cl 
HETATM   14  C   UNL     1     -10.572  11.291  63.983  1.00  0.00    -0.450 A  
HETATM   15  C   UNL     1     -11.576  12.972  65.430  1.00  0.00    -0.341 A  
HETATM   16  C   UNL     1     -11.537  12.251  64.217  1.00  0.00    -0.442 A  
HETATM   17  C   UNL     1      -9.642  11.022  64.968  1.00  0.00    -0.291 A  
HETATM   18  C   UNL     1      -9.654  11.743  66.173  1.00  0.00    -0.232 A  
HETATM   19 CL   UNL     1      -8.429  11.238  67.311  1.00  0.00    -0.140 Cl 
ENDBRANCH  11  12
ENDBRANCH  10  11
BRANCH  10  20
HETATM   20  C   UNL     1     -12.159  15.346  69.330  1.00  0.00    -0.280 C  
BRANCH  20  21
HETATM   21  N   UNL     1     -12.593  15.569  70.703  1.00  0.00    -0.442 NA 
HETATM   22  C   UNL     1     -11.795  15.968  71.741  1.00  0.00    -0.519 A  
HETATM   23  N   UNL     1     -12.475  16.065  72.858  1.00  0.00    -0.461 NA 
HETATM   24  C   UNL     1     -13.836  15.322  71.212  1.00  0.00    -0.478 A  
HETATM   25  C   UNL     1     -13.750  15.670  72.541  1.00  0.00    -0.563 A  
ENDBRANCH  20  21
ENDBRANCH  10  20
ENDBRANCH   9  10
ENDBRANCH   8   9
ENDBRANCH   5   8
TORSDOF 7
ENDMDL
MODEL       10
REMARK 921   NORMALIZED FREE ENERGY PREDICTED BY IDOCK:   -6.73 KCAL/MOL
REMARK 922        TOTAL FREE ENERGY PREDICTED BY IDOCK:  -10.36 KCAL/MOL
REMARK 923 INTER-LIGAND FREE ENERGY PREDICTED BY IDOCK:   -9.29 KCAL/MOL
REMARK 924 INTRA-LIGAND FREE ENERGY PREDICTED BY IDOCK:   -1.08 KCAL/MOL
REMARK 927      BINDING AFFINITY PREDICTED BY RF-SCORE:    0.00 PKD
ROOT
HETATM    1 CL   UNL     1     -13.384   9.734  72.049  1.00  0.00    -0.529 Cl 
HETATM    2  C   UNL     1     -12.929  11.285  71.461  1.00  0.00    -0.415 A  
HETATM    3  C   UNL     1     -13.345  12.428  72.138  1.00  0.00    -0.508 A  
HETATM    4  C   UNL     1     -13.009  13.687  71.637  1.00  0.00    -0.448 A  
HETATM    5  C   UNL     1     -12.250  13.818  70.462  1.00  0.00    -0.440 A  
HETATM    6  C   UNL     1     -11.823  12.657  69.805  1.00  0.00    -0.379 A  
HETATM    7  C   UNL     1     -12.164  11.395  70.303  1.00  0.00    -0.433 A  
ENDROOT
BRANCH   5   8
HETATM    8  C   UNL     1     -11.973  15.187  69.877  1.00  0.00    -0.372 C  
BRANCH   8   9
HETATM    9  C   UNL     1     -11.929  15.196  68.348  1.00  0.00    -0.216 C  
BRANCH   9  10
HETATM   10  C   UNL     1     -10.713  15.928  67.739  1.00  0.00    -0.320 C  
BRANCH  10  11
HETATM   11  S   UNL     1      -9.599  14.729  66.894  1.00  0.00    -0.252 SA 
BRANCH  11  12
HETATM   12  C   UNL     1     -10.446  13.716  65.656  1.00  0.00    -0.299 A  
HETATM   13 CL   UNL     1     -11.929  15.652  64.244  1.00  0.00    -0.267 Cl 
HETATM   14  C   UNL     1     -11.513  11.783  63.827  1.00  0.00    -0.510 A  
HETATM   15  C   UNL     1     -11.304  14.084  64.594  1.00  0.00    -0.375 A  
HETATM   16  C   UNL     1     -11.803  13.126  63.685  1.00  0.00    -0.549 A  
HETATM   17  C   UNL     1     -10.733  11.375  64.891  1.00  0.00    -0.350 A  
HETATM   18  C   UNL     1     -10.212  12.316  65.793  1.00  0.00    -0.255 A  
HETATM   19 CL   UNL     1      -9.283  11.611  67.094  1.00  0.00    -0.173 Cl 
ENDBRANCH  11  12
ENDBRANCH  10  11
BRANCH  10  20
HETATM   20  C   UNL     1      -9.935  16.979  68.562  1.00  0.00    -0.293 C  
BRANCH  20  21
HETATM   21  N   UNL     1      -9.870  18.303  67.955  1.00  0.00    -0.303 NA 
HETATM   22  C   UNL     1      -9.202  19.384  68.461  1.00  0.00    -0.375 A  
HETATM   23  N   UNL     1      -9.345  20.438  67.693  1.00  0.00    -0.347 NA 
HETATM   24  C   UNL     1     -10.543  18.719  66.842  1.00  0.00    -0.409 A  
HETATM   25  C   UNL     1     -10.176  20.035  66.678  1.00  0.00    -0.471 A  
ENDBRANCH  20  21
ENDBRANCH  10  20
ENDBRANCH   9  10
ENDBRANCH   8   9
ENDBRANCH   5   8
TORSDOF 7
ENDMDL
MODEL       11
REMARK 921   NORMALIZED FREE ENERGY PREDICTED BY IDOCK:   -6.70 KCAL/MOL
REMARK 922        TOTAL FREE ENERGY PREDICTED BY IDOCK:  -10.32 KCAL/MOL
REMARK 923 INTER-LIGAND FREE ENERGY PREDICTED BY IDOCK:   -9.34 KCAL/MOL
REMARK 924 INTRA-LIGAND FREE ENERGY PREDICTED BY IDOCK:   -0.98 KCAL/MOL
REMARK 927      BINDING AFFINITY PREDICTED BY RF-SCORE:    0.00 PKD
ROOT
HETATM    1 CL   UNL     1     -11.360   8.216  72.597  1.00  0.00    -0.458 Cl 
HETATM    2  C   UNL     1     -11.545   9.481  71.445  1.00  0.00    -0.395 A  
HETATM    3  C   UNL     1     -10.640   9.595  70.395  1.00  0.00    -0.354 A  
HETATM    4  C   UNL     1     -10.768  10.646  69.484  1.00  0.00    -0.290 A  
HETATM    5  C   UNL     1     -11.803  11.588  69.609  1.00  0.00    -0.421 A  
HETATM    6  C   UNL     1     -12.717  11.446  70.661  1.00  0.00    -0.282 A  
HETATM    7  C   UNL     1     -12.586  10.396  71.577  1.00  0.00    -0.544 A  
ENDROOT
BRANCH   5   8
HETATM    8  C   UNL     1     -11.876  12.775  68.673  1.00  0.00    -0.341 C  
BRANCH   8   9
HETATM    9  C   UNL     1     -10.754  13.791  68.892  1.00  0.00    -0.249 C  
BRANCH   9  10
HETATM   10  C   UNL     1     -11.227  15.251  69.061  1.00  0.00    -0.280 C  
BRANCH  10  11
HETATM   11  S   UNL     1     -10.603  16.292  67.675  1.00  0.00    -0.304 SA 
BRANCH  11  12
HETATM   12  C   UNL     1      -9.208  17.346  68.145  1.00  0.00    -0.270 A  
HETATM   13 CL   UNL     1      -7.438  15.482  69.298  1.00  0.00    -0.196 Cl 
HETATM   14  C   UNL     1      -7.202  19.333  68.644  1.00  0.00    -0.367 A  
HETATM   15  C   UNL     1      -7.960  17.020  68.722  1.00  0.00    -0.248 A  
HETATM   16  C   UNL     1      -6.971  18.004  68.940  1.00  0.00    -0.263 A  
HETATM   17  C   UNL     1      -8.435  19.702  68.142  1.00  0.00    -0.357 A  
HETATM   18  C   UNL     1      -9.423  18.735  67.900  1.00  0.00    -0.304 A  
HETATM   19 CL   UNL     1     -10.926  19.394  67.302  1.00  0.00    -0.556 Cl 
ENDBRANCH  11  12
ENDBRANCH  10  11
BRANCH  10  20
HETATM   20  C   UNL     1     -11.117  15.961  70.430  1.00  0.00    -0.370 C  
BRANCH  20  21
HETATM   21  N   UNL     1     -12.267  15.778  71.306  1.00  0.00    -0.410 NA 
HETATM   22  C   UNL     1     -12.310  16.067  72.642  1.00  0.00    -0.502 A  
HETATM   23  N   UNL     1     -13.482  15.778  73.157  1.00  0.00    -0.580 NA 
HETATM   24  C   UNL     1     -13.457  15.195  70.973  1.00  0.00    -0.431 A  
HETATM   25  C   UNL     1     -14.206  15.237  72.126  1.00  0.00    -0.571 A  
ENDBRANCH  20  21
ENDBRANCH  10  20
ENDBRANCH   9  10
ENDBRANCH   8   9
ENDBRANCH   5   8
TORSDOF 7
ENDMDL
MODEL       12
REMARK 921   NORMALIZED FREE ENERGY PREDICTED BY IDOCK:   -6.70 KCAL/MOL
REMARK 922        TOTAL FREE ENERGY PREDICTED BY IDOCK:  -10.32 KCAL/MOL
REMARK 923 INTER-LIGAND FREE ENERGY PREDICTED BY IDOCK:   -9.35 KCAL/MOL
REMARK 924 INTRA-LIGAND FREE ENERGY PREDICTED BY IDOCK:   -0.97 KCAL/MOL
REMARK 927      BINDING AFFINITY PREDICTED BY RF-SCORE:    0.00 PKD
ROOT
HETATM    1 CL   UNL     1      -9.847  21.061  67.443  1.00  0.00    -0.382 Cl 
HETATM    2  C   UNL     1      -9.601  19.419  66.991  1.00  0.00    -0.329 A  
HETATM    3  C   UNL     1     -10.476  18.812  66.095  1.00  0.00    -0.499 A  
HETATM    4  C   UNL     1     -10.299  17.468  65.760  1.00  0.00    -0.217 A  
HETATM    5  C   UNL     1      -9.244  16.721  66.309  1.00  0.00    -0.313 A  
HETATM    6  C   UNL     1      -8.360  17.353  67.193  1.00  0.00    -0.232 A  
HETATM    7  C   UNL     1      -8.540  18.698  67.533  1.00  0.00    -0.284 A  
ENDROOT
BRANCH   5   8
HETATM    8  C   UNL     1      -9.117  15.242  66.012  1.00  0.00    -0.244 C  
BRANCH   8   9
HETATM    9  C   UNL     1      -9.621  14.349  67.147  1.00  0.00    -0.251 C  
BRANCH   9  10
HETATM   10  C   UNL     1     -11.046  14.675  67.643  1.00  0.00    -0.304 C  
BRANCH  10  11
HETATM   11  S   UNL     1     -11.066  14.836  69.478  1.00  0.00    -0.280 SA 
BRANCH  11  12
HETATM   12  C   UNL     1     -11.902  13.462  70.307  1.00  0.00    -0.245 A  
HETATM   13 CL   UNL     1     -10.939  11.243  68.862  1.00  0.00    -0.248 Cl 
HETATM   14  C   UNL     1     -13.342  11.588  71.931  1.00  0.00    -0.408 A  
HETATM   15  C   UNL     1     -11.807  12.066  70.103  1.00  0.00    -0.301 A  
HETATM   16  C   UNL     1     -12.502  11.153  70.925  1.00  0.00    -0.509 A  
HETATM   17  C   UNL     1     -13.515  12.945  72.119  1.00  0.00    -0.619 A  
HETATM   18  C   UNL     1     -12.817  13.868  71.324  1.00  0.00    -0.360 A  
HETATM   19 CL   UNL     1     -13.192  15.536  71.681  1.00  0.00    -0.538 Cl 
ENDBRANCH  11  12
ENDBRANCH  10  11
BRANCH  10  20
HETATM   20  C   UNL     1     -12.265  13.892  67.105  1.00  0.00    -0.318 C  
BRANCH  20  21
HETATM   21  N   UNL     1     -12.243  13.641  65.670  1.00  0.00    -0.423 NA 
HETATM   22  C   UNL     1     -12.522  14.557  64.692  1.00  0.00    -0.321 A  
HETATM   23  N   UNL     1     -12.433  14.023  63.497  1.00  0.00    -0.799 NA 
HETATM   24  C   UNL     1     -12.044  12.435  65.059  1.00  0.00    -0.407 A  
HETATM   25  C   UNL     1     -12.131  12.702  63.712  1.00  0.00    -0.522 A  
ENDBRANCH  20  21
ENDBRANCH  10  20
ENDBRANCH   9  10
ENDBRANCH   8   9
ENDBRANCH   5   8
TORSDOF 7
ENDMDL
MODEL       13
REMARK 921   NORMALIZED FREE ENERGY PREDICTED BY IDOCK:   -6.64 KCAL/MOL
REMARK 922        TOTAL FREE ENERGY PREDICTED BY IDOCK:  -10.24 KCAL/MOL
REMARK 923 INTER-LIGAND FREE ENERGY PREDICTED BY IDOCK:   -9.31 KCAL/MOL
REMARK 924 INTRA-LIGAND FREE ENERGY PREDICTED BY IDOCK:   -0.94 KCAL/MOL
REMARK 927      BINDING AFFINITY PREDICTED BY RF-SCORE:    0.00 PKD
ROOT
HETATM    1 CL   UNL     1     -11.449   8.043  72.631  1.00  0.00    -0.464 Cl 
HETATM    2  C   UNL     1     -11.638   9.348  71.526  1.00  0.00    -0.397 A  
HETATM    3  C   UNL     1     -10.763   9.473  70.450  1.00  0.00    -0.341 A  
HETATM    4  C   UNL     1     -10.893  10.555  69.578  1.00  0.00    -0.298 A  
HETATM    5  C   UNL     1     -11.898  11.518  69.765  1.00  0.00    -0.429 A  
HETATM    6  C   UNL     1     -12.782  11.366  70.841  1.00  0.00    -0.397 A  
HETATM    7  C   UNL     1     -12.650  10.285  71.719  1.00  0.00    -0.488 A  
ENDROOT
BRANCH   5   8
HETATM    8  C   UNL     1     -11.970  12.736  68.869  1.00  0.00    -0.286 C  
BRANCH   8   9
HETATM    9  C   UNL     1     -10.851  13.746  69.127  1.00  0.00    -0.205 C  
BRANCH   9  10
HETATM   10  C   UNL     1     -11.276  15.226  69.013  1.00  0.00    -0.280 C  
BRANCH  10  11
HETATM   11  S   UNL     1     -10.498  16.006  67.537  1.00  0.00    -0.300 SA 
BRANCH  11  12
HETATM   12  C   UNL     1      -9.394  17.379  67.951  1.00  0.00    -0.267 A  
HETATM   13 CL   UNL     1     -10.898  19.606  67.107  1.00  0.00    -0.583 Cl 
HETATM   14  C   UNL     1      -7.404  19.246  68.832  1.00  0.00    -0.392 A  
HETATM   15  C   UNL     1      -9.576  18.776  67.836  1.00  0.00    -0.308 A  
HETATM   16  C   UNL     1      -8.598  19.685  68.296  1.00  0.00    -0.358 A  
HETATM   17  C   UNL     1      -7.160  17.888  68.900  1.00  0.00    -0.264 A  
HETATM   18  C   UNL     1      -8.128  16.968  68.466  1.00  0.00    -0.251 A  
HETATM   19 CL   UNL     1      -7.627  15.300  68.593  1.00  0.00    -0.122 Cl 
ENDBRANCH  11  12
ENDBRANCH  10  11
BRANCH  10  20
HETATM   20  C   UNL     1     -11.250  16.150  70.252  1.00  0.00    -0.381 C  
BRANCH  20  21
HETATM   21  N   UNL     1     -12.257  15.845  71.261  1.00  0.00    -0.428 NA 
HETATM   22  C   UNL     1     -12.103  15.985  72.614  1.00  0.00    -0.538 A  
HETATM   23  N   UNL     1     -13.183  15.613  73.259  1.00  0.00    -0.545 NA 
HETATM   24  C   UNL     1     -13.478  15.274  71.043  1.00  0.00    -0.452 A  
HETATM   25  C   UNL     1     -14.049  15.172  72.291  1.00  0.00    -0.534 A  
ENDBRANCH  20  21
ENDBRANCH  10  20
ENDBRANCH   9  10
ENDBRANCH   8   9
ENDBRANCH   5   8
TORSDOF 7
ENDMDL
MODEL       14
REMARK 921   NORMALIZED FREE ENERGY PREDICTED BY IDOCK:   -6.64 KCAL/MOL
REMARK 922        TOTAL FREE ENERGY PREDICTED BY IDOCK:  -10.23 KCAL/MOL
REMARK 923 INTER-LIGAND FREE ENERGY PREDICTED BY IDOCK:   -9.54 KCAL/MOL
REMARK 924 INTRA-LIGAND FREE ENERGY PREDICTED BY IDOCK:   -0.69 KCAL/MOL
REMARK 927      BINDING AFFINITY PREDICTED BY RF-SCORE:    0.00 PKD
ROOT
HETATM    1 CL   UNL     1     -13.525   9.756  72.193  1.00  0.00    -0.518 Cl 
HETATM    2  C   UNL     1     -13.012  11.214  71.436  1.00  0.00    -0.403 A  
HETATM    3  C   UNL     1     -12.299  11.156  70.242  1.00  0.00    -0.397 A  
HETATM    4  C   UNL     1     -11.847  12.338  69.651  1.00  0.00    -0.393 A  
HETATM    5  C   UNL     1     -12.109  13.586  70.239  1.00  0.00    -0.425 A  
HETATM    6  C   UNL     1     -12.846  13.627  71.430  1.00  0.00    -0.442 A  
HETATM    7  C   UNL     1     -13.294  12.443  72.026  1.00  0.00    -0.511 A  
ENDROOT
BRANCH   5   8
HETATM    8  C   UNL     1     -11.535  14.852  69.639  1.00  0.00    -0.325 C  
BRANCH   8   9
HETATM    9  C   UNL     1     -11.722  14.944  68.123  1.00  0.00    -0.344 C  
BRANCH   9  10
HETATM   10  C   UNL     1     -10.429  14.760  67.299  1.00  0.00    -0.264 C  
BRANCH  10  11
HETATM   11  S   UNL     1     -10.092  16.263  66.289  1.00  0.00    -0.342 SA 
BRANCH  11  12
HETATM   12  C   UNL     1      -9.107  17.505  67.162  1.00  0.00    -0.243 A  
HETATM   13 CL   UNL     1      -7.635  15.915  68.963  1.00  0.00    -0.188 Cl 
HETATM   14  C   UNL     1      -7.689  19.758  68.227  1.00  0.00    -0.334 A  
HETATM   15  C   UNL     1      -8.114  17.362  68.158  1.00  0.00    -0.232 A  
HETATM   16  C   UNL     1      -7.406  18.477  68.657  1.00  0.00    -0.313 A  
HETATM   17  C   UNL     1      -8.699  19.947  67.304  1.00  0.00    -0.399 A  
HETATM   18  C   UNL     1      -9.400  18.849  66.782  1.00  0.00    -0.322 A  
HETATM   19 CL   UNL     1     -10.665  19.285  65.659  1.00  0.00    -0.463 Cl 
ENDBRANCH  11  12
ENDBRANCH  10  11
BRANCH  10  20
HETATM   20  C   UNL     1     -10.174  13.452  66.517  1.00  0.00    -0.282 C  
BRANCH  20  21
HETATM   21  N   UNL     1     -11.141  13.174  65.462  1.00  0.00    -0.277 NA 
HETATM   22  C   UNL     1     -12.469  12.898  65.645  1.00  0.00    -0.338 A  
HETATM   23  N   UNL     1     -13.073  12.676  64.502  1.00  0.00    -0.820 NA 
HETATM   24  C   UNL     1     -10.873  13.040  64.130  1.00  0.00    -0.405 A  
HETATM   25  C   UNL     1     -12.090  12.766  63.550  1.00  0.00    -0.559 A  
ENDBRANCH  20  21
ENDBRANCH  10  20
ENDBRANCH   9  10
ENDBRANCH   8   9
ENDBRANCH   5   8
TORSDOF 7
ENDMDL
MODEL       15
REMARK 921   NORMALIZED FREE ENERGY PREDICTED BY IDOCK:   -6.63 KCAL/MOL
REMARK 922        TOTAL FREE ENERGY PREDICTED BY IDOCK:  -10.22 KCAL/MOL
REMARK 923 INTER-LIGAND FREE ENERGY PREDICTED BY IDOCK:   -9.16 KCAL/MOL
REMARK 924 INTRA-LIGAND FREE ENERGY PREDICTED BY IDOCK:   -1.07 KCAL/MOL
REMARK 927      BINDING AFFINITY PREDICTED BY RF-SCORE:    0.00 PKD
ROOT
HETATM    1 CL   UNL     1     -10.602   6.647  73.815  1.00  0.00    -0.335 Cl 
HETATM    2  C   UNL     1     -10.935   7.830  72.610  1.00  0.00    -0.364 A  
HETATM    3  C   UNL     1      -9.902   8.306  71.809  1.00  0.00    -0.284 A  
HETATM    4  C   UNL     1     -10.166   9.295  70.859  1.00  0.00    -0.371 A  
HETATM    5  C   UNL     1     -11.462   9.811  70.695  1.00  0.00    -0.397 A  
HETATM    6  C   UNL     1     -12.494   9.305  71.496  1.00  0.00    -0.435 A  
HETATM    7  C   UNL     1     -12.229   8.319  72.452  1.00  0.00    -0.412 A  
ENDROOT
BRANCH   5   8
HETATM    8  C   UNL     1     -11.718  10.948  69.728  1.00  0.00    -0.413 C  
BRANCH   8   9
HETATM    9  C   UNL     1     -10.437  11.570  69.170  1.00  0.00    -0.135 C  
BRANCH   9  10
HETATM   10  C   UNL     1     -10.559  13.057  68.770  1.00  0.00    -0.193 C  
BRANCH  10  11
HETATM   11  S   UNL     1     -12.244  13.690  69.162  1.00  0.00    -0.101 SA 
BRANCH  11  12
HETATM   12  C   UNL     1     -12.354  14.466  70.794  1.00  0.00    -0.347 A  
HETATM   13 CL   UNL     1     -13.890  12.587  72.225  1.00  0.00    -0.395 Cl 
HETATM   14  C   UNL     1     -12.216  15.981  73.225  1.00  0.00    -0.632 A  
HETATM   15  C   UNL     1     -12.944  14.009  71.994  1.00  0.00    -0.363 A  
HETATM   16  C   UNL     1     -12.848  14.753  73.191  1.00  0.00    -0.614 A  
HETATM   17  C   UNL     1     -11.685  16.493  72.057  1.00  0.00    -0.301 A  
HETATM   18  C   UNL     1     -11.754  15.759  70.862  1.00  0.00    -0.406 A  
HETATM   19 CL   UNL     1     -11.065  16.583  69.485  1.00  0.00    -0.294 Cl 
ENDBRANCH  11  12
ENDBRANCH  10  11
BRANCH  10  20
HETATM   20  C   UNL     1     -10.048  13.546  67.396  1.00  0.00    -0.237 C  
BRANCH  20  21
HETATM   21  N   UNL     1     -11.013  13.431  66.310  1.00  0.00    -0.287 NA 
HETATM   22  C   UNL     1     -11.581  14.473  65.630  1.00  0.00    -0.344 A  
HETATM   23  N   UNL     1     -12.424  14.048  64.719  1.00  0.00    -0.609 NA 
HETATM   24  C   UNL     1     -11.592  12.280  65.857  1.00  0.00    -0.393 A  
HETATM   25  C   UNL     1     -12.437  12.682  64.848  1.00  0.00    -0.494 A  
ENDBRANCH  20  21
ENDBRANCH  10  20
ENDBRANCH   9  10
ENDBRANCH   8   9
ENDBRANCH   5   8
TORSDOF 7
ENDMDL
MODEL       16
REMARK 921   NORMALIZED FREE ENERGY PREDICTED BY IDOCK:   -6.62 KCAL/MOL
REMARK 922        TOTAL FREE ENERGY PREDICTED BY IDOCK:  -10.22 KCAL/MOL
REMARK 923 INTER-LIGAND FREE ENERGY PREDICTED BY IDOCK:   -9.34 KCAL/MOL
REMARK 924 INTRA-LIGAND FREE ENERGY PREDICTED BY IDOCK:   -0.87 KCAL/MOL
REMARK 927      BINDING AFFINITY PREDICTED BY RF-SCORE:    0.00 PKD
ROOT
HETATM    1 CL   UNL     1     -12.535  15.893  74.353  1.00  0.00    -0.766 Cl 
HETATM    2  C   UNL     1     -12.350  15.297  72.750  1.00  0.00    -0.396 A  
HETATM    3  C   UNL     1     -12.947  14.092  72.390  1.00  0.00    -0.471 A  
HETATM    4  C   UNL     1     -12.763  13.589  71.101  1.00  0.00    -0.425 A  
HETATM    5  C   UNL     1     -11.990  14.286  70.157  1.00  0.00    -0.391 A  
HETATM    6  C   UNL     1     -11.414  15.507  70.530  1.00  0.00    -0.368 A  
HETATM    7  C   UNL     1     -11.593  16.009  71.823  1.00  0.00    -0.534 A  
ENDROOT
BRANCH   5   8
HETATM    8  C   UNL     1     -11.720  13.686  68.794  1.00  0.00    -0.383 C  
BRANCH   8   9
HETATM    9  C   UNL     1     -11.691  12.156  68.799  1.00  0.00    -0.374 C  
BRANCH   9  10
HETATM   10  C   UNL     1     -10.833  11.521  67.683  1.00  0.00    -0.227 C  
BRANCH  10  11
HETATM   11  S   UNL     1      -9.587  10.373  68.406  1.00  0.00    -0.154 SA 
BRANCH  11  12
HETATM   12  C   UNL     1     -10.310   8.835  69.030  1.00  0.00    -0.213 A  
HETATM   13 CL   UNL     1     -11.371   9.659  71.507  1.00  0.00    -0.450 Cl 
HETATM   14  C   UNL     1     -11.380   6.238  69.606  1.00  0.00    -0.492 A  
HETATM   15  C   UNL     1     -11.050   8.575  70.206  1.00  0.00    -0.214 A  
HETATM   16  C   UNL     1     -11.593   7.297  70.466  1.00  0.00    -0.292 A  
HETATM   17  C   UNL     1     -10.605   6.435  68.480  1.00  0.00    -0.302 A  
HETATM   18  C   UNL     1     -10.074   7.703  68.195  1.00  0.00    -0.186 A  
HETATM   19 CL   UNL     1      -9.090   7.750  66.752  1.00  0.00    -0.170 Cl 
ENDBRANCH  11  12
ENDBRANCH  10  11
BRANCH  10  20
HETATM   20  C   UNL     1     -10.246  12.393  66.549  1.00  0.00    -0.227 C  
BRANCH  20  21
HETATM   21  N   UNL     1     -11.091  12.505  65.367  1.00  0.00    -0.293 NA 
HETATM   22  C   UNL     1     -12.411  12.868  65.357  1.00  0.00    -0.485 A  
HETATM   23  N   UNL     1     -12.900  12.861  64.140  1.00  0.00    -0.688 NA 
HETATM   24  C   UNL     1     -10.748  12.170  64.088  1.00  0.00    -0.360 A  
HETATM   25  C   UNL     1     -11.872  12.432  63.340  1.00  0.00    -0.484 A  
ENDBRANCH  20  21
ENDBRANCH  10  20
ENDBRANCH   9  10
ENDBRANCH   8   9
ENDBRANCH   5   8
TORSDOF 7
ENDMDL
MODEL       17
REMARK 921   NORMALIZED FREE ENERGY PREDICTED BY IDOCK:   -6.62 KCAL/MOL
REMARK 922        TOTAL FREE ENERGY PREDICTED BY IDOCK:  -10.21 KCAL/MOL
REMARK 923 INTER-LIGAND FREE ENERGY PREDICTED BY IDOCK:   -9.04 KCAL/MOL
REMARK 924 INTRA-LIGAND FREE ENERGY PREDICTED BY IDOCK:   -1.17 KCAL/MOL
REMARK 927      BINDING AFFINITY PREDICTED BY RF-SCORE:    0.00 PKD
ROOT
HETATM    1 CL   UNL     1     -12.656  15.677  74.558  1.00  0.00    -0.695 Cl 
HETATM    2  C   UNL     1     -12.445  15.258  72.903  1.00  0.00    -0.406 A  
HETATM    3  C   UNL     1     -12.916  14.035  72.436  1.00  0.00    -0.471 A  
HETATM    4  C   UNL     1     -12.707  13.679  71.102  1.00  0.00    -0.432 A  
HETATM    5  C   UNL     1     -12.035  14.542  70.221  1.00  0.00    -0.379 A  
HETATM    6  C   UNL     1     -11.585  15.778  70.703  1.00  0.00    -0.416 A  
HETATM    7  C   UNL     1     -11.789  16.133  72.041  1.00  0.00    -0.615 A  
ENDROOT
BRANCH   5   8
HETATM    8  C   UNL     1     -11.732  14.107  68.803  1.00  0.00    -0.380 C  
BRANCH   8   9
HETATM    9  C   UNL     1     -10.973  12.781  68.724  1.00  0.00    -0.289 C  
BRANCH   9  10
HETATM   10  C   UNL     1     -11.126  12.026  67.386  1.00  0.00    -0.281 C  
BRANCH  10  11
HETATM   11  S   UNL     1     -10.998  10.208  67.656  1.00  0.00    -0.199 SA 
BRANCH  11  12
HETATM   12  C   UNL     1     -10.618   9.766  69.370  1.00  0.00    -0.228 A  
HETATM   13 CL   UNL     1     -13.108  10.151  70.632  1.00  0.00    -0.352 Cl 
HETATM   14  C   UNL     1      -9.627   8.909  71.921  1.00  0.00    -0.326 A  
HETATM   15  C   UNL     1     -11.451   9.690  70.509  1.00  0.00    -0.285 A  
HETATM   16  C   UNL     1     -10.957   9.243  71.754  1.00  0.00    -0.383 A  
HETATM   17  C   UNL     1      -8.766   9.035  70.848  1.00  0.00    -0.280 A  
HETATM   18  C   UNL     1      -9.244   9.458  69.598  1.00  0.00    -0.185 A  
HETATM   19 CL   UNL     1      -8.004   9.593  68.375  1.00  0.00    -0.095 Cl 
ENDBRANCH  11  12
ENDBRANCH  10  11
BRANCH  10  20
HETATM   20  C   UNL     1     -10.359  12.492  66.127  1.00  0.00    -0.253 C  
BRANCH  20  21
HETATM   21  N   UNL     1     -11.078  13.448  65.295  1.00  0.00    -0.287 NA 
HETATM   22  C   UNL     1     -12.000  13.138  64.333  1.00  0.00    -0.397 A  
HETATM   23  N   UNL     1     -12.460  14.217  63.744  1.00  0.00    -0.806 NA 
HETATM   24  C   UNL     1     -10.883  14.800  65.257  1.00  0.00    -0.383 A  
HETATM   25  C   UNL     1     -11.774  15.259  64.315  1.00  0.00    -0.215 A  
ENDBRANCH  20  21
ENDBRANCH  10  20
ENDBRANCH   9  10
ENDBRANCH   8   9
ENDBRANCH   5   8
TORSDOF 7
ENDMDL
MODEL       18
REMARK 921   NORMALIZED FREE ENERGY PREDICTED BY IDOCK:   -6.61 KCAL/MOL
REMARK 922        TOTAL FREE ENERGY PREDICTED BY IDOCK:  -10.20 KCAL/MOL
REMARK 923 INTER-LIGAND FREE ENERGY PREDICTED BY IDOCK:   -9.26 KCAL/MOL
REMARK 924 INTRA-LIGAND FREE ENERGY PREDICTED BY IDOCK:   -0.94 KCAL/MOL
REMARK 927      BINDING AFFINITY PREDICTED BY RF-SCORE:    0.00 PKD
ROOT
HETATM    1 CL   UNL     1     -12.642  15.657  74.447  1.00  0.00    -0.730 Cl 
HETATM    2  C   UNL     1     -12.404  15.165  72.815  1.00  0.00    -0.385 A  
HETATM    3  C   UNL     1     -12.859  13.918  72.397  1.00  0.00    -0.379 A  
HETATM    4  C   UNL     1     -12.629  13.504  71.084  1.00  0.00    -0.438 A  
HETATM    5  C   UNL     1     -11.949  14.332  70.175  1.00  0.00    -0.391 A  
HETATM    6  C   UNL     1     -11.516  15.592  70.606  1.00  0.00    -0.383 A  
HETATM    7  C   UNL     1     -11.741  16.005  71.924  1.00  0.00    -0.594 A  
ENDROOT
BRANCH   5   8
HETATM    8  C   UNL     1     -11.623  13.835  68.782  1.00  0.00    -0.363 C  
BRANCH   8   9
HETATM    9  C   UNL     1     -12.035  12.381  68.545  1.00  0.00    -0.273 C  
BRANCH   9  10
HETATM   10  C   UNL     1     -11.059  11.566  67.668  1.00  0.00    -0.266 C  
BRANCH  10  11
HETATM   11  S   UNL     1      -9.931  10.564  68.725  1.00  0.00    -0.201 SA 
BRANCH  11  12
HETATM   12  C   UNL     1     -10.482   8.853  68.936  1.00  0.00    -0.205 A  
HETATM   13 CL   UNL     1      -9.823   7.722  66.441  1.00  0.00    -0.247 Cl 
HETATM   14  C   UNL     1     -11.401   6.248  69.704  1.00  0.00    -0.492 A  
HETATM   15  C   UNL     1     -10.386   7.740  68.069  1.00  0.00    -0.209 A  
HETATM   16  C   UNL     1     -10.820   6.457  68.469  1.00  0.00    -0.382 A  
HETATM   17  C   UNL     1     -11.574   7.323  70.553  1.00  0.00    -0.292 A  
HETATM   18  C   UNL     1     -11.131   8.602  70.181  1.00  0.00    -0.192 A  
HETATM   19 CL   UNL     1     -11.469   9.841  71.365  1.00  0.00    -0.450 Cl 
ENDBRANCH  11  12
ENDBRANCH  10  11
BRANCH  10  20
HETATM   20  C   UNL     1     -10.324  12.232  66.483  1.00  0.00    -0.227 C  
BRANCH  20  21
HETATM   21  N   UNL     1     -11.190  12.929  65.542  1.00  0.00    -0.283 NA 
HETATM   22  C   UNL     1     -12.187  12.359  64.796  1.00  0.00    -0.423 A  
HETATM   23  N   UNL     1     -12.778  13.245  64.031  1.00  0.00    -0.667 NA 
HETATM   24  C   UNL     1     -11.093  14.238  65.165  1.00  0.00    -0.352 A  
HETATM   25  C   UNL     1     -12.108  14.421  64.255  1.00  0.00    -0.436 A  
ENDBRANCH  20  21
ENDBRANCH  10  20
ENDBRANCH   9  10
ENDBRANCH   8   9
ENDBRANCH   5   8
TORSDOF 7
ENDMDL
MODEL       19
REMARK 921   NORMALIZED FREE ENERGY PREDICTED BY IDOCK:   -6.60 KCAL/MOL
REMARK 922        TOTAL FREE ENERGY PREDICTED BY IDOCK:  -10.18 KCAL/MOL
REMARK 923 INTER-LIGAND FREE ENERGY PREDICTED BY IDOCK:   -9.10 KCAL/MOL
REMARK 924 INTRA-LIGAND FREE ENERGY PREDICTED BY IDOCK:   -1.08 KCAL/MOL
REMARK 927      BINDING AFFINITY PREDICTED BY RF-SCORE:    0.00 PKD
ROOT
HETATM    1 CL   UNL     1      -9.587  20.740  67.350  1.00  0.00    -0.564 Cl 
HETATM    2  C   UNL     1      -9.597  19.095  66.844  1.00  0.00    -0.325 A  
HETATM    3  C   UNL     1     -10.613  18.637  66.011  1.00  0.00    -0.410 A  
HETATM    4  C   UNL     1     -10.643  17.292  65.635  1.00  0.00    -0.173 A  
HETATM    5  C   UNL     1      -9.656  16.396  66.078  1.00  0.00    -0.352 A  
HETATM    6  C   UNL     1      -8.629  16.879  66.899  1.00  0.00    -0.241 A  
HETATM    7  C   UNL     1      -8.602  18.225  67.282  1.00  0.00    -0.254 A  
ENDROOT
BRANCH   5   8
HETATM    8  C   UNL     1      -9.750  14.923  65.740  1.00  0.00    -0.359 C  
BRANCH   8   9
HETATM    9  C   UNL     1      -9.929  14.029  66.969  1.00  0.00    -0.257 C  
BRANCH   9  10
HETATM   10  C   UNL     1     -11.355  13.471  67.162  1.00  0.00    -0.321 C  
BRANCH  10  11
HETATM   11  S   UNL     1     -11.478  12.561  68.759  1.00  0.00    -0.333 SA 
BRANCH  11  12
HETATM   12  C   UNL     1     -12.247  13.533  70.078  1.00  0.00    -0.312 A  
HETATM   13 CL   UNL     1     -11.584  16.164  69.318  1.00  0.00    -0.309 Cl 
HETATM   14  C   UNL     1     -13.666  14.688  72.285  1.00  0.00    -0.565 A  
HETATM   15  C   UNL     1     -12.335  14.932  70.261  1.00  0.00    -0.341 A  
HETATM   16  C   UNL     1     -13.058  15.489  71.339  1.00  0.00    -0.580 A  
HETATM   17  C   UNL     1     -13.546  13.317  72.179  1.00  0.00    -0.655 A  
HETATM   18  C   UNL     1     -12.849  12.745  71.103  1.00  0.00    -0.226 A  
HETATM   19 CL   UNL     1     -12.770  11.001  71.158  1.00  0.00    -0.500 Cl 
ENDBRANCH  11  12
ENDBRANCH  10  11
BRANCH  10  20
HETATM   20  C   UNL     1     -12.076  12.739  66.007  1.00  0.00    -0.395 C  
BRANCH  20  21
HETATM   21  N   UNL     1     -11.210  11.920  65.169  1.00  0.00    -0.308 NA 
HETATM   22  C   UNL     1     -11.029  12.066  63.821  1.00  0.00    -0.426 A  
HETATM   23  N   UNL     1     -10.199  11.166  63.349  1.00  0.00    -0.370 NA 
HETATM   24  C   UNL     1     -10.515  10.810  65.559  1.00  0.00    -0.194 A  
HETATM   25  C   UNL     1      -9.869  10.380  64.424  1.00  0.00    -0.328 A  
ENDBRANCH  20  21
ENDBRANCH  10  20
ENDBRANCH   9  10
ENDBRANCH   8   9
ENDBRANCH   5   8
TORSDOF 7
ENDMDL
MODEL       20
REMARK 921   NORMALIZED FREE ENERGY PREDICTED BY IDOCK:   -6.60 KCAL/MOL
REMARK 922        TOTAL FREE ENERGY PREDICTED BY IDOCK:  -10.18 KCAL/MOL
REMARK 923 INTER-LIGAND FREE ENERGY PREDICTED BY IDOCK:   -8.78 KCAL/MOL
REMARK 924 INTRA-LIGAND FREE ENERGY PREDICTED BY IDOCK:   -1.39 KCAL/MOL
REMARK 927      BINDING AFFINITY PREDICTED BY RF-SCORE:    0.00 PKD
ROOT
HETATM    1 CL   UNL     1     -13.119   9.300  72.263  1.00  0.00    -0.501 Cl 
HETATM    2  C   UNL     1     -12.800  10.754  71.400  1.00  0.00    -0.452 A  
HETATM    3  C   UNL     1     -12.205  10.693  70.144  1.00  0.00    -0.398 A  
HETATM    4  C   UNL     1     -11.910  11.876  69.462  1.00  0.00    -0.395 A  
HETATM    5  C   UNL     1     -12.211  13.127  70.025  1.00  0.00    -0.323 A  
HETATM    6  C   UNL     1     -12.828  13.169  71.281  1.00  0.00    -0.384 A  
HETATM    7  C   UNL     1     -13.119  11.985  71.967  1.00  0.00    -0.456 A  
ENDROOT
BRANCH   5   8
HETATM    8  C   UNL     1     -11.801  14.403  69.319  1.00  0.00    -0.365 C  
BRANCH   8   9
HETATM    9  C   UNL     1     -11.887  14.308  67.795  1.00  0.00    -0.414 C  
BRANCH   9  10
HETATM   10  C   UNL     1     -10.939  15.258  67.032  1.00  0.00    -0.324 C  
BRANCH  10  11
HETATM   11  S   UNL     1     -10.112  14.366  65.649  1.00  0.00    -0.350 SA 
BRANCH  11  12
HETATM   12  C   UNL     1      -9.858  12.606  65.984  1.00  0.00    -0.254 A  
HETATM   13 CL   UNL     1      -8.428  12.681  68.411  1.00  0.00    -0.153 Cl 
HETATM   14  C   UNL     1      -9.747   9.747  66.181  1.00  0.00    -0.309 A  
HETATM   15  C   UNL     1      -9.255  11.954  67.084  1.00  0.00    -0.183 A  
HETATM   16  C   UNL     1      -9.228  10.546  67.181  1.00  0.00    -0.158 A  
HETATM   17  C   UNL     1     -10.285  10.345  65.059  1.00  0.00    -0.334 A  
HETATM   18  C   UNL     1     -10.338  11.744  64.953  1.00  0.00    -0.289 A  
HETATM   19 CL   UNL     1     -11.015  12.316  63.448  1.00  0.00    -0.492 Cl 
ENDBRANCH  11  12
ENDBRANCH  10  11
BRANCH  10  20
HETATM   20  C   UNL     1      -9.970  16.186  67.800  1.00  0.00    -0.237 C  
BRANCH  20  21
HETATM   21  N   UNL     1     -10.140  17.607  67.526  1.00  0.00    -0.323 NA 
HETATM   22  C   UNL     1     -10.360  18.164  66.295  1.00  0.00    -0.397 A  
HETATM   23  N   UNL     1     -10.455  19.470  66.372  1.00  0.00    -0.468 NA 
HETATM   24  C   UNL     1     -10.008  18.629  68.422  1.00  0.00    -0.387 A  
HETATM   25  C   UNL     1     -10.241  19.772  67.693  1.00  0.00    -0.434 A  
ENDBRANCH  20  21
ENDBRANCH  10  20
ENDBRANCH   9  10
ENDBRANCH   8   9
ENDBRANCH   5   8
TORSDOF 7
ENDMDL
MODEL       21
REMARK 921   NORMALIZED FREE ENERGY PREDICTED BY IDOCK:   -6.58 KCAL/MOL
REMARK 922        TOTAL FREE ENERGY PREDICTED BY IDOCK:  -10.15 KCAL/MOL
REMARK 923 INTER-LIGAND FREE ENERGY PREDICTED BY IDOCK:   -9.03 KCAL/MOL
REMARK 924 INTRA-LIGAND FREE ENERGY PREDICTED BY IDOCK:   -1.12 KCAL/MOL
REMARK 927      BINDING AFFINITY PREDICTED BY RF-SCORE:    0.00 PKD
ROOT
HETATM    1 CL   UNL     1     -13.392   9.935  72.142  1.00  0.00    -0.534 Cl 
HETATM    2  C   UNL     1     -12.904  11.387  71.358  1.00  0.00    -0.397 A  
HETATM    3  C   UNL     1     -12.158  11.319  70.185  1.00  0.00    -0.448 A  
HETATM    4  C   UNL     1     -11.728  12.498  69.572  1.00  0.00    -0.375 A  
HETATM    5  C   UNL     1     -12.046  13.753  70.118  1.00  0.00    -0.429 A  
HETATM    6  C   UNL     1     -12.815  13.803  71.287  1.00  0.00    -0.434 A  
HETATM    7  C   UNL     1     -13.241  12.622  71.905  1.00  0.00    -0.504 A  
ENDROOT
BRANCH   5   8
HETATM    8  C   UNL     1     -11.496  15.020  69.497  1.00  0.00    -0.317 C  
BRANCH   8   9
HETATM    9  C   UNL     1     -10.046  14.886  69.027  1.00  0.00    -0.237 C  
BRANCH   9  10
HETATM   10  C   UNL     1      -9.585  15.973  68.031  1.00  0.00    -0.215 C  
BRANCH  10  11
HETATM   11  S   UNL     1      -9.008  15.202  66.461  1.00  0.00    -0.274 SA 
BRANCH  11  12
HETATM   12  C   UNL     1     -10.188  14.016  65.771  1.00  0.00    -0.328 A  
HETATM   13 CL   UNL     1      -9.179  11.568  66.732  1.00  0.00    -0.179 Cl 
HETATM   14  C   UNL     1     -12.304  12.499  64.570  1.00  0.00    -0.545 A  
HETATM   15  C   UNL     1     -10.285  12.614  65.925  1.00  0.00    -0.274 A  
HETATM   16  C   UNL     1     -11.345  11.882  65.348  1.00  0.00    -0.334 A  
HETATM   17  C   UNL     1     -12.207  13.857  64.340  1.00  0.00    -0.449 A  
HETATM   18  C   UNL     1     -11.171  14.605  64.921  1.00  0.00    -0.396 A  
HETATM   19 CL   UNL     1     -11.189  16.297  64.486  1.00  0.00    -0.378 Cl 
ENDBRANCH  11  12
ENDBRANCH  10  11
BRANCH  10  20
HETATM   20  C   UNL     1      -8.668  17.127  68.496  1.00  0.00    -0.261 C  
BRANCH  20  21
HETATM   21  N   UNL     1      -9.105  18.455  68.086  1.00  0.00    -0.300 NA 
HETATM   22  C   UNL     1     -10.022  19.234  68.739  1.00  0.00    -0.440 A  
HETATM   23  N   UNL     1     -10.215  20.371  68.114  1.00  0.00    -0.265 NA 
HETATM   24  C   UNL     1      -8.759  19.105  66.936  1.00  0.00    -0.301 A  
HETATM   25  C   UNL     1      -9.431  20.305  66.991  1.00  0.00    -0.412 A  
ENDBRANCH  20  21
ENDBRANCH  10  20
ENDBRANCH   9  10
ENDBRANCH   8   9
ENDBRANCH   5   8
TORSDOF 7
ENDMDL
MODEL       22
REMARK 921   NORMALIZED FREE ENERGY PREDICTED BY IDOCK:   -6.57 KCAL/MOL
REMARK 922        TOTAL FREE ENERGY PREDICTED BY IDOCK:  -10.14 KCAL/MOL
REMARK 923 INTER-LIGAND FREE ENERGY PREDICTED BY IDOCK:   -8.91 KCAL/MOL
REMARK 924 INTRA-LIGAND FREE ENERGY PREDICTED BY IDOCK:   -1.23 KCAL/MOL
REMARK 927      BINDING AFFINITY PREDICTED BY RF-SCORE:    0.00 PKD
ROOT
HETATM    1 CL   UNL     1     -12.632  15.860  74.203  1.00  0.00    -0.717 Cl 
HETATM    2  C   UNL     1     -12.408  15.274  72.600  1.00  0.00    -0.386 A  
HETATM    3  C   UNL     1     -12.906  14.023  72.248  1.00  0.00    -0.403 A  
HETATM    4  C   UNL     1     -12.688  13.532  70.959  1.00  0.00    -0.399 A  
HETATM    5  C   UNL     1     -11.979  14.287  70.009  1.00  0.00    -0.396 A  
HETATM    6  C   UNL     1     -11.504  15.552  70.375  1.00  0.00    -0.364 A  
HETATM    7  C   UNL     1     -11.717  16.043  71.668  1.00  0.00    -0.583 A  
ENDROOT
BRANCH   5   8
HETATM    8  C   UNL     1     -11.669  13.706  68.646  1.00  0.00    -0.389 C  
BRANCH   8   9
HETATM    9  C   UNL     1     -11.971  14.666  67.494  1.00  0.00    -0.309 C  
BRANCH   9  10
HETATM   10  C   UNL     1     -11.141  14.424  66.215  1.00  0.00    -0.331 C  
BRANCH  10  11
HETATM   11  S   UNL     1     -10.414  16.005  65.612  1.00  0.00    -0.392 SA 
BRANCH  11  12
HETATM   12  C   UNL     1      -9.517  16.914  66.895  1.00  0.00    -0.251 A  
HETATM   13 CL   UNL     1      -8.399  14.820  68.412  1.00  0.00    -0.147 Cl 
HETATM   14  C   UNL     1      -8.178  18.718  68.676  1.00  0.00    -0.363 A  
HETATM   15  C   UNL     1      -8.690  16.453  67.944  1.00  0.00    -0.179 A  
HETATM   16  C   UNL     1      -8.017  17.352  68.800  1.00  0.00    -0.244 A  
HETATM   17  C   UNL     1      -9.030  19.206  67.705  1.00  0.00    -0.338 A  
HETATM   18  C   UNL     1      -9.693  18.328  66.833  1.00  0.00    -0.315 A  
HETATM   19 CL   UNL     1     -10.756  19.125  65.700  1.00  0.00    -0.443 Cl 
ENDBRANCH  11  12
ENDBRANCH  10  11
BRANCH  10  20
HETATM   20  C   UNL     1     -11.702  13.555  65.066  1.00  0.00    -0.334 C  
BRANCH  20  21
HETATM   21  N   UNL     1     -10.926  12.356  64.773  1.00  0.00    -0.290 NA 
HETATM   22  C   UNL     1     -10.703  11.831  63.529  1.00  0.00    -0.436 A  
HETATM   23  N   UNL     1      -9.981  10.737  63.594  1.00  0.00    -0.337 NA 
HETATM   24  C   UNL     1     -10.380  11.500  65.686  1.00  0.00    -0.261 A  
HETATM   25  C   UNL     1      -9.769  10.523  64.933  1.00  0.00    -0.300 A  
ENDBRANCH  20  21
ENDBRANCH  10  20
ENDBRANCH   9  10
ENDBRANCH   8   9
ENDBRANCH   5   8
TORSDOF 7
ENDMDL
MODEL       23
REMARK 921   NORMALIZED FREE ENERGY PREDICTED BY IDOCK:   -6.56 KCAL/MOL
REMARK 922        TOTAL FREE ENERGY PREDICTED BY IDOCK:  -10.13 KCAL/MOL
REMARK 923 INTER-LIGAND FREE ENERGY PREDICTED BY IDOCK:   -9.03 KCAL/MOL
REMARK 924 INTRA-LIGAND FREE ENERGY PREDICTED BY IDOCK:   -1.10 KCAL/MOL
REMARK 927      BINDING AFFINITY PREDICTED BY RF-SCORE:    0.00 PKD
ROOT
HETATM    1 CL   UNL     1     -13.902  15.646  72.565  1.00  0.00    -0.646 Cl 
HETATM    2  C   UNL     1     -13.343  14.208  71.803  1.00  0.00    -0.380 A  
HETATM    3  C   UNL     1     -13.698  12.968  72.326  1.00  0.00    -0.608 A  
HETATM    4  C   UNL     1     -13.211  11.803  71.731  1.00  0.00    -0.434 A  
HETATM    5  C   UNL     1     -12.371  11.863  70.606  1.00  0.00    -0.405 A  
HETATM    6  C   UNL     1     -12.040  13.119  70.081  1.00  0.00    -0.392 A  
HETATM    7  C   UNL     1     -12.524  14.287  70.680  1.00  0.00    -0.428 A  
ENDROOT
BRANCH   5   8
HETATM    8  C   UNL     1     -11.774  10.598  70.027  1.00  0.00    -0.405 C  
BRANCH   8   9
HETATM    9  C   UNL     1     -11.334  10.747  68.570  1.00  0.00    -0.360 C  
BRANCH   9  10
HETATM   10  C   UNL     1      -9.805  10.804  68.357  1.00  0.00    -0.169 C  
BRANCH  10  11
HETATM   11  S   UNL     1      -9.357  12.251  67.309  1.00  0.00    -0.191 SA 
BRANCH  11  12
HETATM   12  C   UNL     1     -10.339  12.367  65.793  1.00  0.00    -0.263 A  
HETATM   13 CL   UNL     1      -9.461  10.105  64.361  1.00  0.00    -0.346 Cl 
HETATM   14  C   UNL     1     -12.126  12.870  63.608  1.00  0.00    -0.611 A  
HETATM   15  C   UNL     1     -10.418  11.503  64.677  1.00  0.00    -0.301 A  
HETATM   16  C   UNL     1     -11.320  11.749  63.619  1.00  0.00    -0.525 A  
HETATM   17  C   UNL     1     -12.028  13.774  64.647  1.00  0.00    -0.445 A  
HETATM   18  C   UNL     1     -11.152  13.537  65.718  1.00  0.00    -0.286 A  
HETATM   19 CL   UNL     1     -11.138  14.807  66.917  1.00  0.00    -0.332 Cl 
ENDBRANCH  11  12
ENDBRANCH  10  11
BRANCH  10  20
HETATM   20  C   UNL     1      -9.016   9.531  67.977  1.00  0.00    -0.123 C  
BRANCH  20  21
HETATM   21  N   UNL     1      -9.793   8.299  68.012  1.00  0.00    -0.162 NA 
HETATM   22  C   UNL     1     -10.474   7.751  66.959  1.00  0.00    -0.349 A  
HETATM   23  N   UNL     1     -11.091   6.647  67.310  1.00  0.00    -0.379 NA 
HETATM   24  C   UNL     1     -10.062   7.539  69.115  1.00  0.00    -0.192 A  
HETATM   25  C   UNL     1     -10.838   6.502  68.651  1.00  0.00    -0.295 A  
ENDBRANCH  20  21
ENDBRANCH  10  20
ENDBRANCH   9  10
ENDBRANCH   8   9
ENDBRANCH   5   8
TORSDOF 7
ENDMDL
MODEL       24
REMARK 921   NORMALIZED FREE ENERGY PREDICTED BY IDOCK:   -6.56 KCAL/MOL
REMARK 922        TOTAL FREE ENERGY PREDICTED BY IDOCK:  -10.13 KCAL/MOL
REMARK 923 INTER-LIGAND FREE ENERGY PREDICTED BY IDOCK:   -9.06 KCAL/MOL
REMARK 924 INTRA-LIGAND FREE ENERGY PREDICTED BY IDOCK:   -1.08 KCAL/MOL
REMARK 927      BINDING AFFINITY PREDICTED BY RF-SCORE:    0.00 PKD
ROOT
HETATM    1 CL   UNL     1      -9.484  10.386  62.693  1.00  0.00    -0.332 Cl 
HETATM    2  C   UNL     1     -10.353  11.314  63.853  1.00  0.00    -0.381 A  
HETATM    3  C   UNL     1     -11.593  11.850  63.517  1.00  0.00    -0.537 A  
HETATM    4  C   UNL     1     -12.278  12.637  64.444  1.00  0.00    -0.518 A  
HETATM    5  C   UNL     1     -11.738  12.890  65.716  1.00  0.00    -0.437 A  
HETATM    6  C   UNL     1     -10.499  12.325  66.045  1.00  0.00    -0.284 A  
HETATM    7  C   UNL     1      -9.809  11.541  65.114  1.00  0.00    -0.294 A  
ENDROOT
BRANCH   5   8
HETATM    8  C   UNL     1     -12.445  13.820  66.678  1.00  0.00    -0.307 C  
BRANCH   8   9
HETATM    9  C   UNL     1     -11.534  14.906  67.253  1.00  0.00    -0.350 C  
BRANCH   9  10
HETATM   10  C   UNL     1     -11.612  15.072  68.787  1.00  0.00    -0.335 C  
BRANCH  10  11
HETATM   11  S   UNL     1     -10.155  16.013  69.405  1.00  0.00    -0.271 SA 
BRANCH  11  12
HETATM   12  C   UNL     1      -9.255  16.880  68.095  1.00  0.00    -0.234 A  
HETATM   13 CL   UNL     1     -10.870  19.153  67.690  1.00  0.00    -0.509 Cl 
HETATM   14  C   UNL     1      -7.499  17.958  66.101  1.00  0.00    -0.315 A  
HETATM   15  C   UNL     1      -9.504  18.124  67.473  1.00  0.00    -0.262 A  
HETATM   16  C   UNL     1      -8.619  18.656  66.509  1.00  0.00    -0.307 A  
HETATM   17  C   UNL     1      -7.257  16.708  66.636  1.00  0.00    -0.276 A  
HETATM   18  C   UNL     1      -8.115  16.172  67.609  1.00  0.00    -0.147 A  
HETATM   19 CL   UNL     1      -7.671  14.568  68.139  1.00  0.00    -0.117 Cl 
ENDBRANCH  11  12
ENDBRANCH  10  11
BRANCH  10  20
HETATM   20  C   UNL     1     -11.966  13.869  69.691  1.00  0.00    -0.342 C  
BRANCH  20  21
HETATM   21  N   UNL     1     -12.810  14.193  70.834  1.00  0.00    -0.339 NA 
HETATM   22  C   UNL     1     -13.230  13.314  71.795  1.00  0.00    -0.405 A  
HETATM   23  N   UNL     1     -13.991  13.905  72.684  1.00  0.00    -0.713 NA 
HETATM   24  C   UNL     1     -13.407  15.395  71.087  1.00  0.00    -0.508 A  
HETATM   25  C   UNL     1     -14.106  15.203  72.257  1.00  0.00    -0.534 A  
ENDBRANCH  20  21
ENDBRANCH  10  20
ENDBRANCH   9  10
ENDBRANCH   8   9
ENDBRANCH   5   8
TORSDOF 7
ENDMDL
MODEL       25
REMARK 921   NORMALIZED FREE ENERGY PREDICTED BY IDOCK:   -6.54 KCAL/MOL
REMARK 922        TOTAL FREE ENERGY PREDICTED BY IDOCK:  -10.10 KCAL/MOL
REMARK 923 INTER-LIGAND FREE ENERGY PREDICTED BY IDOCK:   -9.04 KCAL/MOL
REMARK 924 INTRA-LIGAND FREE ENERGY PREDICTED BY IDOCK:   -1.06 KCAL/MOL
REMARK 927      BINDING AFFINITY PREDICTED BY RF-SCORE:    0.00 PKD
ROOT
HETATM    1 CL   UNL     1     -12.774  15.915  74.528  1.00  0.00    -0.556 Cl 
HETATM    2  C   UNL     1     -12.574  15.208  72.972  1.00  0.00    -0.438 A  
HETATM    3  C   UNL     1     -11.713  15.798  72.052  1.00  0.00    -0.572 A  
HETATM    4  C   UNL     1     -11.583  15.247  70.776  1.00  0.00    -0.371 A  
HETATM    5  C   UNL     1     -12.304  14.099  70.408  1.00  0.00    -0.428 A  
HETATM    6  C   UNL     1     -13.151  13.506  71.353  1.00  0.00    -0.385 A  
HETATM    7  C   UNL     1     -13.286  14.061  72.630  1.00  0.00    -0.643 A  
ENDROOT
BRANCH   5   8
HETATM    8  C   UNL     1     -12.227  13.565  68.994  1.00  0.00    -0.224 C  
BRANCH   8   9
HETATM    9  C   UNL     1     -11.897  12.073  68.925  1.00  0.00    -0.356 C  
BRANCH   9  10
HETATM   10  C   UNL     1     -10.397  11.748  68.755  1.00  0.00    -0.179 C  
BRANCH  10  11
HETATM   11  S   UNL     1      -9.666  12.777  67.413  1.00  0.00    -0.201 SA 
BRANCH  11  12
HETATM   12  C   UNL     1     -10.541  12.623  65.837  1.00  0.00    -0.273 A  
HETATM   13 CL   UNL     1      -9.874   9.999  65.058  1.00  0.00    -0.392 Cl 
HETATM   14  C   UNL     1     -12.130  12.765  63.454  1.00  0.00    -0.619 A  
HETATM   15  C   UNL     1     -10.667  11.526  64.955  1.00  0.00    -0.297 A  
HETATM   16  C   UNL     1     -11.472  11.600  63.797  1.00  0.00    -0.457 A  
HETATM   17  C   UNL     1     -11.979  13.880  64.254  1.00  0.00    -0.477 A  
HETATM   18  C   UNL     1     -11.198  13.819  65.420  1.00  0.00    -0.302 A  
HETATM   19 CL   UNL     1     -11.093  15.335  66.281  1.00  0.00    -0.311 Cl 
ENDBRANCH  11  12
ENDBRANCH  10  11
BRANCH  10  20
HETATM   20  C   UNL     1      -9.910  10.282  68.709  1.00  0.00    -0.180 C  
BRANCH  20  21
HETATM   21  N   UNL     1      -9.672   9.678  70.013  1.00  0.00    -0.228 NA 
HETATM   22  C   UNL     1      -8.448   9.365  70.539  1.00  0.00    -0.212 A  
HETATM   23  N   UNL     1      -8.563   8.817  71.725  1.00  0.00    -0.315 NA 
HETATM   24  C   UNL     1     -10.621   9.226  70.885  1.00  0.00    -0.296 A  
HETATM   25  C   UNL     1      -9.912   8.729  71.954  1.00  0.00    -0.331 A  
ENDBRANCH  20  21
ENDBRANCH  10  20
ENDBRANCH   9  10
ENDBRANCH   8   9
ENDBRANCH   5   8
TORSDOF 7
ENDMDL
MODEL       26
REMARK 921   NORMALIZED FREE ENERGY PREDICTED BY IDOCK:   -6.53 KCAL/MOL
REMARK 922        TOTAL FREE ENERGY PREDICTED BY IDOCK:  -10.08 KCAL/MOL
REMARK 923 INTER-LIGAND FREE ENERGY PREDICTED BY IDOCK:   -8.86 KCAL/MOL
REMARK 924 INTRA-LIGAND FREE ENERGY PREDICTED BY IDOCK:   -1.22 KCAL/MOL
REMARK 927      BINDING AFFINITY PREDICTED BY RF-SCORE:    0.00 PKD
ROOT
HETATM    1 CL   UNL     1     -12.661  16.233  74.008  1.00  0.00    -0.649 Cl 
HETATM    2  C   UNL     1     -12.481  15.354  72.539  1.00  0.00    -0.377 A  
HETATM    3  C   UNL     1     -13.069  14.100  72.411  1.00  0.00    -0.525 A  
HETATM    4  C   UNL     1     -12.888  13.370  71.234  1.00  0.00    -0.407 A  
HETATM    5  C   UNL     1     -12.127  13.889  70.173  1.00  0.00    -0.418 A  
HETATM    6  C   UNL     1     -11.559  15.162  70.312  1.00  0.00    -0.325 A  
HETATM    7  C   UNL     1     -11.735  15.890  71.493  1.00  0.00    -0.545 A  
ENDROOT
BRANCH   5   8
HETATM    8  C   UNL     1     -11.860  13.051  68.941  1.00  0.00    -0.358 C  
BRANCH   8   9
HETATM    9  C   UNL     1     -11.810  13.870  67.649  1.00  0.00    -0.422 C  
BRANCH   9  10
HETATM   10  C   UNL     1     -10.686  13.468  66.670  1.00  0.00    -0.282 C  
BRANCH  10  11
HETATM   11  S   UNL     1      -9.185  14.494  66.960  1.00  0.00    -0.251 SA 
BRANCH  11  12
HETATM   12  C   UNL     1      -9.542  16.264  67.087  1.00  0.00    -0.233 A  
HETATM   13 CL   UNL     1     -11.024  16.724  64.735  1.00  0.00    -0.220 Cl 
HETATM   14  C   UNL     1      -9.954  19.033  67.708  1.00  0.00    -0.426 A  
HETATM   15  C   UNL     1     -10.303  17.113  66.252  1.00  0.00    -0.313 A  
HETATM   16  C   UNL     1     -10.519  18.469  66.582  1.00  0.00    -0.436 A  
HETATM   17  C   UNL     1      -9.148  18.253  68.514  1.00  0.00    -0.328 A  
HETATM   18  C   UNL     1      -8.938  16.898  68.213  1.00  0.00    -0.235 A  
HETATM   19 CL   UNL     1      -7.861  16.085  69.322  1.00  0.00    -0.235 Cl 
ENDBRANCH  11  12
ENDBRANCH  10  11
BRANCH  10  20
HETATM   20  C   UNL     1     -10.986  13.270  65.167  1.00  0.00    -0.299 C  
BRANCH  20  21
HETATM   21  N   UNL     1     -10.391  12.077  64.578  1.00  0.00    -0.283 NA 
HETATM   22  C   UNL     1     -10.310  11.800  63.240  1.00  0.00    -0.402 A  
HETATM   23  N   UNL     1      -9.733  10.641  63.027  1.00  0.00    -0.332 NA 
HETATM   24  C   UNL     1      -9.910  10.992  65.253  1.00  0.00    -0.259 A  
HETATM   25  C   UNL     1      -9.476  10.129  64.273  1.00  0.00    -0.305 A  
ENDBRANCH  20  21
ENDBRANCH  10  20
ENDBRANCH   9  10
ENDBRANCH   8   9
ENDBRANCH   5   8
TORSDOF 7
ENDMDL
MODEL       27
REMARK 921   NORMALIZED FREE ENERGY PREDICTED BY IDOCK:   -6.52 KCAL/MOL
REMARK 922        TOTAL FREE ENERGY PREDICTED BY IDOCK:  -10.07 KCAL/MOL
REMARK 923 INTER-LIGAND FREE ENERGY PREDICTED BY IDOCK:   -8.92 KCAL/MOL
REMARK 924 INTRA-LIGAND FREE ENERGY PREDICTED BY IDOCK:   -1.16 KCAL/MOL
REMARK 927      BINDING AFFINITY PREDICTED BY RF-SCORE:    0.00 PKD
ROOT
HETATM    1 CL   UNL     1      -6.673  21.176  66.898  1.00  0.00    -0.386 Cl 
HETATM    2  C   UNL     1      -7.848  20.069  67.496  1.00  0.00    -0.301 A  
HETATM    3  C   UNL     1      -7.435  18.925  68.171  1.00  0.00    -0.297 A  
HETATM    4  C   UNL     1      -8.387  18.008  68.620  1.00  0.00    -0.282 A  
HETATM    5  C   UNL     1      -9.758  18.227  68.407  1.00  0.00    -0.373 A  
HETATM    6  C   UNL     1     -10.157  19.394  67.743  1.00  0.00    -0.508 A  
HETATM    7  C   UNL     1      -9.203  20.311  67.287  1.00  0.00    -0.523 A  
ENDROOT
BRANCH   5   8
HETATM    8  C   UNL     1     -10.774  17.182  68.814  1.00  0.00    -0.289 C  
BRANCH   8   9
HETATM    9  C   UNL     1     -10.175  16.044  69.644  1.00  0.00    -0.265 C  
BRANCH   9  10
HETATM   10  C   UNL     1     -10.532  14.625  69.150  1.00  0.00    -0.233 C  
BRANCH  10  11
HETATM   11  S   UNL     1      -9.633  14.245  67.588  1.00  0.00    -0.224 SA 
BRANCH  11  12
HETATM   12  C   UNL     1     -10.715  13.639  66.270  1.00  0.00    -0.285 A  
HETATM   13 CL   UNL     1     -10.730  10.865  66.763  1.00  0.00    -0.316 Cl 
HETATM   14  C   UNL     1     -12.528  13.112  64.112  1.00  0.00    -0.348 A  
HETATM   15  C   UNL     1     -11.184  12.336  65.988  1.00  0.00    -0.332 A  
HETATM   16  C   UNL     1     -12.096  12.093  64.937  1.00  0.00    -0.342 A  
HETATM   17  C   UNL     1     -12.040  14.389  64.313  1.00  0.00    -0.461 A  
HETATM   18  C   UNL     1     -11.149  14.653  65.364  1.00  0.00    -0.348 A  
HETATM   19 CL   UNL     1     -10.612  16.313  65.438  1.00  0.00    -0.402 Cl 
ENDBRANCH  11  12
ENDBRANCH  10  11
BRANCH  10  20
HETATM   20  C   UNL     1     -12.002  14.150  69.117  1.00  0.00    -0.349 C  
BRANCH  20  21
HETATM   21  N   UNL     1     -12.667  14.135  70.414  1.00  0.00    -0.324 NA 
HETATM   22  C   UNL     1     -13.275  15.204  71.015  1.00  0.00    -0.450 A  
HETATM   23  N   UNL     1     -13.768  14.878  72.186  1.00  0.00    -0.400 NA 
HETATM   24  C   UNL     1     -12.708  13.091  71.294  1.00  0.00    -0.293 A  
HETATM   25  C   UNL     1     -13.425  13.562  72.369  1.00  0.00    -0.584 A  
ENDBRANCH  20  21
ENDBRANCH  10  20
ENDBRANCH   9  10
ENDBRANCH   8   9
ENDBRANCH   5   8
TORSDOF 7
ENDMDL
MODEL       28
REMARK 921   NORMALIZED FREE ENERGY PREDICTED BY IDOCK:   -6.52 KCAL/MOL
REMARK 922        TOTAL FREE ENERGY PREDICTED BY IDOCK:  -10.07 KCAL/MOL
REMARK 923 INTER-LIGAND FREE ENERGY PREDICTED BY IDOCK:   -8.85 KCAL/MOL
REMARK 924 INTRA-LIGAND FREE ENERGY PREDICTED BY IDOCK:   -1.22 KCAL/MOL
REMARK 927      BINDING AFFINITY PREDICTED BY RF-SCORE:    0.00 PKD
ROOT
HETATM    1 CL   UNL     1     -14.001  15.755  72.495  1.00  0.00    -0.602 Cl 
HETATM    2  C   UNL     1     -13.371  14.286  71.858  1.00  0.00    -0.388 A  
HETATM    3  C   UNL     1     -12.533  14.320  70.747  1.00  0.00    -0.428 A  
HETATM    4  C   UNL     1     -12.055  13.125  70.206  1.00  0.00    -0.399 A  
HETATM    5  C   UNL     1     -12.402  11.887  70.772  1.00  0.00    -0.416 A  
HETATM    6  C   UNL     1     -13.230  11.872  71.902  1.00  0.00    -0.467 A  
HETATM    7  C   UNL     1     -13.713  13.069  72.441  1.00  0.00    -0.593 A  
ENDROOT
BRANCH   5   8
HETATM    8  C   UNL     1     -11.955  10.595  70.122  1.00  0.00    -0.417 C  
BRANCH   8   9
HETATM    9  C   UNL     1     -11.419  10.783  68.702  1.00  0.00    -0.365 C  
BRANCH   9  10
HETATM   10  C   UNL     1      -9.880  10.757  68.581  1.00  0.00    -0.184 C  
BRANCH  10  11
HETATM   11  S   UNL     1      -9.310  12.022  67.370  1.00  0.00    -0.183 SA 
BRANCH  11  12
HETATM   12  C   UNL     1     -10.355  12.122  65.895  1.00  0.00    -0.255 A  
HETATM   13 CL   UNL     1     -12.397  13.866  66.751  1.00  0.00    -0.431 Cl 
HETATM   14  C   UNL     1     -11.673  12.071  63.349  1.00  0.00    -0.519 A  
HETATM   15  C   UNL     1     -11.519  12.882  65.640  1.00  0.00    -0.332 A  
HETATM   16  C   UNL     1     -12.145  12.867  64.374  1.00  0.00    -0.474 A  
HETATM   17  C   UNL     1     -10.577  11.263  63.580  1.00  0.00    -0.436 A  
HETATM   18  C   UNL     1      -9.930  11.279  64.826  1.00  0.00    -0.277 A  
HETATM   19 CL   UNL     1      -8.590  10.164  64.942  1.00  0.00    -0.174 Cl 
ENDBRANCH  11  12
ENDBRANCH  10  11
BRANCH  10  20
HETATM   20  C   UNL     1      -9.125   9.416  68.436  1.00  0.00    -0.128 C  
BRANCH  20  21
HETATM   21  N   UNL     1      -9.975   8.265  68.163  1.00  0.00    -0.184 NA 
HETATM   22  C   UNL     1     -10.439   7.374  69.093  1.00  0.00    -0.213 A  
HETATM   23  N   UNL     1     -11.168   6.436  68.536  1.00  0.00    -0.305 NA 
HETATM   24  C   UNL     1     -10.368   7.817  66.934  1.00  0.00    -0.326 A  
HETATM   25  C   UNL     1     -11.134   6.704  67.190  1.00  0.00    -0.357 A  
ENDBRANCH  20  21
ENDBRANCH  10  20
ENDBRANCH   9  10
ENDBRANCH   8   9
ENDBRANCH   5   8
TORSDOF 7
ENDMDL
MODEL       29
REMARK 921   NORMALIZED FREE ENERGY PREDICTED BY IDOCK:   -6.51 KCAL/MOL
REMARK 922        TOTAL FREE ENERGY PREDICTED BY IDOCK:  -10.06 KCAL/MOL
REMARK 923 INTER-LIGAND FREE ENERGY PREDICTED BY IDOCK:   -8.93 KCAL/MOL
REMARK 924 INTRA-LIGAND FREE ENERGY PREDICTED BY IDOCK:   -1.13 KCAL/MOL
REMARK 927      BINDING AFFINITY PREDICTED BY RF-SCORE:    0.00 PKD
ROOT
HETATM    1 CL   UNL     1     -12.841  15.801  74.151  1.00  0.00    -0.620 Cl 
HETATM    2  C   UNL     1     -12.449  15.252  72.568  1.00  0.00    -0.363 A  
HETATM    3  C   UNL     1     -12.846  13.982  72.162  1.00  0.00    -0.410 A  
HETATM    4  C   UNL     1     -12.492  13.522  70.892  1.00  0.00    -0.448 A  
HETATM    5  C   UNL     1     -11.747  14.326  70.014  1.00  0.00    -0.364 A  
HETATM    6  C   UNL     1     -11.373  15.610  70.432  1.00  0.00    -0.373 A  
HETATM    7  C   UNL     1     -11.722  16.069  71.707  1.00  0.00    -0.593 A  
ENDROOT
BRANCH   5   8
HETATM    8  C   UNL     1     -11.289  13.783  68.677  1.00  0.00    -0.321 C  
BRANCH   8   9
HETATM    9  C   UNL     1     -12.026  14.399  67.487  1.00  0.00    -0.389 C  
BRANCH   9  10
HETATM   10  C   UNL     1     -11.159  15.309  66.590  1.00  0.00    -0.276 C  
BRANCH  10  11
HETATM   11  S   UNL     1     -10.635  14.405  65.073  1.00  0.00    -0.438 SA 
BRANCH  11  12
HETATM   12  C   UNL     1     -10.046  12.727  65.410  1.00  0.00    -0.259 A  
HETATM   13 CL   UNL     1      -8.017  13.196  67.308  1.00  0.00    -0.165 Cl 
HETATM   14  C   UNL     1      -9.474   9.933  65.712  1.00  0.00    -0.280 A  
HETATM   15  C   UNL     1      -9.070  12.257  66.319  1.00  0.00    -0.125 A  
HETATM   16  C   UNL     1      -8.815  10.877  66.476  1.00  0.00    -0.169 A  
HETATM   17  C   UNL     1     -10.386  10.356  64.766  1.00  0.00    -0.221 A  
HETATM   18  C   UNL     1     -10.667  11.723  64.609  1.00  0.00    -0.310 A  
HETATM   19 CL   UNL     1     -11.816  12.068  63.339  1.00  0.00    -0.554 Cl 
ENDBRANCH  11  12
ENDBRANCH  10  11
BRANCH  10  20
HETATM   20  C   UNL     1     -10.018  16.156  67.198  1.00  0.00    -0.251 C  
BRANCH  20  21
HETATM   21  N   UNL     1     -10.262  17.593  67.205  1.00  0.00    -0.331 NA 
HETATM   22  C   UNL     1     -10.517  18.368  66.107  1.00  0.00    -0.395 A  
HETATM   23  N   UNL     1     -10.677  19.627  66.436  1.00  0.00    -0.456 NA 
HETATM   24  C   UNL     1     -10.176  18.425  68.285  1.00  0.00    -0.384 A  
HETATM   25  C   UNL     1     -10.472  19.676  67.792  1.00  0.00    -0.439 A  
ENDBRANCH  20  21
ENDBRANCH  10  20
ENDBRANCH   9  10
ENDBRANCH   8   9
ENDBRANCH   5   8
TORSDOF 7
ENDMDL
MODEL       30
REMARK 921   NORMALIZED FREE ENERGY PREDICTED BY IDOCK:   -6.49 KCAL/MOL
REMARK 922        TOTAL FREE ENERGY PREDICTED BY IDOCK:  -10.02 KCAL/MOL
REMARK 923 INTER-LIGAND FREE ENERGY PREDICTED BY IDOCK:   -9.13 KCAL/MOL
REMARK 924 INTRA-LIGAND FREE ENERGY PREDICTED BY IDOCK:   -0.89 KCAL/MOL
REMARK 927      BINDING AFFINITY PREDICTED BY RF-SCORE:    0.00 PKD
ROOT
HETATM    1 CL   UNL     1     -12.563   9.117  72.280  1.00  0.00    -0.443 Cl 
HETATM    2  C   UNL     1     -11.771   9.970  71.012  1.00  0.00    -0.392 A  
HETATM    3  C   UNL     1     -12.280  11.191  70.581  1.00  0.00    -0.492 A  
HETATM    4  C   UNL     1     -11.660  11.863  69.525  1.00  0.00    -0.394 A  
HETATM    5  C   UNL     1     -10.524  11.327  68.896  1.00  0.00    -0.232 A  
HETATM    6  C   UNL     1     -10.012  10.107  69.357  1.00  0.00    -0.247 A  
HETATM    7  C   UNL     1     -10.637   9.431  70.411  1.00  0.00    -0.316 A  
ENDROOT
BRANCH   5   8
HETATM    8  C   UNL     1      -9.916  12.017  67.693  1.00  0.00    -0.196 C  
BRANCH   8   9
HETATM    9  C   UNL     1      -9.929  13.543  67.798  1.00  0.00    -0.232 C  
BRANCH   9  10
HETATM   10  C   UNL     1      -9.412  14.283  66.545  1.00  0.00    -0.287 C  
BRANCH  10  11
HETATM   11  S   UNL     1      -8.174  15.561  67.020  1.00  0.00    -0.257 SA 
BRANCH  11  12
HETATM   12  C   UNL     1      -8.883  17.218  67.182  1.00  0.00    -0.226 A  
HETATM   13 CL   UNL     1     -11.369  16.668  68.389  1.00  0.00    -0.248 Cl 
HETATM   14  C   UNL     1      -9.597  19.991  67.327  1.00  0.00    -0.527 A  
HETATM   15  C   UNL     1     -10.097  17.649  67.765  1.00  0.00    -0.338 A  
HETATM   16  C   UNL     1     -10.426  19.019  67.852  1.00  0.00    -0.474 A  
HETATM   17  C   UNL     1      -8.434  19.607  66.689  1.00  0.00    -0.356 A  
HETATM   18  C   UNL     1      -8.081  18.250  66.610  1.00  0.00    -0.260 A  
HETATM   19 CL   UNL     1      -6.599  17.955  65.735  1.00  0.00    -0.291 Cl 
ENDBRANCH  11  12
ENDBRANCH  10  11
BRANCH  10  20
HETATM   20  C   UNL     1     -10.398  14.786  65.467  1.00  0.00    -0.364 C  
BRANCH  20  21
HETATM   21  N   UNL     1     -11.253  13.754  64.893  1.00  0.00    -0.334 NA 
HETATM   22  C   UNL     1     -12.533  13.467  65.282  1.00  0.00    -0.483 A  
HETATM   23  N   UNL     1     -13.033  12.474  64.586  1.00  0.00    -0.844 NA 
HETATM   24  C   UNL     1     -10.894  12.835  63.949  1.00  0.00    -0.411 A  
HETATM   25  C   UNL     1     -12.023  12.074  63.748  1.00  0.00    -0.490 A  
ENDBRANCH  20  21
ENDBRANCH  10  20
ENDBRANCH   9  10
ENDBRANCH   8   9
ENDBRANCH   5   8
TORSDOF 7
ENDMDL
MODEL       31
REMARK 921   NORMALIZED FREE ENERGY PREDICTED BY IDOCK:   -6.48 KCAL/MOL
REMARK 922        TOTAL FREE ENERGY PREDICTED BY IDOCK:  -10.01 KCAL/MOL
REMARK 923 INTER-LIGAND FREE ENERGY PREDICTED BY IDOCK:   -9.23 KCAL/MOL
REMARK 924 INTRA-LIGAND FREE ENERGY PREDICTED BY IDOCK:   -0.78 KCAL/MOL
REMARK 927      BINDING AFFINITY PREDICTED BY RF-SCORE:    0.00 PKD
ROOT
HETATM    1 CL   UNL     1      -9.819   7.436  73.785  1.00  0.00    -0.347 Cl 
HETATM    2  C   UNL     1     -10.217   8.282  72.341  1.00  0.00    -0.327 A  
HETATM    3  C   UNL     1      -9.201   8.720  71.496  1.00  0.00    -0.332 A  
HETATM    4  C   UNL     1      -9.523   9.442  70.346  1.00  0.00    -0.319 A  
HETATM    5  C   UNL     1     -10.860   9.727  70.023  1.00  0.00    -0.319 A  
HETATM    6  C   UNL     1     -11.871   9.261  70.873  1.00  0.00    -0.346 A  
HETATM    7  C   UNL     1     -11.548   8.542  72.029  1.00  0.00    -0.432 A  
ENDROOT
BRANCH   5   8
HETATM    8  C   UNL     1     -11.192  10.590  68.824  1.00  0.00    -0.317 C  
BRANCH   8   9
HETATM    9  C   UNL     1     -10.078  11.572  68.456  1.00  0.00    -0.211 C  
BRANCH   9  10
HETATM   10  C   UNL     1     -10.492  13.059  68.479  1.00  0.00    -0.249 C  
BRANCH  10  11
HETATM   11  S   UNL     1     -12.161  13.250  69.233  1.00  0.00    -0.037 SA 
BRANCH  11  12
HETATM   12  C   UNL     1     -12.171  14.332  70.684  1.00  0.00    -0.357 A  
HETATM   13 CL   UNL     1     -10.680  16.540  69.767  1.00  0.00    -0.326 Cl 
HETATM   14  C   UNL     1     -12.495  15.764  73.147  1.00  0.00    -0.599 A  
HETATM   15  C   UNL     1     -11.645  15.631  70.869  1.00  0.00    -0.389 A  
HETATM   16  C   UNL     1     -11.832  16.336  72.078  1.00  0.00    -0.568 A  
HETATM   17  C   UNL     1     -12.965  14.471  73.029  1.00  0.00    -0.596 A  
HETATM   18  C   UNL     1     -12.805  13.762  71.828  1.00  0.00    -0.326 A  
HETATM   19 CL   UNL     1     -13.428  12.131  71.880  1.00  0.00    -0.428 Cl 
ENDBRANCH  11  12
ENDBRANCH  10  11
BRANCH  10  20
HETATM   20  C   UNL     1     -10.303  13.947  67.228  1.00  0.00    -0.257 C  
BRANCH  20  21
HETATM   21  N   UNL     1     -11.023  13.495  66.044  1.00  0.00    -0.276 NA 
HETATM   22  C   UNL     1     -12.336  13.111  66.003  1.00  0.00    -0.359 A  
HETATM   23  N   UNL     1     -12.688  12.740  64.795  1.00  0.00    -0.706 NA 
HETATM   24  C   UNL     1     -10.492  13.276  64.805  1.00  0.00    -0.384 A  
HETATM   25  C   UNL     1     -11.549  12.843  64.038  1.00  0.00    -0.426 A  
ENDBRANCH  20  21
ENDBRANCH  10  20
ENDBRANCH   9  10
ENDBRANCH   8   9
ENDBRANCH   5   8
TORSDOF 7
ENDMDL
MODEL       32
REMARK 921   NORMALIZED FREE ENERGY PREDICTED BY IDOCK:   -6.45 KCAL/MOL
REMARK 922        TOTAL FREE ENERGY PREDICTED BY IDOCK:   -9.98 KCAL/MOL
REMARK 923 INTER-LIGAND FREE ENERGY PREDICTED BY IDOCK:   -8.78 KCAL/MOL
REMARK 924 INTRA-LIGAND FREE ENERGY PREDICTED BY IDOCK:   -1.19 KCAL/MOL
REMARK 927      BINDING AFFINITY PREDICTED BY RF-SCORE:    0.00 PKD
ROOT
HETATM    1 CL   UNL     1      -6.429  20.728  64.343  1.00  0.00    -0.345 Cl 
HETATM    2  C   UNL     1      -7.036  19.697  65.580  1.00  0.00    -0.291 A  
HETATM    3  C   UNL     1      -8.033  20.159  66.434  1.00  0.00    -0.298 A  
HETATM    4  C   UNL     1      -8.496  19.336  67.463  1.00  0.00    -0.324 A  
HETATM    5  C   UNL     1      -7.975  18.044  67.643  1.00  0.00    -0.221 A  
HETATM    6  C   UNL     1      -6.987  17.588  66.762  1.00  0.00    -0.239 A  
HETATM    7  C   UNL     1      -6.518  18.414  65.735  1.00  0.00    -0.305 A  
ENDROOT
BRANCH   5   8
HETATM    8  C   UNL     1      -8.417  17.197  68.818  1.00  0.00    -0.225 C  
BRANCH   8   9
HETATM    9  C   UNL     1      -9.936  17.156  68.998  1.00  0.00    -0.273 C  
BRANCH   9  10
HETATM   10  C   UNL     1     -10.505  15.773  69.382  1.00  0.00    -0.257 C  
BRANCH  10  11
HETATM   11  S   UNL     1      -9.760  14.457  68.330  1.00  0.00    -0.229 SA 
BRANCH  11  12
HETATM   12  C   UNL     1     -10.694  14.141  66.812  1.00  0.00    -0.286 A  
HETATM   13 CL   UNL     1     -10.522  16.628  65.499  1.00  0.00    -0.339 Cl 
HETATM   14  C   UNL     1     -12.160  13.208  64.532  1.00  0.00    -0.462 A  
HETATM   15  C   UNL     1     -10.939  14.966  65.691  1.00  0.00    -0.344 A  
HETATM   16  C   UNL     1     -11.642  14.487  64.564  1.00  0.00    -0.385 A  
HETATM   17  C   UNL     1     -12.001  12.393  65.635  1.00  0.00    -0.449 A  
HETATM   18  C   UNL     1     -11.288  12.845  66.757  1.00  0.00    -0.322 A  
HETATM   19 CL   UNL     1     -11.223  11.691  68.067  1.00  0.00    -0.298 Cl 
ENDBRANCH  11  12
ENDBRANCH  10  11
BRANCH  10  20
HETATM   20  C   UNL     1     -12.025  15.577  69.587  1.00  0.00    -0.359 C  
BRANCH  20  21
HETATM   21  N   UNL     1     -12.479  15.726  70.963  1.00  0.00    -0.442 NA 
HETATM   22  C   UNL     1     -11.728  16.189  72.009  1.00  0.00    -0.485 A  
HETATM   23  N   UNL     1     -12.414  16.192  73.127  1.00  0.00    -0.496 NA 
HETATM   24  C   UNL     1     -13.688  15.337  71.466  1.00  0.00    -0.520 A  
HETATM   25  C   UNL     1     -13.638  15.667  72.801  1.00  0.00    -0.593 A  
ENDBRANCH  20  21
ENDBRANCH  10  20
ENDBRANCH   9  10
ENDBRANCH   8   9
ENDBRANCH   5   8
TORSDOF 7
ENDMDL
MODEL       33
REMARK 921   NORMALIZED FREE ENERGY PREDICTED BY IDOCK:   -6.44 KCAL/MOL
REMARK 922        TOTAL FREE ENERGY PREDICTED BY IDOCK:   -9.96 KCAL/MOL
REMARK 923 INTER-LIGAND FREE ENERGY PREDICTED BY IDOCK:   -8.98 KCAL/MOL
REMARK 924 INTRA-LIGAND FREE ENERGY PREDICTED BY IDOCK:   -0.97 KCAL/MOL
REMARK 927      BINDING AFFINITY PREDICTED BY RF-SCORE:    0.00 PKD
ROOT
HETATM    1 CL   UNL     1     -12.961   9.351  72.447  1.00  0.00    -0.457 Cl 
HETATM    2  C   UNL     1     -12.133  10.113  71.144  1.00  0.00    -0.388 A  
HETATM    3  C   UNL     1     -11.084   9.451  70.514  1.00  0.00    -0.330 A  
HETATM    4  C   UNL     1     -10.387  10.086  69.484  1.00  0.00    -0.256 A  
HETATM    5  C   UNL     1     -10.734  11.383  69.070  1.00  0.00    -0.245 A  
HETATM    6  C   UNL     1     -11.806  12.026  69.702  1.00  0.00    -0.401 A  
HETATM    7  C   UNL     1     -12.501  11.393  70.737  1.00  0.00    -0.460 A  
ENDROOT
BRANCH   5   8
HETATM    8  C   UNL     1      -9.912  12.097  68.018  1.00  0.00    -0.203 C  
BRANCH   8   9
HETATM    9  C   UNL     1     -10.189  13.600  67.949  1.00  0.00    -0.250 C  
BRANCH   9  10
HETATM   10  C   UNL     1      -9.344  14.367  66.908  1.00  0.00    -0.256 C  
BRANCH  10  11
HETATM   11  S   UNL     1      -8.315  15.650  67.737  1.00  0.00    -0.152 SA 
BRANCH  11  12
HETATM   12  C   UNL     1      -8.812  17.341  67.325  1.00  0.00    -0.222 A  
HETATM   13 CL   UNL     1      -6.714  18.163  65.633  1.00  0.00    -0.310 Cl 
HETATM   14  C   UNL     1      -9.992  19.913  66.862  1.00  0.00    -0.563 A  
HETATM   15  C   UNL     1      -8.219  18.292  66.463  1.00  0.00    -0.268 A  
HETATM   16  C   UNL     1      -8.822  19.547  66.225  1.00  0.00    -0.391 A  
HETATM   17  C   UNL     1     -10.566  19.038  67.762  1.00  0.00    -0.488 A  
HETATM   18  C   UNL     1      -9.991  17.779  67.997  1.00  0.00    -0.333 A  
HETATM   19 CL   UNL     1     -10.835  16.827  69.194  1.00  0.00    -0.316 Cl 
ENDBRANCH  11  12
ENDBRANCH  10  11
BRANCH  10  20
HETATM   20  C   UNL     1      -9.985  14.878  65.598  1.00  0.00    -0.358 C  
BRANCH  20  21
HETATM   21  N   UNL     1     -10.862  13.922  64.935  1.00  0.00    -0.381 NA 
HETATM   22  C   UNL     1     -12.228  13.984  64.893  1.00  0.00    -0.437 A  
HETATM   23  N   UNL     1     -12.734  12.968  64.234  1.00  0.00    -0.687 NA 
HETATM   24  C   UNL     1     -10.485  12.754  64.336  1.00  0.00    -0.386 A  
HETATM   25  C   UNL     1     -11.657  12.196  63.878  1.00  0.00    -0.448 A  
ENDBRANCH  20  21
ENDBRANCH  10  20
ENDBRANCH   9  10
ENDBRANCH   8   9
ENDBRANCH   5   8
TORSDOF 7
ENDMDL
MODEL       34
REMARK 921   NORMALIZED FREE ENERGY PREDICTED BY IDOCK:   -6.44 KCAL/MOL
REMARK 922        TOTAL FREE ENERGY PREDICTED BY IDOCK:   -9.96 KCAL/MOL
REMARK 923 INTER-LIGAND FREE ENERGY PREDICTED BY IDOCK:   -8.97 KCAL/MOL
REMARK 924 INTRA-LIGAND FREE ENERGY PREDICTED BY IDOCK:   -0.99 KCAL/MOL
REMARK 927      BINDING AFFINITY PREDICTED BY RF-SCORE:    0.00 PKD
ROOT
HETATM    1 CL   UNL     1      -9.611  20.947  67.411  1.00  0.00    -0.511 Cl 
HETATM    2  C   UNL     1      -9.713  19.234  67.277  1.00  0.00    -0.328 A  
HETATM    3  C   UNL     1      -9.158  18.432  68.269  1.00  0.00    -0.330 A  
HETATM    4  C   UNL     1      -9.205  17.042  68.139  1.00  0.00    -0.244 A  
HETATM    5  C   UNL     1      -9.812  16.442  67.023  1.00  0.00    -0.253 A  
HETATM    6  C   UNL     1     -10.384  17.265  66.045  1.00  0.00    -0.312 A  
HETATM    7  C   UNL     1     -10.332  18.657  66.172  1.00  0.00    -0.481 A  
ENDROOT
BRANCH   5   8
HETATM    8  C   UNL     1      -9.775  14.939  66.847  1.00  0.00    -0.248 C  
BRANCH   8   9
HETATM    9  C   UNL     1      -9.627  14.176  68.165  1.00  0.00    -0.218 C  
BRANCH   9  10
HETATM   10  C   UNL     1     -10.956  13.696  68.788  1.00  0.00    -0.264 C  
BRANCH  10  11
HETATM   11  S   UNL     1     -11.445  12.068  68.079  1.00  0.00    -0.344 SA 
BRANCH  11  12
HETATM   12  C   UNL     1     -11.309  12.003  66.276  1.00  0.00    -0.357 A  
HETATM   13 CL   UNL     1     -12.978  14.134  65.494  1.00  0.00    -0.442 Cl 
HETATM   14  C   UNL     1     -10.758  11.611  63.489  1.00  0.00    -0.495 A  
HETATM   15  C   UNL     1     -11.859  12.841  65.279  1.00  0.00    -0.403 A  
HETATM   16  C   UNL     1     -11.560  12.652  63.912  1.00  0.00    -0.521 A  
HETATM   17  C   UNL     1     -10.256  10.730  64.427  1.00  0.00    -0.432 A  
HETATM   18  C   UNL     1     -10.526  10.913  65.792  1.00  0.00    -0.210 A  
HETATM   19 CL   UNL     1      -9.840   9.680  66.821  1.00  0.00    -0.253 Cl 
ENDBRANCH  11  12
ENDBRANCH  10  11
BRANCH  10  20
HETATM   20  C   UNL     1     -12.153  14.663  68.930  1.00  0.00    -0.216 C  
BRANCH  20  21
HETATM   21  N   UNL     1     -12.370  15.171  70.279  1.00  0.00    -0.341 NA 
HETATM   22  C   UNL     1     -11.522  15.992  70.972  1.00  0.00    -0.417 A  
HETATM   23  N   UNL     1     -11.988  16.261  72.168  1.00  0.00    -0.522 NA 
HETATM   24  C   UNL     1     -13.394  14.836  71.118  1.00  0.00    -0.400 A  
HETATM   25  C   UNL     1     -13.156  15.550  72.270  1.00  0.00    -0.430 A  
ENDBRANCH  20  21
ENDBRANCH  10  20
ENDBRANCH   9  10
ENDBRANCH   8   9
ENDBRANCH   5   8
TORSDOF 7
ENDMDL
MODEL       35
REMARK 921   NORMALIZED FREE ENERGY PREDICTED BY IDOCK:   -6.35 KCAL/MOL
REMARK 922        TOTAL FREE ENERGY PREDICTED BY IDOCK:   -9.82 KCAL/MOL
REMARK 923 INTER-LIGAND FREE ENERGY PREDICTED BY IDOCK:   -8.79 KCAL/MOL
REMARK 924 INTRA-LIGAND FREE ENERGY PREDICTED BY IDOCK:   -1.04 KCAL/MOL
REMARK 927      BINDING AFFINITY PREDICTED BY RF-SCORE:    0.00 PKD
ROOT
HETATM    1 CL   UNL     1     -14.114  15.680  72.505  1.00  0.00    -0.628 Cl 
HETATM    2  C   UNL     1     -13.358  14.361  71.699  1.00  0.00    -0.363 A  
HETATM    3  C   UNL     1     -12.587  14.596  70.565  1.00  0.00    -0.409 A  
HETATM    4  C   UNL     1     -12.008  13.521  69.889  1.00  0.00    -0.416 A  
HETATM    5  C   UNL     1     -12.186  12.203  70.342  1.00  0.00    -0.378 A  
HETATM    6  C   UNL     1     -12.948  11.986  71.497  1.00  0.00    -0.407 A  
HETATM    7  C   UNL     1     -13.534  13.063  72.172  1.00  0.00    -0.638 A  
ENDROOT
BRANCH   5   8
HETATM    8  C   UNL     1     -11.632  11.038  69.549  1.00  0.00    -0.384 C  
BRANCH   8   9
HETATM    9  C   UNL     1     -10.340  11.373  68.801  1.00  0.00    -0.222 C  
BRANCH   9  10
HETATM   10  C   UNL     1     -10.179  10.666  67.438  1.00  0.00    -0.204 C  
BRANCH  10  11
HETATM   11  S   UNL     1      -9.177   9.133  67.624  1.00  0.00    -0.128 SA 
BRANCH  11  12
HETATM   12  C   UNL     1      -9.661   8.131  69.052  1.00  0.00    -0.156 A  
HETATM   13 CL   UNL     1      -8.100   9.261  71.107  1.00  0.00    -0.130 Cl 
HETATM   14  C   UNL     1     -10.754   6.386  71.047  1.00  0.00    -0.301 A  
HETATM   15  C   UNL     1      -9.284   8.220  70.411  1.00  0.00    -0.151 A  
HETATM   16  C   UNL     1      -9.848   7.371  71.388  1.00  0.00    -0.194 A  
HETATM   17  C   UNL     1     -11.096   6.222  69.719  1.00  0.00    -0.473 A  
HETATM   18  C   UNL     1     -10.561   7.070  68.736  1.00  0.00    -0.212 A  
HETATM   19 CL   UNL     1     -11.079   6.687  67.113  1.00  0.00    -0.470 Cl 
ENDBRANCH  11  12
ENDBRANCH  10  11
BRANCH  10  20
HETATM   20  C   UNL     1      -9.799  11.472  66.174  1.00  0.00    -0.221 C  
BRANCH  20  21
HETATM   21  N   UNL     1     -10.919  11.801  65.301  1.00  0.00    -0.303 NA 
HETATM   22  C   UNL     1     -12.128  12.302  65.703  1.00  0.00    -0.234 A  
HETATM   23  N   UNL     1     -12.935  12.478  64.684  1.00  0.00    -0.844 NA 
HETATM   24  C   UNL     1     -10.995  11.571  63.957  1.00  0.00    -0.383 A  
HETATM   25  C   UNL     1     -12.239  12.030  63.589  1.00  0.00    -0.538 A  
ENDBRANCH  20  21
ENDBRANCH  10  20
ENDBRANCH   9  10
ENDBRANCH   8   9
ENDBRANCH   5   8
TORSDOF 7
ENDMDL
MODEL       36
REMARK 921   NORMALIZED FREE ENERGY PREDICTED BY IDOCK:   -6.33 KCAL/MOL
REMARK 922        TOTAL FREE ENERGY PREDICTED BY IDOCK:   -9.80 KCAL/MOL
REMARK 923 INTER-LIGAND FREE ENERGY PREDICTED BY IDOCK:   -8.64 KCAL/MOL
REMARK 924 INTRA-LIGAND FREE ENERGY PREDICTED BY IDOCK:   -1.16 KCAL/MOL
REMARK 927      BINDING AFFINITY PREDICTED BY RF-SCORE:    0.00 PKD
ROOT
HETATM    1 CL   UNL     1     -13.986  15.758  72.765  1.00  0.00    -0.634 Cl 
HETATM    2  C   UNL     1     -13.369  14.385  71.933  1.00  0.00    -0.374 A  
HETATM    3  C   UNL     1     -13.625  13.109  72.425  1.00  0.00    -0.667 A  
HETATM    4  C   UNL     1     -13.090  11.997  71.771  1.00  0.00    -0.460 A  
HETATM    5  C   UNL     1     -12.301  12.147  70.619  1.00  0.00    -0.385 A  
HETATM    6  C   UNL     1     -12.070  13.438  70.126  1.00  0.00    -0.415 A  
HETATM    7  C   UNL     1     -12.601  14.553  70.784  1.00  0.00    -0.418 A  
ENDROOT
BRANCH   5   8
HETATM    8  C   UNL     1     -11.648  10.943  69.974  1.00  0.00    -0.424 C  
BRANCH   8   9
HETATM    9  C   UNL     1     -11.315  11.152  68.496  1.00  0.00    -0.348 C  
BRANCH   9  10
HETATM   10  C   UNL     1      -9.864  10.800  68.103  1.00  0.00    -0.158 C  
BRANCH  10  11
HETATM   11  S   UNL     1      -9.216  12.018  66.883  1.00  0.00    -0.201 SA 
BRANCH  11  12
HETATM   12  C   UNL     1     -10.465  12.579  65.699  1.00  0.00    -0.273 A  
HETATM   13 CL   UNL     1     -11.498  14.862  66.986  1.00  0.00    -0.353 Cl 
HETATM   14  C   UNL     1     -12.261  13.167  63.543  1.00  0.00    -0.552 A  
HETATM   15  C   UNL     1     -11.308  13.713  65.716  1.00  0.00    -0.306 A  
HETATM   16  C   UNL     1     -12.171  14.005  64.637  1.00  0.00    -0.460 A  
HETATM   17  C   UNL     1     -11.504  12.013  63.519  1.00  0.00    -0.536 A  
HETATM   18  C   UNL     1     -10.626  11.716  64.574  1.00  0.00    -0.318 A  
HETATM   19 CL   UNL     1      -9.782  10.198  64.387  1.00  0.00    -0.374 Cl 
ENDBRANCH  11  12
ENDBRANCH  10  11
BRANCH  10  20
HETATM   20  C   UNL     1      -9.475   9.346  67.751  1.00  0.00    -0.132 C  
BRANCH  20  21
HETATM   21  N   UNL     1      -9.547   8.409  68.864  1.00  0.00    -0.151 NA 
HETATM   22  C   UNL     1     -10.459   7.398  69.002  1.00  0.00    -0.210 A  
HETATM   23  N   UNL     1     -10.275   6.738  70.121  1.00  0.00    -0.192 NA 
HETATM   24  C   UNL     1      -8.793   8.441  70.003  1.00  0.00    -0.137 A  
HETATM   25  C   UNL     1      -9.237   7.376  70.752  1.00  0.00    -0.159 A  
ENDBRANCH  20  21
ENDBRANCH  10  20
ENDBRANCH   9  10
ENDBRANCH   8   9
ENDBRANCH   5   8
TORSDOF 7
ENDMDL
MODEL       37
REMARK 921   NORMALIZED FREE ENERGY PREDICTED BY IDOCK:   -6.31 KCAL/MOL
REMARK 922        TOTAL FREE ENERGY PREDICTED BY IDOCK:   -9.77 KCAL/MOL
REMARK 923 INTER-LIGAND FREE ENERGY PREDICTED BY IDOCK:   -9.12 KCAL/MOL
REMARK 924 INTRA-LIGAND FREE ENERGY PREDICTED BY IDOCK:   -0.65 KCAL/MOL
REMARK 927      BINDING AFFINITY PREDICTED BY RF-SCORE:    0.00 PKD
ROOT
HETATM    1 CL   UNL     1     -10.534   6.658  73.696  1.00  0.00    -0.329 Cl 
HETATM    2  C   UNL     1     -10.914   7.979  72.660  1.00  0.00    -0.382 A  
HETATM    3  C   UNL     1     -12.206   8.494  72.647  1.00  0.00    -0.297 A  
HETATM    4  C   UNL     1     -12.524   9.539  71.776  1.00  0.00    -0.484 A  
HETATM    5  C   UNL     1     -11.554  10.083  70.918  1.00  0.00    -0.463 A  
HETATM    6  C   UNL     1     -10.253   9.567  70.960  1.00  0.00    -0.332 A  
HETATM    7  C   UNL     1      -9.936   8.516  71.828  1.00  0.00    -0.345 A  
ENDROOT
BRANCH   5   8
HETATM    8  C   UNL     1     -11.932  11.151  69.914  1.00  0.00    -0.439 C  
BRANCH   8   9
HETATM    9  C   UNL     1     -11.971  12.559  70.510  1.00  0.00    -0.277 C  
BRANCH   9  10
HETATM   10  C   UNL     1     -11.995  13.702  69.472  1.00  0.00    -0.341 C  
BRANCH  10  11
HETATM   11  S   UNL     1     -10.843  13.332  68.084  1.00  0.00    -0.261 SA 
BRANCH  11  12
HETATM   12  C   UNL     1     -10.941  14.534  66.734  1.00  0.00    -0.316 A  
HETATM   13 CL   UNL     1      -9.650  16.772  67.857  1.00  0.00    -0.233 Cl 
HETATM   14  C   UNL     1     -11.232  16.091  64.344  1.00  0.00    -0.218 A  
HETATM   15  C   UNL     1     -10.427  15.847  66.629  1.00  0.00    -0.306 A  
HETATM   16  C   UNL     1     -10.556  16.594  65.438  1.00  0.00    -0.254 A  
HETATM   17  C   UNL     1     -11.807  14.838  64.430  1.00  0.00    -0.393 A  
HETATM   18  C   UNL     1     -11.672  14.072  65.599  1.00  0.00    -0.354 A  
HETATM   19 CL   UNL     1     -12.497  12.534  65.537  1.00  0.00    -0.389 Cl 
ENDBRANCH  11  12
ENDBRANCH  10  11
BRANCH  10  20
HETATM   20  C   UNL     1     -11.920  15.178  69.926  1.00  0.00    -0.337 C  
BRANCH  20  21
HETATM   21  N   UNL     1     -12.500  15.443  71.236  1.00  0.00    -0.361 NA 
HETATM   22  C   UNL     1     -11.804  15.749  72.373  1.00  0.00    -0.501 A  
HETATM   23  N   UNL     1     -12.608  15.917  73.396  1.00  0.00    -0.492 NA 
HETATM   24  C   UNL     1     -13.818  15.333  71.578  1.00  0.00    -0.525 A  
HETATM   25  C   UNL     1     -13.866  15.664  72.912  1.00  0.00    -0.491 A  
ENDBRANCH  20  21
ENDBRANCH  10  20
ENDBRANCH   9  10
ENDBRANCH   8   9
ENDBRANCH   5   8
TORSDOF 7
ENDMDL
MODEL       38
REMARK 921   NORMALIZED FREE ENERGY PREDICTED BY IDOCK:   -6.30 KCAL/MOL
REMARK 922        TOTAL FREE ENERGY PREDICTED BY IDOCK:   -9.75 KCAL/MOL
REMARK 923 INTER-LIGAND FREE ENERGY PREDICTED BY IDOCK:   -8.87 KCAL/MOL
REMARK 924 INTRA-LIGAND FREE ENERGY PREDICTED BY IDOCK:   -0.88 KCAL/MOL
REMARK 927      BINDING AFFINITY PREDICTED BY RF-SCORE:    0.00 PKD
ROOT
HETATM    1 CL   UNL     1     -12.680  15.428  74.540  1.00  0.00    -0.442 Cl 
HETATM    2  C   UNL     1     -12.421  15.141  72.863  1.00  0.00    -0.405 A  
HETATM    3  C   UNL     1     -12.824  13.933  72.301  1.00  0.00    -0.385 A  
HETATM    4  C   UNL     1     -12.576  13.685  70.949  1.00  0.00    -0.421 A  
HETATM    5  C   UNL     1     -11.931  14.640  70.146  1.00  0.00    -0.372 A  
HETATM    6  C   UNL     1     -11.551  15.858  70.724  1.00  0.00    -0.441 A  
HETATM    7  C   UNL     1     -11.794  16.105  72.079  1.00  0.00    -0.615 A  
ENDROOT
BRANCH   5   8
HETATM    8  C   UNL     1     -11.585  14.323  68.707  1.00  0.00    -0.357 C  
BRANCH   8   9
HETATM    9  C   UNL     1     -11.669  15.537  67.780  1.00  0.00    -0.098 C  
BRANCH   9  10
HETATM   10  C   UNL     1     -10.355  15.886  67.048  1.00  0.00    -0.297 C  
BRANCH  10  11
HETATM   11  S   UNL     1      -9.542  14.355  66.425  1.00  0.00    -0.292 SA 
BRANCH  11  12
HETATM   12  C   UNL     1     -10.550  13.446  65.228  1.00  0.00    -0.325 A  
HETATM   13 CL   UNL     1     -12.307  15.450  64.313  1.00  0.00    -0.256 Cl 
HETATM   14  C   UNL     1     -11.844  11.678  63.378  1.00  0.00    -0.317 A  
HETATM   15  C   UNL     1     -11.583  13.887  64.369  1.00  0.00    -0.382 A  
HETATM   16  C   UNL     1     -12.196  13.012  63.446  1.00  0.00    -0.552 A  
HETATM   17  C   UNL     1     -10.886  11.194  64.247  1.00  0.00    -0.354 A  
HETATM   18  C   UNL     1     -10.252  12.053  65.158  1.00  0.00    -0.276 A  
HETATM   19 CL   UNL     1      -9.098  11.254  66.199  1.00  0.00    -0.208 Cl 
ENDBRANCH  11  12
ENDBRANCH  10  11
BRANCH  10  20
HETATM   20  C   UNL     1      -9.348  16.880  67.670  1.00  0.00    -0.233 C  
BRANCH  20  21
HETATM   21  N   UNL     1      -9.681  18.286  67.477  1.00  0.00    -0.293 NA 
HETATM   22  C   UNL     1      -9.819  19.219  68.469  1.00  0.00    -0.424 A  
HETATM   23  N   UNL     1     -10.139  20.393  67.979  1.00  0.00    -0.314 NA 
HETATM   24  C   UNL     1     -10.013  18.887  66.297  1.00  0.00    -0.388 A  
HETATM   25  C   UNL     1     -10.259  20.201  66.626  1.00  0.00    -0.427 A  
ENDBRANCH  20  21
ENDBRANCH  10  20
ENDBRANCH   9  10
ENDBRANCH   8   9
ENDBRANCH   5   8
TORSDOF 7
ENDMDL
MODEL       39
REMARK 921   NORMALIZED FREE ENERGY PREDICTED BY IDOCK:   -6.28 KCAL/MOL
REMARK 922        TOTAL FREE ENERGY PREDICTED BY IDOCK:   -9.72 KCAL/MOL
REMARK 923 INTER-LIGAND FREE ENERGY PREDICTED BY IDOCK:   -9.04 KCAL/MOL
REMARK 924 INTRA-LIGAND FREE ENERGY PREDICTED BY IDOCK:   -0.68 KCAL/MOL
REMARK 927      BINDING AFFINITY PREDICTED BY RF-SCORE:    0.00 PKD
ROOT
HETATM    1 CL   UNL     1     -13.245  15.602  73.355  1.00  0.00    -0.636 Cl 
HETATM    2  C   UNL     1     -12.737  15.045  71.809  1.00  0.00    -0.339 A  
HETATM    3  C   UNL     1     -12.310  15.962  70.852  1.00  0.00    -0.373 A  
HETATM    4  C   UNL     1     -11.938  15.512  69.584  1.00  0.00    -0.380 A  
HETATM    5  C   UNL     1     -11.980  14.146  69.261  1.00  0.00    -0.382 A  
HETATM    6  C   UNL     1     -12.393  13.235  70.242  1.00  0.00    -0.334 A  
HETATM    7  C   UNL     1     -12.772  13.686  71.511  1.00  0.00    -0.420 A  
ENDROOT
BRANCH   5   8
HETATM    8  C   UNL     1     -11.664  13.680  67.855  1.00  0.00    -0.395 C  
BRANCH   8   9
HETATM    9  C   UNL     1     -10.167  13.499  67.599  1.00  0.00    -0.239 C  
BRANCH   9  10
HETATM   10  C   UNL     1      -9.501  14.645  66.806  1.00  0.00    -0.260 C  
BRANCH  10  11
HETATM   11  S   UNL     1      -8.806  15.903  67.957  1.00  0.00    -0.179 SA 
BRANCH  11  12
HETATM   12  C   UNL     1      -8.174  17.373  67.112  1.00  0.00    -0.210 A  
HETATM   13 CL   UNL     1      -5.448  16.732  66.798  1.00  0.00    -0.147 Cl 
HETATM   14  C   UNL     1      -7.604  19.816  65.722  1.00  0.00    -0.301 A  
HETATM   15  C   UNL     1      -6.884  17.667  66.613  1.00  0.00    -0.217 A  
HETATM   16  C   UNL     1      -6.622  18.863  65.909  1.00  0.00    -0.278 A  
HETATM   17  C   UNL     1      -8.860  19.596  66.253  1.00  0.00    -0.410 A  
HETATM   18  C   UNL     1      -9.144  18.405  66.939  1.00  0.00    -0.286 A  
HETATM   19 CL   UNL     1     -10.770  18.323  67.571  1.00  0.00    -0.426 Cl 
ENDBRANCH  11  12
ENDBRANCH  10  11
BRANCH  10  20
HETATM   20  C   UNL     1     -10.219  15.283  65.595  1.00  0.00    -0.372 C  
BRANCH  20  21
HETATM   21  N   UNL     1     -10.925  14.339  64.738  1.00  0.00    -0.395 NA 
HETATM   22  C   UNL     1     -12.228  14.446  64.331  1.00  0.00    -0.458 A  
HETATM   23  N   UNL     1     -12.579  13.431  63.578  1.00  0.00    -0.722 NA 
HETATM   24  C   UNL     1     -10.449  13.143  64.281  1.00  0.00    -0.389 A  
HETATM   25  C   UNL     1     -11.478  12.614  63.537  1.00  0.00    -0.491 A  
ENDBRANCH  20  21
ENDBRANCH  10  20
ENDBRANCH   9  10
ENDBRANCH   8   9
ENDBRANCH   5   8
TORSDOF 7
ENDMDL
MODEL       40
REMARK 921   NORMALIZED FREE ENERGY PREDICTED BY IDOCK:   -6.25 KCAL/MOL
REMARK 922        TOTAL FREE ENERGY PREDICTED BY IDOCK:   -9.69 KCAL/MOL
REMARK 923 INTER-LIGAND FREE ENERGY PREDICTED BY IDOCK:   -8.84 KCAL/MOL
REMARK 924 INTRA-LIGAND FREE ENERGY PREDICTED BY IDOCK:   -0.84 KCAL/MOL
REMARK 927      BINDING AFFINITY PREDICTED BY RF-SCORE:    0.00 PKD
ROOT
HETATM    1 CL   UNL     1      -5.465  20.957  68.439  1.00  0.00    -0.337 Cl 
HETATM    2  C   UNL     1      -6.846  20.057  67.948  1.00  0.00    -0.271 A  
HETATM    3  C   UNL     1      -7.215  20.040  66.606  1.00  0.00    -0.278 A  
HETATM    4  C   UNL     1      -8.359  19.342  66.214  1.00  0.00    -0.346 A  
HETATM    5  C   UNL     1      -9.141  18.650  67.155  1.00  0.00    -0.294 A  
HETATM    6  C   UNL     1      -8.743  18.661  68.498  1.00  0.00    -0.362 A  
HETATM    7  C   UNL     1      -7.600  19.365  68.892  1.00  0.00    -0.398 A  
ENDROOT
BRANCH   5   8
HETATM    8  C   UNL     1     -10.429  17.976  66.734  1.00  0.00    -0.335 C  
BRANCH   8   9
HETATM    9  C   UNL     1     -10.896  16.894  67.709  1.00  0.00    -0.281 C  
BRANCH   9  10
HETATM   10  C   UNL     1     -11.033  15.484  67.095  1.00  0.00    -0.295 C  
BRANCH  10  11
HETATM   11  S   UNL     1     -10.188  14.237  68.155  1.00  0.00    -0.236 SA 
BRANCH  11  12
HETATM   12  C   UNL     1     -11.210  13.659  69.532  1.00  0.00    -0.146 A  
HETATM   13 CL   UNL     1     -11.566  16.024  71.021  1.00  0.00    -0.451 Cl 
HETATM   14  C   UNL     1     -12.873  12.363  71.475  1.00  0.00    -0.377 A  
HETATM   15  C   UNL     1     -11.790  14.365  70.610  1.00  0.00    -0.295 A  
HETATM   16  C   UNL     1     -12.627  13.720  71.547  1.00  0.00    -0.405 A  
HETATM   17  C   UNL     1     -12.271  11.626  70.476  1.00  0.00    -0.451 A  
HETATM   18  C   UNL     1     -11.451  12.253  69.524  1.00  0.00    -0.249 A  
HETATM   19 CL   UNL     1     -10.747  11.154  68.362  1.00  0.00    -0.214 Cl 
ENDBRANCH  11  12
ENDBRANCH  10  11
BRANCH  10  20
HETATM   20  C   UNL     1     -10.774  15.254  65.589  1.00  0.00    -0.365 C  
BRANCH  20  21
HETATM   21  N   UNL     1     -11.441  14.086  65.027  1.00  0.00    -0.330 NA 
HETATM   22  C   UNL     1     -12.715  13.677  65.313  1.00  0.00    -0.430 A  
HETATM   23  N   UNL     1     -13.023  12.581  64.661  1.00  0.00    -0.844 NA 
HETATM   24  C   UNL     1     -10.882  13.148  64.207  1.00  0.00    -0.406 A  
HETATM   25  C   UNL     1     -11.890  12.243  63.965  1.00  0.00    -0.444 A  
ENDBRANCH  20  21
ENDBRANCH  10  20
ENDBRANCH   9  10
ENDBRANCH   8   9
ENDBRANCH   5   8
TORSDOF 7
ENDMDL
MODEL       41
REMARK 921   NORMALIZED FREE ENERGY PREDICTED BY IDOCK:   -6.24 KCAL/MOL
REMARK 922        TOTAL FREE ENERGY PREDICTED BY IDOCK:   -9.67 KCAL/MOL
REMARK 923 INTER-LIGAND FREE ENERGY PREDICTED BY IDOCK:   -8.57 KCAL/MOL
REMARK 924 INTRA-LIGAND FREE ENERGY PREDICTED BY IDOCK:   -1.09 KCAL/MOL
REMARK 927      BINDING AFFINITY PREDICTED BY RF-SCORE:    0.00 PKD
ROOT
HETATM    1 CL   UNL     1     -12.639  11.839  63.190  1.00  0.00    -0.494 Cl 
HETATM    2  C   UNL     1     -11.964  12.818  64.435  1.00  0.00    -0.399 A  
HETATM    3  C   UNL     1     -10.630  12.653  64.793  1.00  0.00    -0.341 A  
HETATM    4  C   UNL     1     -10.095  13.419  65.830  1.00  0.00    -0.300 A  
HETATM    5  C   UNL     1     -10.883  14.360  66.514  1.00  0.00    -0.310 A  
HETATM    6  C   UNL     1     -12.218  14.527  66.126  1.00  0.00    -0.268 A  
HETATM    7  C   UNL     1     -12.757  13.756  65.091  1.00  0.00    -0.439 A  
ENDROOT
BRANCH   5   8
HETATM    8  C   UNL     1     -10.319  15.117  67.697  1.00  0.00    -0.248 C  
BRANCH   8   9
HETATM    9  C   UNL     1     -10.075  14.234  68.922  1.00  0.00    -0.179 C  
BRANCH   9  10
HETATM   10  C   UNL     1     -11.355  13.744  69.633  1.00  0.00    -0.178 C  
BRANCH  10  11
HETATM   11  S   UNL     1     -11.827  12.071  69.024  1.00  0.00    -0.290 SA 
BRANCH  11  12
HETATM   12  C   UNL     1     -11.267  10.733  70.107  1.00  0.00    -0.267 A  
HETATM   13 CL   UNL     1     -13.330  10.640  72.024  1.00  0.00    -0.505 Cl 
HETATM   14  C   UNL     1     -10.075   8.530  71.503  1.00  0.00    -0.315 A  
HETATM   15  C   UNL     1     -11.880  10.142  71.236  1.00  0.00    -0.360 A  
HETATM   16  C   UNL     1     -11.295   9.042  71.900  1.00  0.00    -0.438 A  
HETATM   17  C   UNL     1      -9.412   9.122  70.446  1.00  0.00    -0.269 A  
HETATM   18  C   UNL     1      -9.988  10.204  69.761  1.00  0.00    -0.220 A  
HETATM   19 CL   UNL     1      -8.987  10.845  68.481  1.00  0.00    -0.151 Cl 
ENDBRANCH  11  12
ENDBRANCH  10  11
BRANCH  10  20
HETATM   20  C   UNL     1     -12.574  14.681  69.792  1.00  0.00    -0.121 C  
BRANCH  20  21
HETATM   21  N   UNL     1     -12.743  15.240  71.127  1.00  0.00    -0.374 NA 
HETATM   22  C   UNL     1     -11.770  15.855  71.868  1.00  0.00    -0.499 A  
HETATM   23  N   UNL     1     -12.228  16.236  73.036  1.00  0.00    -0.524 NA 
HETATM   24  C   UNL     1     -13.862  15.157  71.906  1.00  0.00    -0.503 A  
HETATM   25  C   UNL     1     -13.531  15.811  73.071  1.00  0.00    -0.583 A  
ENDBRANCH  20  21
ENDBRANCH  10  20
ENDBRANCH   9  10
ENDBRANCH   8   9
ENDBRANCH   5   8
TORSDOF 7
ENDMDL
MODEL       42
REMARK 921   NORMALIZED FREE ENERGY PREDICTED BY IDOCK:   -6.22 KCAL/MOL
REMARK 922        TOTAL FREE ENERGY PREDICTED BY IDOCK:   -9.65 KCAL/MOL
REMARK 923 INTER-LIGAND FREE ENERGY PREDICTED BY IDOCK:   -7.33 KCAL/MOL
REMARK 924 INTRA-LIGAND FREE ENERGY PREDICTED BY IDOCK:   -2.32 KCAL/MOL
REMARK 927      BINDING AFFINITY PREDICTED BY RF-SCORE:    0.00 PKD
ROOT
HETATM    1 CL   UNL     1      -9.933   4.417  70.903  1.00  0.00    -0.264 Cl 
HETATM    2  C   UNL     1      -9.842   5.526  69.591  1.00  0.00    -0.193 A  
HETATM    3  C   UNL     1      -8.625   5.740  68.953  1.00  0.00    -0.106 A  
HETATM    4  C   UNL     1      -8.544   6.671  67.916  1.00  0.00    -0.118 A  
HETATM    5  C   UNL     1      -9.677   7.390  67.500  1.00  0.00    -0.186 A  
HETATM    6  C   UNL     1     -10.899   7.147  68.140  1.00  0.00    -0.170 A  
HETATM    7  C   UNL     1     -10.979   6.219  69.184  1.00  0.00    -0.442 A  
ENDROOT
BRANCH   5   8
HETATM    8  C   UNL     1      -9.558   8.463  66.439  1.00  0.00    -0.307 C  
BRANCH   8   9
HETATM    9  C   UNL     1     -10.503   9.645  66.661  1.00  0.00    -0.233 C  
BRANCH   9  10
HETATM   10  C   UNL     1      -9.802  10.990  66.948  1.00  0.00    -0.191 C  
BRANCH  10  11
HETATM   11  S   UNL     1     -10.229  11.589  68.637  1.00  0.00    -0.190 SA 
BRANCH  11  12
HETATM   12  C   UNL     1      -9.978  10.341  69.923  1.00  0.00    -0.135 A  
HETATM   13 CL   UNL     1      -7.281   9.630  69.520  1.00  0.00    -0.072 Cl 
HETATM   14  C   UNL     1      -9.978   8.498  72.120  1.00  0.00    -0.387 A  
HETATM   15  C   UNL     1      -8.818   9.625  70.300  1.00  0.00    -0.211 A  
HETATM   16  C   UNL     1      -8.825   8.738  71.398  1.00  0.00    -0.292 A  
HETATM   17  C   UNL     1     -11.148   9.127  71.741  1.00  0.00    -0.437 A  
HETATM   18  C   UNL     1     -11.156  10.027  70.664  1.00  0.00    -0.335 A  
HETATM   19 CL   UNL     1     -12.731  10.693  70.309  1.00  0.00    -0.341 Cl 
ENDBRANCH  11  12
ENDBRANCH  10  11
BRANCH  10  20
HETATM   20  C   UNL     1      -9.814  12.123  65.897  1.00  0.00    -0.247 C  
BRANCH  20  21
HETATM   21  N   UNL     1     -11.024  12.191  65.088  1.00  0.00    -0.301 NA 
HETATM   22  C   UNL     1     -12.219  12.732  65.477  1.00  0.00    -0.463 A  
HETATM   23  N   UNL     1     -13.123  12.627  64.532  1.00  0.00    -0.820 NA 
HETATM   24  C   UNL     1     -11.206  11.639  63.852  1.00  0.00    -0.397 A  
HETATM   25  C   UNL     1     -12.502  11.952  63.512  1.00  0.00    -0.492 A  
ENDBRANCH  20  21
ENDBRANCH  10  20
ENDBRANCH   9  10
ENDBRANCH   8   9
ENDBRANCH   5   8
TORSDOF 7
ENDMDL
MODEL       43
REMARK 921   NORMALIZED FREE ENERGY PREDICTED BY IDOCK:   -6.21 KCAL/MOL
REMARK 922        TOTAL FREE ENERGY PREDICTED BY IDOCK:   -9.64 KCAL/MOL
REMARK 923 INTER-LIGAND FREE ENERGY PREDICTED BY IDOCK:   -8.58 KCAL/MOL
REMARK 924 INTRA-LIGAND FREE ENERGY PREDICTED BY IDOCK:   -1.06 KCAL/MOL
REMARK 927      BINDING AFFINITY PREDICTED BY RF-SCORE:    0.00 PKD
ROOT
HETATM    1 CL   UNL     1      -5.477  21.136  68.960  1.00  0.00    -0.366 Cl 
HETATM    2  C   UNL     1      -6.730  20.214  68.225  1.00  0.00    -0.300 A  
HETATM    3  C   UNL     1      -7.007  20.385  66.872  1.00  0.00    -0.318 A  
HETATM    4  C   UNL     1      -8.051  19.666  66.287  1.00  0.00    -0.347 A  
HETATM    5  C   UNL     1      -8.821  18.766  67.042  1.00  0.00    -0.302 A  
HETATM    6  C   UNL     1      -8.514  18.591  68.397  1.00  0.00    -0.352 A  
HETATM    7  C   UNL     1      -7.472  19.316  68.986  1.00  0.00    -0.372 A  
ENDROOT
BRANCH   5   8
HETATM    8  C   UNL     1     -10.009  18.062  66.419  1.00  0.00    -0.362 C  
BRANCH   8   9
HETATM    9  C   UNL     1     -10.707  17.091  67.373  1.00  0.00    -0.240 C  
BRANCH   9  10
HETATM   10  C   UNL     1     -10.754  15.627  66.886  1.00  0.00    -0.307 C  
BRANCH  10  11
HETATM   11  S   UNL     1      -9.663  14.569  67.929  1.00  0.00    -0.222 SA 
BRANCH  11  12
HETATM   12  C   UNL     1     -10.360  12.932  68.259  1.00  0.00    -0.244 A  
HETATM   13 CL   UNL     1      -8.942  11.322  66.432  1.00  0.00    -0.185 Cl 
HETATM   14  C   UNL     1     -11.652  10.529  69.142  1.00  0.00    -0.295 A  
HETATM   15  C   UNL     1     -10.037  11.666  67.717  1.00  0.00    -0.187 A  
HETATM   16  C   UNL     1     -10.664  10.487  68.178  1.00  0.00    -0.273 A  
HETATM   17  C   UNL     1     -12.042  11.753  69.647  1.00  0.00    -0.323 A  
HETATM   18  C   UNL     1     -11.418  12.934  69.216  1.00  0.00    -0.282 A  
HETATM   19 CL   UNL     1     -12.070  14.385  69.937  1.00  0.00    -0.377 Cl 
ENDBRANCH  11  12
ENDBRANCH  10  11
BRANCH  10  20
HETATM   20  C   UNL     1     -10.637  15.294  65.381  1.00  0.00    -0.394 C  
BRANCH  20  21
HETATM   21  N   UNL     1     -11.377  14.111  64.960  1.00  0.00    -0.334 NA 
HETATM   22  C   UNL     1     -12.600  13.720  65.433  1.00  0.00    -0.497 A  
HETATM   23  N   UNL     1     -12.997  12.604  64.870  1.00  0.00    -0.850 NA 
HETATM   24  C   UNL     1     -10.939  13.141  64.104  1.00  0.00    -0.390 A  
HETATM   25  C   UNL     1     -11.972  12.235  64.036  1.00  0.00    -0.462 A  
ENDBRANCH  20  21
ENDBRANCH  10  20
ENDBRANCH   9  10
ENDBRANCH   8   9
ENDBRANCH   5   8
TORSDOF 7
ENDMDL
MODEL       44
REMARK 921   NORMALIZED FREE ENERGY PREDICTED BY IDOCK:   -6.21 KCAL/MOL
REMARK 922        TOTAL FREE ENERGY PREDICTED BY IDOCK:   -9.63 KCAL/MOL
REMARK 923 INTER-LIGAND FREE ENERGY PREDICTED BY IDOCK:   -9.02 KCAL/MOL
REMARK 924 INTRA-LIGAND FREE ENERGY PREDICTED BY IDOCK:   -0.61 KCAL/MOL
REMARK 927      BINDING AFFINITY PREDICTED BY RF-SCORE:    0.00 PKD
ROOT
HETATM    1 CL   UNL     1     -10.252   6.484  73.964  1.00  0.00    -0.344 Cl 
HETATM    2  C   UNL     1     -10.571   7.729  72.820  1.00  0.00    -0.341 A  
HETATM    3  C   UNL     1     -11.885   8.116  72.572  1.00  0.00    -0.438 A  
HETATM    4  C   UNL     1     -12.145   9.098  71.613  1.00  0.00    -0.432 A  
HETATM    5  C   UNL     1     -11.099   9.706  70.900  1.00  0.00    -0.422 A  
HETATM    6  C   UNL     1      -9.782   9.319  71.177  1.00  0.00    -0.327 A  
HETATM    7  C   UNL     1      -9.520   8.332  72.133  1.00  0.00    -0.328 A  
ENDROOT
BRANCH   5   8
HETATM    8  C   UNL     1     -11.399  10.701  69.799  1.00  0.00    -0.371 C  
BRANCH   8   9
HETATM    9  C   UNL     1     -11.920  12.042  70.317  1.00  0.00    -0.398 C  
BRANCH   9  10
HETATM   10  C   UNL     1     -12.105  13.128  69.235  1.00  0.00    -0.220 C  
BRANCH  10  11
HETATM   11  S   UNL     1     -10.889  12.889  67.872  1.00  0.00    -0.235 SA 
BRANCH  11  12
HETATM   12  C   UNL     1     -11.132  14.032  66.489  1.00  0.00    -0.314 A  
HETATM   13 CL   UNL     1     -12.760  12.513  64.763  1.00  0.00    -0.526 Cl 
HETATM   14  C   UNL     1     -11.333  16.151  64.568  1.00  0.00    -0.273 A  
HETATM   15  C   UNL     1     -11.904  13.904  65.312  1.00  0.00    -0.357 A  
HETATM   16  C   UNL     1     -12.015  14.964  64.386  1.00  0.00    -0.408 A  
HETATM   17  C   UNL     1     -10.514  16.290  65.672  1.00  0.00    -0.386 A  
HETATM   18  C   UNL     1     -10.407  15.254  66.614  1.00  0.00    -0.280 A  
HETATM   19 CL   UNL     1      -9.298  15.596  67.919  1.00  0.00    -0.195 Cl 
ENDBRANCH  11  12
ENDBRANCH  10  11
BRANCH  10  20
HETATM   20  C   UNL     1     -12.267  14.613  69.630  1.00  0.00    -0.283 C  
BRANCH  20  21
HETATM   21  N   UNL     1     -12.613  14.838  71.028  1.00  0.00    -0.310 NA 
HETATM   22  C   UNL     1     -13.817  14.552  71.611  1.00  0.00    -0.434 A  
HETATM   23  N   UNL     1     -13.825  14.884  72.880  1.00  0.00    -0.492 NA 
HETATM   24  C   UNL     1     -11.840  15.462  71.965  1.00  0.00    -0.442 A  
HETATM   25  C   UNL     1     -12.596  15.449  73.114  1.00  0.00    -0.465 A  
ENDBRANCH  20  21
ENDBRANCH  10  20
ENDBRANCH   9  10
ENDBRANCH   8   9
ENDBRANCH   5   8
TORSDOF 7
ENDMDL
MODEL       45
REMARK 921   NORMALIZED FREE ENERGY PREDICTED BY IDOCK:   -6.20 KCAL/MOL
REMARK 922        TOTAL FREE ENERGY PREDICTED BY IDOCK:   -9.62 KCAL/MOL
REMARK 923 INTER-LIGAND FREE ENERGY PREDICTED BY IDOCK:   -8.64 KCAL/MOL
REMARK 924 INTRA-LIGAND FREE ENERGY PREDICTED BY IDOCK:   -0.97 KCAL/MOL
REMARK 927      BINDING AFFINITY PREDICTED BY RF-SCORE:    0.00 PKD
ROOT
HETATM    1 CL   UNL     1      -9.749  20.765  67.186  1.00  0.00    -0.561 Cl 
HETATM    2  C   UNL     1      -9.575  19.059  67.047  1.00  0.00    -0.318 A  
HETATM    3  C   UNL     1     -10.400  18.350  66.179  1.00  0.00    -0.431 A  
HETATM    4  C   UNL     1     -10.285  16.961  66.098  1.00  0.00    -0.352 A  
HETATM    5  C   UNL     1      -9.342  16.268  66.875  1.00  0.00    -0.241 A  
HETATM    6  C   UNL     1      -8.505  16.999  67.728  1.00  0.00    -0.199 A  
HETATM    7  C   UNL     1      -8.624  18.390  67.814  1.00  0.00    -0.278 A  
ENDROOT
BRANCH   5   8
HETATM    8  C   UNL     1      -9.290  14.755  66.848  1.00  0.00    -0.256 C  
BRANCH   8   9
HETATM    9  C   UNL     1      -9.632  14.112  68.193  1.00  0.00    -0.218 C  
BRANCH   9  10
HETATM   10  C   UNL     1     -11.122  14.195  68.591  1.00  0.00    -0.262 C  
BRANCH  10  11
HETATM   11  S   UNL     1     -12.193  13.751  67.160  1.00  0.00    -0.219 SA 
BRANCH  11  12
HETATM   12  C   UNL     1     -11.411  12.587  66.015  1.00  0.00    -0.377 A  
HETATM   13 CL   UNL     1     -10.337  10.672  67.781  1.00  0.00    -0.224 Cl 
HETATM   14  C   UNL     1     -10.391  10.970  63.879  1.00  0.00    -0.436 A  
HETATM   15  C   UNL     1     -10.742  11.366  66.256  1.00  0.00    -0.270 A  
HETATM   16  C   UNL     1     -10.266  10.566  65.194  1.00  0.00    -0.358 A  
HETATM   17  C   UNL     1     -10.978  12.189  63.606  1.00  0.00    -0.527 A  
HETATM   18  C   UNL     1     -11.476  12.989  64.647  1.00  0.00    -0.336 A  
HETATM   19 CL   UNL     1     -12.148  14.510  64.113  1.00  0.00    -0.450 Cl 
ENDBRANCH  11  12
ENDBRANCH  10  11
BRANCH  10  20
HETATM   20  C   UNL     1     -11.659  15.412  69.377  1.00  0.00    -0.340 C  
BRANCH  20  21
HETATM   21  N   UNL     1     -12.150  15.105  70.714  1.00  0.00    -0.308 NA 
HETATM   22  C   UNL     1     -12.857  13.990  71.072  1.00  0.00    -0.340 A  
HETATM   23  N   UNL     1     -13.171  14.009  72.345  1.00  0.00    -0.456 NA 
HETATM   24  C   UNL     1     -12.082  15.917  71.811  1.00  0.00    -0.492 A  
HETATM   25  C   UNL     1     -12.690  15.204  72.818  1.00  0.00    -0.398 A  
ENDBRANCH  20  21
ENDBRANCH  10  20
ENDBRANCH   9  10
ENDBRANCH   8   9
ENDBRANCH   5   8
TORSDOF 7
ENDMDL
MODEL       46
REMARK 921   NORMALIZED FREE ENERGY PREDICTED BY IDOCK:   -6.19 KCAL/MOL
REMARK 922        TOTAL FREE ENERGY PREDICTED BY IDOCK:   -9.61 KCAL/MOL
REMARK 923 INTER-LIGAND FREE ENERGY PREDICTED BY IDOCK:   -8.02 KCAL/MOL
REMARK 924 INTRA-LIGAND FREE ENERGY PREDICTED BY IDOCK:   -1.59 KCAL/MOL
REMARK 927      BINDING AFFINITY PREDICTED BY RF-SCORE:    0.00 PKD
ROOT
HETATM    1 CL   UNL     1     -14.115  15.531  72.337  1.00  0.00    -0.642 Cl 
HETATM    2  C   UNL     1     -13.378  14.170  71.585  1.00  0.00    -0.364 A  
HETATM    3  C   UNL     1     -13.557  12.902  72.130  1.00  0.00    -0.589 A  
HETATM    4  C   UNL     1     -12.925  11.804  71.542  1.00  0.00    -0.446 A  
HETATM    5  C   UNL     1     -12.118  11.959  70.402  1.00  0.00    -0.421 A  
HETATM    6  C   UNL     1     -11.967  13.240  69.855  1.00  0.00    -0.400 A  
HETATM    7  C   UNL     1     -12.594  14.341  70.447  1.00  0.00    -0.405 A  
ENDROOT
BRANCH   5   8
HETATM    8  C   UNL     1     -11.365  10.778  69.830  1.00  0.00    -0.385 C  
BRANCH   8   9
HETATM    9  C   UNL     1     -11.619  10.561  68.337  1.00  0.00    -0.205 C  
BRANCH   9  10
HETATM   10  C   UNL     1     -10.433   9.949  67.560  1.00  0.00    -0.255 C  
BRANCH  10  11
HETATM   11  S   UNL     1      -9.921  11.066  66.188  1.00  0.00    -0.240 SA 
BRANCH  11  12
HETATM   12  C   UNL     1     -10.083  12.822  66.596  1.00  0.00    -0.243 A  
HETATM   13 CL   UNL     1      -7.972  13.186  68.426  1.00  0.00    -0.139 Cl 
HETATM   14  C   UNL     1     -10.630  15.620  66.901  1.00  0.00    -0.311 A  
HETATM   15  C   UNL     1      -9.291  13.654  67.420  1.00  0.00    -0.227 A  
HETATM   16  C   UNL     1      -9.556  15.035  67.543  1.00  0.00    -0.203 A  
HETATM   17  C   UNL     1     -11.468  14.828  66.141  1.00  0.00    -0.311 A  
HETATM   18  C   UNL     1     -11.209  13.456  65.991  1.00  0.00    -0.296 A  
HETATM   19 CL   UNL     1     -12.396  12.612  65.027  1.00  0.00    -0.545 Cl 
ENDBRANCH  11  12
ENDBRANCH  10  11
BRANCH  10  20
HETATM   20  C   UNL     1     -10.453   8.463  67.138  1.00  0.00    -0.310 C  
BRANCH  20  21
HETATM   21  N   UNL     1     -10.248   7.517  68.227  1.00  0.00    -0.181 NA 
HETATM   22  C   UNL     1     -10.960   6.366  68.433  1.00  0.00    -0.309 A  
HETATM   23  N   UNL     1     -10.550   5.735  69.507  1.00  0.00    -0.291 NA 
HETATM   24  C   UNL     1      -9.391   7.663  69.280  1.00  0.00    -0.148 A  
HETATM   25  C   UNL     1      -9.570   6.532  70.042  1.00  0.00    -0.159 A  
ENDBRANCH  20  21
ENDBRANCH  10  20
ENDBRANCH   9  10
ENDBRANCH   8   9
ENDBRANCH   5   8
TORSDOF 7
ENDMDL
MODEL       47
REMARK 921   NORMALIZED FREE ENERGY PREDICTED BY IDOCK:   -6.19 KCAL/MOL
REMARK 922        TOTAL FREE ENERGY PREDICTED BY IDOCK:   -9.60 KCAL/MOL
REMARK 923 INTER-LIGAND FREE ENERGY PREDICTED BY IDOCK:   -8.59 KCAL/MOL
REMARK 924 INTRA-LIGAND FREE ENERGY PREDICTED BY IDOCK:   -1.02 KCAL/MOL
REMARK 927      BINDING AFFINITY PREDICTED BY RF-SCORE:    0.00 PKD
ROOT
HETATM    1 CL   UNL     1      -8.862   9.389  63.554  1.00  0.00    -0.227 Cl 
HETATM    2  C   UNL     1      -9.926  10.632  64.086  1.00  0.00    -0.342 A  
HETATM    3  C   UNL     1     -10.432  11.546  63.166  1.00  0.00    -0.350 A  
HETATM    4  C   UNL     1     -11.263  12.579  63.606  1.00  0.00    -0.545 A  
HETATM    5  C   UNL     1     -11.603  12.704  64.963  1.00  0.00    -0.384 A  
HETATM    6  C   UNL     1     -11.102  11.763  65.871  1.00  0.00    -0.355 A  
HETATM    7  C   UNL     1     -10.265  10.732  65.433  1.00  0.00    -0.341 A  
ENDROOT
BRANCH   5   8
HETATM    8  C   UNL     1     -12.428  13.880  65.441  1.00  0.00    -0.528 C  
BRANCH   8   9
HETATM    9  C   UNL     1     -12.399  14.065  66.959  1.00  0.00    -0.278 C  
BRANCH   9  10
HETATM   10  C   UNL     1     -11.137  14.771  67.501  1.00  0.00    -0.319 C  
BRANCH  10  11
HETATM   11  S   UNL     1     -10.421  13.817  68.905  1.00  0.00    -0.110 SA 
BRANCH  11  12
HETATM   12  C   UNL     1     -11.603  13.522  70.245  1.00  0.00    -0.066 A  
HETATM   13 CL   UNL     1     -11.788  16.074  71.425  1.00  0.00    -0.507 Cl 
HETATM   14  C   UNL     1     -13.545  12.658  72.168  1.00  0.00    -0.510 A  
HETATM   15  C   UNL     1     -12.174  14.412  71.183  1.00  0.00    -0.350 A  
HETATM   16  C   UNL     1     -13.147  13.979  72.110  1.00  0.00    -0.501 A  
HETATM   17  C   UNL     1     -12.962  11.744  71.313  1.00  0.00    -0.353 A  
HETATM   18  C   UNL     1     -12.006  12.160  70.372  1.00  0.00    -0.272 A  
HETATM   19 CL   UNL     1     -11.353  10.860  69.405  1.00  0.00    -0.311 Cl 
ENDBRANCH  11  12
ENDBRANCH  10  11
BRANCH  10  20
HETATM   20  C   UNL     1     -11.138  16.294  67.761  1.00  0.00    -0.227 C  
BRANCH  20  21
HETATM   21  N   UNL     1     -10.044  17.021  67.129  1.00  0.00    -0.285 NA 
HETATM   22  C   UNL     1      -9.155  16.505  66.225  1.00  0.00    -0.313 A  
HETATM   23  N   UNL     1      -8.276  17.403  65.851  1.00  0.00    -0.552 NA 
HETATM   24  C   UNL     1      -9.654  18.301  67.403  1.00  0.00    -0.283 A  
HETATM   25  C   UNL     1      -8.579  18.529  66.575  1.00  0.00    -0.276 A  
ENDBRANCH  20  21
ENDBRANCH  10  20
ENDBRANCH   9  10
ENDBRANCH   8   9
ENDBRANCH   5   8
TORSDOF 7
ENDMDL
MODEL       48
REMARK 921   NORMALIZED FREE ENERGY PREDICTED BY IDOCK:   -6.19 KCAL/MOL
REMARK 922        TOTAL FREE ENERGY PREDICTED BY IDOCK:   -9.60 KCAL/MOL
REMARK 923 INTER-LIGAND FREE ENERGY PREDICTED BY IDOCK:   -8.80 KCAL/MOL
REMARK 924 INTRA-LIGAND FREE ENERGY PREDICTED BY IDOCK:   -0.80 KCAL/MOL
REMARK 927      BINDING AFFINITY PREDICTED BY RF-SCORE:    0.00 PKD
ROOT
HETATM    1 CL   UNL     1     -10.920   7.931  72.601  1.00  0.00    -0.409 Cl 
HETATM    2  C   UNL     1     -11.257   9.229  71.523  1.00  0.00    -0.386 A  
HETATM    3  C   UNL     1     -10.395   9.483  70.461  1.00  0.00    -0.350 A  
HETATM    4  C   UNL     1     -10.647  10.562  69.611  1.00  0.00    -0.281 A  
HETATM    5  C   UNL     1     -11.765  11.390  69.808  1.00  0.00    -0.418 A  
HETATM    6  C   UNL     1     -12.633  11.107  70.869  1.00  0.00    -0.483 A  
HETATM    7  C   UNL     1     -12.378  10.030  71.725  1.00  0.00    -0.434 A  
ENDROOT
BRANCH   5   8
HETATM    8  C   UNL     1     -11.977  12.611  68.937  1.00  0.00    -0.284 C  
BRANCH   8   9
HETATM    9  C   UNL     1     -10.676  13.192  68.380  1.00  0.00    -0.270 C  
BRANCH   9  10
HETATM   10  C   UNL     1     -10.837  14.522  67.611  1.00  0.00    -0.273 C  
BRANCH  10  11
HETATM   11  S   UNL     1     -10.914  15.937  68.787  1.00  0.00    -0.323 SA 
BRANCH  11  12
HETATM   12  C   UNL     1      -9.607  17.161  68.519  1.00  0.00    -0.288 A  
HETATM   13 CL   UNL     1     -11.009  19.226  67.212  1.00  0.00    -0.543 Cl 
HETATM   14  C   UNL     1      -7.290  18.842  68.368  1.00  0.00    -0.318 A  
HETATM   15  C   UNL     1      -9.659  18.458  67.960  1.00  0.00    -0.298 A  
HETATM   16  C   UNL     1      -8.516  19.286  67.913  1.00  0.00    -0.343 A  
HETATM   17  C   UNL     1      -7.183  17.557  68.860  1.00  0.00    -0.249 A  
HETATM   18  C   UNL     1      -8.313  16.726  68.932  1.00  0.00    -0.222 A  
HETATM   19 CL   UNL     1      -7.977  15.125  69.544  1.00  0.00    -0.210 Cl 
ENDBRANCH  11  12
ENDBRANCH  10  11
BRANCH  10  20
HETATM   20  C   UNL     1     -11.867  14.648  66.466  1.00  0.00    -0.304 C  
BRANCH  20  21
HETATM   21  N   UNL     1     -11.671  13.715  65.364  1.00  0.00    -0.322 NA 
HETATM   22  C   UNL     1     -12.581  12.793  64.922  1.00  0.00    -0.470 A  
HETATM   23  N   UNL     1     -12.103  12.089  63.924  1.00  0.00    -0.454 NA 
HETATM   24  C   UNL     1     -10.519  13.528  64.654  1.00  0.00    -0.421 A  
HETATM   25  C   UNL     1     -10.820  12.540  63.744  1.00  0.00    -0.446 A  
ENDBRANCH  20  21
ENDBRANCH  10  20
ENDBRANCH   9  10
ENDBRANCH   8   9
ENDBRANCH   5   8
TORSDOF 7
ENDMDL
MODEL       49
REMARK 921   NORMALIZED FREE ENERGY PREDICTED BY IDOCK:   -6.19 KCAL/MOL
REMARK 922        TOTAL FREE ENERGY PREDICTED BY IDOCK:   -9.60 KCAL/MOL
REMARK 923 INTER-LIGAND FREE ENERGY PREDICTED BY IDOCK:   -8.75 KCAL/MOL
REMARK 924 INTRA-LIGAND FREE ENERGY PREDICTED BY IDOCK:   -0.85 KCAL/MOL
REMARK 927      BINDING AFFINITY PREDICTED BY RF-SCORE:    0.00 PKD
ROOT
HETATM    1 CL   UNL     1      -6.733  21.120  67.494  1.00  0.00    -0.431 Cl 
HETATM    2  C   UNL     1      -7.847  19.886  67.052  1.00  0.00    -0.290 A  
HETATM    3  C   UNL     1      -7.379  18.610  66.751  1.00  0.00    -0.234 A  
HETATM    4  C   UNL     1      -8.280  17.621  66.353  1.00  0.00    -0.298 A  
HETATM    5  C   UNL     1      -9.655  17.891  66.259  1.00  0.00    -0.252 A  
HETATM    6  C   UNL     1     -10.111  19.175  66.585  1.00  0.00    -0.469 A  
HETATM    7  C   UNL     1      -9.209  20.169  66.978  1.00  0.00    -0.503 A  
ENDROOT
BRANCH   5   8
HETATM    8  C   UNL     1     -10.609  16.839  65.737  1.00  0.00    -0.259 C  
BRANCH   8   9
HETATM    9  C   UNL     1     -10.212  15.413  66.124  1.00  0.00    -0.324 C  
BRANCH   9  10
HETATM   10  C   UNL     1     -11.209  14.694  67.058  1.00  0.00    -0.344 C  
BRANCH  10  11
HETATM   11  S   UNL     1     -10.334  14.015  68.530  1.00  0.00    -0.247 SA 
BRANCH  11  12
HETATM   12  C   UNL     1     -11.450  13.256  69.737  1.00  0.00    -0.158 A  
HETATM   13 CL   UNL     1     -11.282  10.530  69.047  1.00  0.00    -0.294 Cl 
HETATM   14  C   UNL     1     -13.214  12.457  71.851  1.00  0.00    -0.486 A  
HETATM   15  C   UNL     1     -11.770  11.900  69.971  1.00  0.00    -0.286 A  
HETATM   16  C   UNL     1     -12.622  11.517  71.031  1.00  0.00    -0.457 A  
HETATM   17  C   UNL     1     -12.979  13.796  71.613  1.00  0.00    -0.448 A  
HETATM   18  C   UNL     1     -12.120  14.195  70.576  1.00  0.00    -0.350 A  
HETATM   19 CL   UNL     1     -11.977  15.927  70.403  1.00  0.00    -0.361 Cl 
ENDBRANCH  11  12
ENDBRANCH  10  11
BRANCH  10  20
HETATM   20  C   UNL     1     -12.254  13.710  66.485  1.00  0.00    -0.404 C  
BRANCH  20  21
HETATM   21  N   UNL     1     -11.739  12.792  65.478  1.00  0.00    -0.372 NA 
HETATM   22  C   UNL     1     -12.172  12.697  64.183  1.00  0.00    -0.450 A  
HETATM   23  N   UNL     1     -11.523  11.764  63.529  1.00  0.00    -0.424 NA 
HETATM   24  C   UNL     1     -10.816  11.804  65.676  1.00  0.00    -0.292 A  
HETATM   25  C   UNL     1     -10.672  11.203  64.447  1.00  0.00    -0.318 A  
ENDBRANCH  20  21
ENDBRANCH  10  20
ENDBRANCH   9  10
ENDBRANCH   8   9
ENDBRANCH   5   8
TORSDOF 7
ENDMDL
MODEL       50
REMARK 921   NORMALIZED FREE ENERGY PREDICTED BY IDOCK:   -6.19 KCAL/MOL
REMARK 922        TOTAL FREE ENERGY PREDICTED BY IDOCK:   -9.60 KCAL/MOL
REMARK 923 INTER-LIGAND FREE ENERGY PREDICTED BY IDOCK:   -8.59 KCAL/MOL
REMARK 924 INTRA-LIGAND FREE ENERGY PREDICTED BY IDOCK:   -1.02 KCAL/MOL
REMARK 927      BINDING AFFINITY PREDICTED BY RF-SCORE:    0.00 PKD
ROOT
HETATM    1 CL   UNL     1     -12.462  15.734  74.561  1.00  0.00    -0.783 Cl 
HETATM    2  C   UNL     1     -12.359  15.117  72.958  1.00  0.00    -0.402 A  
HETATM    3  C   UNL     1     -12.947  13.893  72.652  1.00  0.00    -0.440 A  
HETATM    4  C   UNL     1     -12.827  13.375  71.361  1.00  0.00    -0.420 A  
HETATM    5  C   UNL     1     -12.129  14.075  70.363  1.00  0.00    -0.426 A  
HETATM    6  C   UNL     1     -11.561  15.314  70.683  1.00  0.00    -0.355 A  
HETATM    7  C   UNL     1     -11.675  15.832  71.978  1.00  0.00    -0.572 A  
ENDROOT
BRANCH   5   8
HETATM    8  C   UNL     1     -11.926  13.460  68.994  1.00  0.00    -0.357 C  
BRANCH   8   9
HETATM    9  C   UNL     1     -11.259  12.084  69.040  1.00  0.00    -0.313 C  
BRANCH   9  10
HETATM   10  C   UNL     1     -11.209  11.343  67.686  1.00  0.00    -0.283 C  
BRANCH  10  11
HETATM   11  S   UNL     1     -10.929   9.542  67.950  1.00  0.00     0.004 SA 
BRANCH  11  12
HETATM   12  C   UNL     1      -9.937   9.180  69.420  1.00  0.00    -0.191 A  
HETATM   13 CL   UNL     1     -11.813   9.551  71.489  1.00  0.00    -0.451 Cl 
HETATM   14  C   UNL     1      -8.056   8.456  71.459  1.00  0.00    -0.172 A  
HETATM   15  C   UNL     1     -10.297   9.129  70.785  1.00  0.00    -0.258 A  
HETATM   16  C   UNL     1      -9.368   8.747  71.778  1.00  0.00    -0.350 A  
HETATM   17  C   UNL     1      -7.648   8.560  70.144  1.00  0.00    -0.068 A  
HETATM   18  C   UNL     1      -8.563   8.919  69.141  1.00  0.00    -0.134 A  
HETATM   19 CL   UNL     1      -7.856   9.036  67.548  1.00  0.00    -0.100 Cl 
ENDBRANCH  11  12
ENDBRANCH  10  11
BRANCH  10  20
HETATM   20  C   UNL     1     -10.375  11.906  66.512  1.00  0.00    -0.216 C  
BRANCH  20  21
HETATM   21  N   UNL     1     -11.154  12.299  65.345  1.00  0.00    -0.302 NA 
HETATM   22  C   UNL     1     -12.212  13.166  65.343  1.00  0.00    -0.461 A  
HETATM   23  N   UNL     1     -12.716  13.304  64.139  1.00  0.00    -0.658 NA 
HETATM   24  C   UNL     1     -11.033  11.796  64.080  1.00  0.00    -0.374 A  
HETATM   25  C   UNL     1     -11.987  12.459  63.343  1.00  0.00    -0.504 A  
ENDBRANCH  20  21
ENDBRANCH  10  20
ENDBRANCH   9  10
ENDBRANCH   8   9
ENDBRANCH   5   8
TORSDOF 7
ENDMDL
MODEL       51
REMARK 921   NORMALIZED FREE ENERGY PREDICTED BY IDOCK:   -6.19 KCAL/MOL
REMARK 922        TOTAL FREE ENERGY PREDICTED BY IDOCK:   -9.60 KCAL/MOL
REMARK 923 INTER-LIGAND FREE ENERGY PREDICTED BY IDOCK:   -8.65 KCAL/MOL
REMARK 924 INTRA-LIGAND FREE ENERGY PREDICTED BY IDOCK:   -0.94 KCAL/MOL
REMARK 927      BINDING AFFINITY PREDICTED BY RF-SCORE:    0.00 PKD
ROOT
HETATM    1 CL   UNL     1      -9.890  20.759  67.089  1.00  0.00    -0.532 Cl 
HETATM    2  C   UNL     1     -10.136  19.059  67.182  1.00  0.00    -0.364 A  
HETATM    3  C   UNL     1     -10.292  18.320  66.012  1.00  0.00    -0.377 A  
HETATM    4  C   UNL     1     -10.532  16.947  66.091  1.00  0.00    -0.276 A  
HETATM    5  C   UNL     1     -10.611  16.297  67.334  1.00  0.00    -0.307 A  
HETATM    6  C   UNL     1     -10.430  17.052  68.500  1.00  0.00    -0.373 A  
HETATM    7  C   UNL     1     -10.196  18.430  68.422  1.00  0.00    -0.407 A  
ENDROOT
BRANCH   5   8
HETATM    8  C   UNL     1     -10.964  14.827  67.410  1.00  0.00    -0.313 C  
BRANCH   8   9
HETATM    9  C   UNL     1     -10.350  14.117  68.618  1.00  0.00    -0.243 C  
BRANCH   9  10
HETATM   10  C   UNL     1     -11.370  13.428  69.551  1.00  0.00    -0.183 C  
BRANCH  10  11
HETATM   11  S   UNL     1     -11.708  11.711  68.977  1.00  0.00    -0.338 SA 
BRANCH  11  12
HETATM   12  C   UNL     1     -10.859  10.449  69.959  1.00  0.00    -0.289 A  
HETATM   13 CL   UNL     1      -8.529  10.005  68.439  1.00  0.00    -0.110 Cl 
HETATM   14  C   UNL     1      -9.821   8.541  71.830  1.00  0.00    -0.358 A  
HETATM   15  C   UNL     1      -9.601   9.832  69.777  1.00  0.00    -0.230 A  
HETATM   16  C   UNL     1      -9.090   8.912  70.719  1.00  0.00    -0.260 A  
HETATM   17  C   UNL     1     -11.084   9.071  72.008  1.00  0.00    -0.371 A  
HETATM   18  C   UNL     1     -11.600  10.002  71.093  1.00  0.00    -0.378 A  
HETATM   19 CL   UNL     1     -13.224  10.531  71.461  1.00  0.00    -0.483 Cl 
ENDBRANCH  11  12
ENDBRANCH  10  11
BRANCH  10  20
HETATM   20  C   UNL     1     -12.653  14.167  69.995  1.00  0.00    -0.214 C  
BRANCH  20  21
HETATM   21  N   UNL     1     -12.613  14.696  71.353  1.00  0.00    -0.314 NA 
HETATM   22  C   UNL     1     -11.843  15.743  71.782  1.00  0.00    -0.467 A  
HETATM   23  N   UNL     1     -12.016  15.970  73.063  1.00  0.00    -0.489 NA 
HETATM   24  C   UNL     1     -13.250  14.179  72.445  1.00  0.00    -0.472 A  
HETATM   25  C   UNL     1     -12.893  15.004  73.486  1.00  0.00    -0.505 A  
ENDBRANCH  20  21
ENDBRANCH  10  20
ENDBRANCH   9  10
ENDBRANCH   8   9
ENDBRANCH   5   8
TORSDOF 7
ENDMDL
MODEL       52
REMARK 921   NORMALIZED FREE ENERGY PREDICTED BY IDOCK:   -6.18 KCAL/MOL
REMARK 922        TOTAL FREE ENERGY PREDICTED BY IDOCK:   -9.59 KCAL/MOL
REMARK 923 INTER-LIGAND FREE ENERGY PREDICTED BY IDOCK:   -8.76 KCAL/MOL
REMARK 924 INTRA-LIGAND FREE ENERGY PREDICTED BY IDOCK:   -0.83 KCAL/MOL
REMARK 927      BINDING AFFINITY PREDICTED BY RF-SCORE:    0.00 PKD
ROOT
HETATM    1 CL   UNL     1      -9.630   7.693  66.285  1.00  0.00    -0.203 Cl 
HETATM    2  C   UNL     1     -10.179   9.268  66.706  1.00  0.00    -0.255 A  
HETATM    3  C   UNL     1     -10.724   9.494  67.966  1.00  0.00    -0.266 A  
HETATM    4  C   UNL     1     -11.207  10.763  68.292  1.00  0.00    -0.358 A  
HETATM    5  C   UNL     1     -11.144  11.818  67.367  1.00  0.00    -0.338 A  
HETATM    6  C   UNL     1     -10.574  11.578  66.110  1.00  0.00    -0.314 A  
HETATM    7  C   UNL     1     -10.095  10.306  65.782  1.00  0.00    -0.325 A  
ENDROOT
BRANCH   5   8
HETATM    8  C   UNL     1     -11.755  13.164  67.697  1.00  0.00    -0.414 C  
BRANCH   8   9
HETATM    9  C   UNL     1     -11.095  13.854  68.892  1.00  0.00    -0.296 C  
BRANCH   9  10
HETATM   10  C   UNL     1     -11.425  15.355  69.036  1.00  0.00    -0.337 C  
BRANCH  10  11
HETATM   11  S   UNL     1     -10.757  16.300  67.603  1.00  0.00    -0.285 SA 
BRANCH  11  12
HETATM   12  C   UNL     1      -9.291  17.279  68.012  1.00  0.00    -0.264 A  
HETATM   13 CL   UNL     1      -7.583  15.328  69.115  1.00  0.00    -0.175 Cl 
HETATM   14  C   UNL     1      -7.163  19.156  68.422  1.00  0.00    -0.331 A  
HETATM   15  C   UNL     1      -8.041  16.889  68.546  1.00  0.00    -0.244 A  
HETATM   16  C   UNL     1      -6.993  17.819  68.720  1.00  0.00    -0.257 A  
HETATM   17  C   UNL     1      -8.391  19.589  67.962  1.00  0.00    -0.355 A  
HETATM   18  C   UNL     1      -9.439  18.676  67.764  1.00  0.00    -0.300 A  
HETATM   19 CL   UNL     1     -10.925  19.411  67.216  1.00  0.00    -0.556 Cl 
ENDBRANCH  11  12
ENDBRANCH  10  11
BRANCH  10  20
HETATM   20  C   UNL     1     -11.201  16.084  70.381  1.00  0.00    -0.387 C  
BRANCH  20  21
HETATM   21  N   UNL     1     -12.216  15.821  71.393  1.00  0.00    -0.413 NA 
HETATM   22  C   UNL     1     -13.486  15.370  71.156  1.00  0.00    -0.493 A  
HETATM   23  N   UNL     1     -14.166  15.248  72.271  1.00  0.00    -0.547 NA 
HETATM   24  C   UNL     1     -12.114  16.076  72.731  1.00  0.00    -0.531 A  
HETATM   25  C   UNL     1     -13.321  15.681  73.260  1.00  0.00    -0.514 A  
ENDBRANCH  20  21
ENDBRANCH  10  20
ENDBRANCH   9  10
ENDBRANCH   8   9
ENDBRANCH   5   8
TORSDOF 7
ENDMDL
MODEL       53
REMARK 921   NORMALIZED FREE ENERGY PREDICTED BY IDOCK:   -6.16 KCAL/MOL
REMARK 922        TOTAL FREE ENERGY PREDICTED BY IDOCK:   -9.57 KCAL/MOL
REMARK 923 INTER-LIGAND FREE ENERGY PREDICTED BY IDOCK:   -8.53 KCAL/MOL
REMARK 924 INTRA-LIGAND FREE ENERGY PREDICTED BY IDOCK:   -1.04 KCAL/MOL
REMARK 927      BINDING AFFINITY PREDICTED BY RF-SCORE:    0.00 PKD
ROOT
HETATM    1 CL   UNL     1     -11.700   7.341  72.122  1.00  0.00    -0.313 Cl 
HETATM    2  C   UNL     1     -11.817   8.908  71.419  1.00  0.00    -0.317 A  
HETATM    3  C   UNL     1     -10.921   9.285  70.423  1.00  0.00    -0.302 A  
HETATM    4  C   UNL     1     -10.991  10.570  69.883  1.00  0.00    -0.359 A  
HETATM    5  C   UNL     1     -11.959  11.487  70.325  1.00  0.00    -0.455 A  
HETATM    6  C   UNL     1     -12.866  11.084  71.313  1.00  0.00    -0.528 A  
HETATM    7  C   UNL     1     -12.793   9.798  71.859  1.00  0.00    -0.520 A  
ENDROOT
BRANCH   5   8
HETATM    8  C   UNL     1     -11.966  12.907  69.799  1.00  0.00    -0.365 C  
BRANCH   8   9
HETATM    9  C   UNL     1     -11.825  12.992  68.278  1.00  0.00    -0.381 C  
BRANCH   9  10
HETATM   10  C   UNL     1     -11.893  14.422  67.700  1.00  0.00    -0.378 C  
BRANCH  10  11
HETATM   11  S   UNL     1     -10.961  14.519  66.114  1.00  0.00    -0.328 SA 
BRANCH  11  12
HETATM   12  C   UNL     1     -10.381  12.908  65.527  1.00  0.00    -0.291 A  
HETATM   13 CL   UNL     1      -8.343  12.315  67.381  1.00  0.00    -0.168 Cl 
HETATM   14  C   UNL     1      -9.826  10.361  64.331  1.00  0.00    -0.395 A  
HETATM   15  C   UNL     1      -9.406  12.031  66.054  1.00  0.00    -0.190 A  
HETATM   16  C   UNL     1      -9.158  10.769  65.470  1.00  0.00    -0.220 A  
HETATM   17  C   UNL     1     -10.738  11.218  63.747  1.00  0.00    -0.448 A  
HETATM   18  C   UNL     1     -11.011  12.468  64.325  1.00  0.00    -0.360 A  
HETATM   19 CL   UNL     1     -12.161  13.427  63.426  1.00  0.00    -0.530 Cl 
ENDBRANCH  11  12
ENDBRANCH  10  11
BRANCH  10  20
HETATM   20  C   UNL     1     -11.646  15.649  68.607  1.00  0.00    -0.382 C  
BRANCH  20  21
HETATM   21  N   UNL     1     -10.261  16.099  68.661  1.00  0.00    -0.233 NA 
HETATM   22  C   UNL     1      -9.243  15.477  69.332  1.00  0.00    -0.280 A  
HETATM   23  N   UNL     1      -8.114  16.133  69.205  1.00  0.00    -0.237 NA 
HETATM   24  C   UNL     1      -9.763  17.261  68.145  1.00  0.00    -0.284 A  
HETATM   25  C   UNL     1      -8.424  17.245  68.463  1.00  0.00    -0.267 A  
ENDBRANCH  20  21
ENDBRANCH  10  20
ENDBRANCH   9  10
ENDBRANCH   8   9
ENDBRANCH   5   8
TORSDOF 7
ENDMDL
MODEL       54
REMARK 921   NORMALIZED FREE ENERGY PREDICTED BY IDOCK:   -6.15 KCAL/MOL
REMARK 922        TOTAL FREE ENERGY PREDICTED BY IDOCK:   -9.55 KCAL/MOL
REMARK 923 INTER-LIGAND FREE ENERGY PREDICTED BY IDOCK:   -8.43 KCAL/MOL
REMARK 924 INTRA-LIGAND FREE ENERGY PREDICTED BY IDOCK:   -1.12 KCAL/MOL
REMARK 927      BINDING AFFINITY PREDICTED BY RF-SCORE:    0.00 PKD
ROOT
HETATM    1 CL   UNL     1      -9.678  20.871  67.082  1.00  0.00    -0.488 Cl 
HETATM    2  C   UNL     1      -9.553  19.156  67.023  1.00  0.00    -0.322 A  
HETATM    3  C   UNL     1     -10.456  18.426  66.256  1.00  0.00    -0.421 A  
HETATM    4  C   UNL     1     -10.379  17.032  66.241  1.00  0.00    -0.309 A  
HETATM    5  C   UNL     1      -9.398  16.355  66.984  1.00  0.00    -0.241 A  
HETATM    6  C   UNL     1      -8.485  17.106  67.734  1.00  0.00    -0.207 A  
HETATM    7  C   UNL     1      -8.565  18.503  67.754  1.00  0.00    -0.286 A  
ENDROOT
BRANCH   5   8
HETATM    8  C   UNL     1      -9.383  14.842  67.035  1.00  0.00    -0.245 C  
BRANCH   8   9
HETATM    9  C   UNL     1      -9.590  14.279  68.442  1.00  0.00    -0.221 C  
BRANCH   9  10
HETATM   10  C   UNL     1     -11.064  14.030  68.829  1.00  0.00    -0.264 C  
BRANCH  10  11
HETATM   11  S   UNL     1     -11.979  13.274  67.421  1.00  0.00    -0.290 SA 
BRANCH  11  12
HETATM   12  C   UNL     1     -11.133  11.843  66.705  1.00  0.00    -0.310 A  
HETATM   13 CL   UNL     1     -10.468  12.791  64.136  1.00  0.00    -0.425 Cl 
HETATM   14  C   UNL     1      -9.799   9.408  65.988  1.00  0.00    -0.366 A  
HETATM   15  C   UNL     1     -10.498  11.679  65.453  1.00  0.00    -0.275 A  
HETATM   16  C   UNL     1      -9.824  10.483  65.121  1.00  0.00    -0.359 A  
HETATM   17  C   UNL     1     -10.465   9.505  67.193  1.00  0.00    -0.322 A  
HETATM   18  C   UNL     1     -11.125  10.693  67.549  1.00  0.00    -0.300 A  
HETATM   19 CL   UNL     1     -11.941  10.615  69.091  1.00  0.00    -0.292 Cl 
ENDBRANCH  11  12
ENDBRANCH  10  11
BRANCH  10  20
HETATM   20  C   UNL     1     -11.884  15.126  69.547  1.00  0.00    -0.332 C  
BRANCH  20  21
HETATM   21  N   UNL     1     -12.646  14.661  70.699  1.00  0.00    -0.339 NA 
HETATM   22  C   UNL     1     -12.567  13.416  71.262  1.00  0.00    -0.322 A  
HETATM   23  N   UNL     1     -13.390  13.297  72.277  1.00  0.00    -0.526 NA 
HETATM   24  C   UNL     1     -13.637  15.343  71.347  1.00  0.00    -0.518 A  
HETATM   25  C   UNL     1     -14.060  14.492  72.342  1.00  0.00    -0.448 A  
ENDBRANCH  20  21
ENDBRANCH  10  20
ENDBRANCH   9  10
ENDBRANCH   8   9
ENDBRANCH   5   8
TORSDOF 7
ENDMDL
MODEL       55
REMARK 921   NORMALIZED FREE ENERGY PREDICTED BY IDOCK:   -6.13 KCAL/MOL
REMARK 922        TOTAL FREE ENERGY PREDICTED BY IDOCK:   -9.52 KCAL/MOL
REMARK 923 INTER-LIGAND FREE ENERGY PREDICTED BY IDOCK:   -8.50 KCAL/MOL
REMARK 924 INTRA-LIGAND FREE ENERGY PREDICTED BY IDOCK:   -1.02 KCAL/MOL
REMARK 927      BINDING AFFINITY PREDICTED BY RF-SCORE:    0.00 PKD
ROOT
HETATM    1 CL   UNL     1     -13.941  15.373  72.314  1.00  0.00    -0.618 Cl 
HETATM    2  C   UNL     1     -13.239  13.995  71.560  1.00  0.00    -0.359 A  
HETATM    3  C   UNL     1     -12.476  14.154  70.407  1.00  0.00    -0.424 A  
HETATM    4  C   UNL     1     -11.942  13.030  69.774  1.00  0.00    -0.377 A  
HETATM    5  C   UNL     1     -12.156  11.740  70.288  1.00  0.00    -0.426 A  
HETATM    6  C   UNL     1     -12.909  11.601  71.461  1.00  0.00    -0.469 A  
HETATM    7  C   UNL     1     -13.450  12.726  72.093  1.00  0.00    -0.591 A  
ENDROOT
BRANCH   5   8
HETATM    8  C   UNL     1     -11.651  10.524  69.542  1.00  0.00    -0.332 C  
BRANCH   8   9
HETATM    9  C   UNL     1     -11.524  10.746  68.034  1.00  0.00    -0.333 C  
BRANCH   9  10
HETATM   10  C   UNL     1     -10.497   9.834  67.328  1.00  0.00    -0.261 C  
BRANCH  10  11
HETATM   11  S   UNL     1     -10.025  10.541  65.695  1.00  0.00    -0.278 SA 
BRANCH  11  12
HETATM   12  C   UNL     1     -10.671  12.211  65.425  1.00  0.00    -0.284 A  
HETATM   13 CL   UNL     1     -12.602  11.766  63.422  1.00  0.00    -0.612 Cl 
HETATM   14  C   UNL     1     -11.465  14.965  65.368  1.00  0.00    -0.320 A  
HETATM   15  C   UNL     1     -11.709  12.673  64.585  1.00  0.00    -0.357 A  
HETATM   16  C   UNL     1     -12.107  14.028  64.584  1.00  0.00    -0.462 A  
HETATM   17  C   UNL     1     -10.401  14.566  66.153  1.00  0.00    -0.305 A  
HETATM   18  C   UNL     1     -10.004  13.219  66.182  1.00  0.00    -0.293 A  
HETATM   19 CL   UNL     1      -8.619  12.912  67.200  1.00  0.00    -0.202 Cl 
ENDBRANCH  11  12
ENDBRANCH  10  11
BRANCH  10  20
HETATM   20  C   UNL     1     -10.714   8.304  67.270  1.00  0.00    -0.171 C  
BRANCH  20  21
HETATM   21  N   UNL     1     -10.345   7.590  68.486  1.00  0.00    -0.197 NA 
HETATM   22  C   UNL     1     -11.047   6.563  69.055  1.00  0.00    -0.310 A  
HETATM   23  N   UNL     1     -10.467   6.138  70.153  1.00  0.00    -0.212 NA 
HETATM   24  C   UNL     1      -9.302   7.886  69.317  1.00  0.00    -0.148 A  
HETATM   25  C   UNL     1      -9.377   6.952  70.324  1.00  0.00    -0.162 A  
ENDBRANCH  20  21
ENDBRANCH  10  20
ENDBRANCH   9  10
ENDBRANCH   8   9
ENDBRANCH   5   8
TORSDOF 7
ENDMDL
MODEL       56
REMARK 921   NORMALIZED FREE ENERGY PREDICTED BY IDOCK:   -6.12 KCAL/MOL
REMARK 922        TOTAL FREE ENERGY PREDICTED BY IDOCK:   -9.51 KCAL/MOL
REMARK 923 INTER-LIGAND FREE ENERGY PREDICTED BY IDOCK:   -8.30 KCAL/MOL
REMARK 924 INTRA-LIGAND FREE ENERGY PREDICTED BY IDOCK:   -1.21 KCAL/MOL
REMARK 927      BINDING AFFINITY PREDICTED BY RF-SCORE:    0.00 PKD
ROOT
HETATM    1 CL   UNL     1     -14.144  13.228  72.442  1.00  0.00    -0.573 Cl 
HETATM    2  C   UNL     1     -12.978  14.114  71.538  1.00  0.00    -0.344 A  
HETATM    3  C   UNL     1     -12.667  15.419  71.906  1.00  0.00    -0.462 A  
HETATM    4  C   UNL     1     -11.752  16.151  71.147  1.00  0.00    -0.454 A  
HETATM    5  C   UNL     1     -11.133  15.585  70.020  1.00  0.00    -0.326 A  
HETATM    6  C   UNL     1     -11.443  14.263  69.675  1.00  0.00    -0.334 A  
HETATM    7  C   UNL     1     -12.364  13.531  70.432  1.00  0.00    -0.397 A  
ENDROOT
BRANCH   5   8
HETATM    8  C   UNL     1     -10.215  16.418  69.151  1.00  0.00    -0.280 C  
BRANCH   8   9
HETATM    9  C   UNL     1      -9.188  15.585  68.381  1.00  0.00    -0.191 C  
BRANCH   9  10
HETATM   10  C   UNL     1      -9.314  15.661  66.844  1.00  0.00    -0.234 C  
BRANCH  10  11
HETATM   11  S   UNL     1      -8.190  16.956  66.171  1.00  0.00    -0.164 SA 
BRANCH  11  12
HETATM   12  C   UNL     1      -7.627  18.135  67.424  1.00  0.00    -0.213 A  
HETATM   13 CL   UNL     1      -9.557  20.176  67.206  1.00  0.00    -0.526 Cl 
HETATM   14  C   UNL     1      -6.456  19.675  69.540  1.00  0.00    -0.374 A  
HETATM   15  C   UNL     1      -8.191  19.355  67.862  1.00  0.00    -0.306 A  
HETATM   16  C   UNL     1      -7.619  20.092  68.922  1.00  0.00    -0.107 A  
HETATM   17  C   UNL     1      -5.837  18.523  69.096  1.00  0.00    -0.230 A  
HETATM   18  C   UNL     1      -6.402  17.767  68.057  1.00  0.00    -0.176 A  
HETATM   19 CL   UNL     1      -5.459  16.368  67.606  1.00  0.00    -0.150 Cl 
ENDBRANCH  11  12
ENDBRANCH  10  11
BRANCH  10  20
HETATM   20  C   UNL     1     -10.704  15.675  66.168  1.00  0.00    -0.303 C  
BRANCH  20  21
HETATM   21  N   UNL     1     -11.231  14.359  65.831  1.00  0.00    -0.318 NA 
HETATM   22  C   UNL     1     -12.527  14.077  65.495  1.00  0.00    -0.509 A  
HETATM   23  N   UNL     1     -12.694  12.797  65.262  1.00  0.00    -0.691 NA 
HETATM   24  C   UNL     1     -10.556  13.173  65.893  1.00  0.00    -0.280 A  
HETATM   25  C   UNL     1     -11.472  12.223  65.503  1.00  0.00    -0.361 A  
ENDBRANCH  20  21
ENDBRANCH  10  20
ENDBRANCH   9  10
ENDBRANCH   8   9
ENDBRANCH   5   8
TORSDOF 7
ENDMDL
MODEL       57
REMARK 921   NORMALIZED FREE ENERGY PREDICTED BY IDOCK:   -6.12 KCAL/MOL
REMARK 922        TOTAL FREE ENERGY PREDICTED BY IDOCK:   -9.50 KCAL/MOL
REMARK 923 INTER-LIGAND FREE ENERGY PREDICTED BY IDOCK:   -8.59 KCAL/MOL
REMARK 924 INTRA-LIGAND FREE ENERGY PREDICTED BY IDOCK:   -0.91 KCAL/MOL
REMARK 927      BINDING AFFINITY PREDICTED BY RF-SCORE:    0.00 PKD
ROOT
HETATM    1 CL   UNL     1     -13.869  15.652  72.658  1.00  0.00    -0.659 Cl 
HETATM    2  C   UNL     1     -13.267  14.307  71.770  1.00  0.00    -0.367 A  
HETATM    3  C   UNL     1     -13.533  13.015  72.211  1.00  0.00    -0.645 A  
HETATM    4  C   UNL     1     -13.010  11.925  71.512  1.00  0.00    -0.427 A  
HETATM    5  C   UNL     1     -12.224  12.115  70.363  1.00  0.00    -0.378 A  
HETATM    6  C   UNL     1     -11.983  13.422  69.921  1.00  0.00    -0.408 A  
HETATM    7  C   UNL     1     -12.502  14.514  70.625  1.00  0.00    -0.409 A  
ENDROOT
BRANCH   5   8
HETATM    8  C   UNL     1     -11.585  10.931  69.668  1.00  0.00    -0.394 C  
BRANCH   8   9
HETATM    9  C   UNL     1     -10.337  11.301  68.864  1.00  0.00    -0.214 C  
BRANCH   9  10
HETATM   10  C   UNL     1     -10.581  11.525  67.356  1.00  0.00    -0.214 C  
BRANCH  10  11
HETATM   11  S   UNL     1     -10.226   9.984  66.412  1.00  0.00    -0.194 SA 
BRANCH  11  12
HETATM   12  C   UNL     1      -9.456  10.293  64.803  1.00  0.00    -0.283 A  
HETATM   13 CL   UNL     1     -11.602  11.376  63.333  1.00  0.00    -0.259 Cl 
HETATM   14  C   UNL     1      -7.848  10.696  62.464  1.00  0.00    -0.173 A  
HETATM   15  C   UNL     1      -9.977  10.885  63.630  1.00  0.00    -0.359 A  
HETATM   16  C   UNL     1      -9.168  11.100  62.492  1.00  0.00    -0.317 A  
HETATM   17  C   UNL     1      -7.321  10.053  63.566  1.00  0.00    -0.138 A  
HETATM   18  C   UNL     1      -8.104   9.848  64.713  1.00  0.00    -0.151 A  
HETATM   19 CL   UNL     1      -7.280   8.985  65.988  1.00  0.00    -0.092 Cl 
ENDBRANCH  11  12
ENDBRANCH  10  11
BRANCH  10  20
HETATM   20  C   UNL     1     -10.038  12.789  66.651  1.00  0.00    -0.243 C  
BRANCH  20  21
HETATM   21  N   UNL     1     -11.031  13.538  65.891  1.00  0.00    -0.278 NA 
HETATM   22  C   UNL     1     -12.384  13.336  65.925  1.00  0.00    -0.418 A  
HETATM   23  N   UNL     1     -13.011  14.158  65.117  1.00  0.00    -0.735 NA 
HETATM   24  C   UNL     1     -10.781  14.489  64.944  1.00  0.00    -0.429 A  
HETATM   25  C   UNL     1     -12.022  14.885  64.502  1.00  0.00    -0.410 A  
ENDBRANCH  20  21
ENDBRANCH  10  20
ENDBRANCH   9  10
ENDBRANCH   8   9
ENDBRANCH   5   8
TORSDOF 7
ENDMDL
MODEL       58
REMARK 921   NORMALIZED FREE ENERGY PREDICTED BY IDOCK:   -6.10 KCAL/MOL
REMARK 922        TOTAL FREE ENERGY PREDICTED BY IDOCK:   -9.48 KCAL/MOL
REMARK 923 INTER-LIGAND FREE ENERGY PREDICTED BY IDOCK:   -8.14 KCAL/MOL
REMARK 924 INTRA-LIGAND FREE ENERGY PREDICTED BY IDOCK:   -1.35 KCAL/MOL
REMARK 927      BINDING AFFINITY PREDICTED BY RF-SCORE:    0.00 PKD
ROOT
HETATM    1 CL   UNL     1     -13.548  12.678  72.399  1.00  0.00    -0.580 Cl 
HETATM    2  C   UNL     1     -12.756  13.907  71.492  1.00  0.00    -0.357 A  
HETATM    3  C   UNL     1     -12.353  13.649  70.185  1.00  0.00    -0.372 A  
HETATM    4  C   UNL     1     -11.674  14.633  69.465  1.00  0.00    -0.366 A  
HETATM    5  C   UNL     1     -11.399  15.886  70.038  1.00  0.00    -0.358 A  
HETATM    6  C   UNL     1     -11.830  16.137  71.346  1.00  0.00    -0.490 A  
HETATM    7  C   UNL     1     -12.505  15.148  72.071  1.00  0.00    -0.414 A  
ENDROOT
BRANCH   5   8
HETATM    8  C   UNL     1     -10.581  16.912  69.281  1.00  0.00    -0.325 C  
BRANCH   8   9
HETATM    9  C   UNL     1      -9.762  16.311  68.137  1.00  0.00    -0.227 C  
BRANCH   9  10
HETATM   10  C   UNL     1     -10.377  16.495  66.733  1.00  0.00    -0.296 C  
BRANCH  10  11
HETATM   11  S   UNL     1     -10.021  15.027  65.679  1.00  0.00    -0.350 SA 
BRANCH  11  12
HETATM   12  C   UNL     1      -9.970  13.475  66.609  1.00  0.00    -0.282 A  
HETATM   13 CL   UNL     1      -7.311  13.445  67.539  1.00  0.00    -0.170 Cl 
HETATM   14  C   UNL     1     -10.337  11.012  68.032  1.00  0.00    -0.209 A  
HETATM   15  C   UNL     1      -8.935  12.893  67.376  1.00  0.00    -0.199 A  
HETATM   16  C   UNL     1      -9.136  11.692  68.092  1.00  0.00    -0.183 A  
HETATM   17  C   UNL     1     -11.351  11.513  67.240  1.00  0.00    -0.359 A  
HETATM   18  C   UNL     1     -11.176  12.716  66.536  1.00  0.00    -0.296 A  
HETATM   19 CL   UNL     1     -12.551  13.170  65.559  1.00  0.00    -0.518 Cl 
ENDBRANCH  11  12
ENDBRANCH  10  11
BRANCH  10  20
HETATM   20  C   UNL     1     -10.207  17.827  65.969  1.00  0.00    -0.293 C  
BRANCH  20  21
HETATM   21  N   UNL     1      -9.137  18.683  66.465  1.00  0.00    -0.313 NA 
HETATM   22  C   UNL     1      -9.299  19.907  67.056  1.00  0.00    -0.370 A  
HETATM   23  N   UNL     1      -8.144  20.438  67.380  1.00  0.00    -0.331 NA 
HETATM   24  C   UNL     1      -7.795  18.463  66.336  1.00  0.00    -0.263 A  
HETATM   25  C   UNL     1      -7.199  19.546  66.940  1.00  0.00    -0.214 A  
ENDBRANCH  20  21
ENDBRANCH  10  20
ENDBRANCH   9  10
ENDBRANCH   8   9
ENDBRANCH   5   8
TORSDOF 7
ENDMDL
MODEL       59
REMARK 921   NORMALIZED FREE ENERGY PREDICTED BY IDOCK:   -6.10 KCAL/MOL
REMARK 922        TOTAL FREE ENERGY PREDICTED BY IDOCK:   -9.47 KCAL/MOL
REMARK 923 INTER-LIGAND FREE ENERGY PREDICTED BY IDOCK:   -8.38 KCAL/MOL
REMARK 924 INTRA-LIGAND FREE ENERGY PREDICTED BY IDOCK:   -1.10 KCAL/MOL
REMARK 927      BINDING AFFINITY PREDICTED BY RF-SCORE:    0.00 PKD
ROOT
HETATM    1 CL   UNL     1     -14.407  15.762  72.433  1.00  0.00    -0.504 Cl 
HETATM    2  C   UNL     1     -13.586  14.372  71.837  1.00  0.00    -0.403 A  
HETATM    3  C   UNL     1     -12.756  14.486  70.726  1.00  0.00    -0.425 A  
HETATM    4  C   UNL     1     -12.122  13.350  70.219  1.00  0.00    -0.419 A  
HETATM    5  C   UNL     1     -12.305  12.093  70.819  1.00  0.00    -0.391 A  
HETATM    6  C   UNL     1     -13.127  12.000  71.949  1.00  0.00    -0.475 A  
HETATM    7  C   UNL     1     -13.767  13.137  72.454  1.00  0.00    -0.640 A  
ENDROOT
BRANCH   5   8
HETATM    8  C   UNL     1     -11.688  10.854  70.205  1.00  0.00    -0.437 C  
BRANCH   8   9
HETATM    9  C   UNL     1     -11.908  10.751  68.695  1.00  0.00    -0.208 C  
BRANCH   9  10
HETATM   10  C   UNL     1     -10.614  10.659  67.856  1.00  0.00    -0.228 C  
BRANCH  10  11
HETATM   11  S   UNL     1      -9.310   9.751  68.787  1.00  0.00    -0.156 SA 
BRANCH  11  12
HETATM   12  C   UNL     1      -9.807   8.078  69.266  1.00  0.00    -0.178 A  
HETATM   13 CL   UNL     1     -11.099   7.168  66.933  1.00  0.00    -0.268 Cl 
HETATM   14  C   UNL     1     -10.330   5.489  70.383  1.00  0.00    -0.346 A  
HETATM   15  C   UNL     1     -10.449   7.059  68.526  1.00  0.00    -0.200 A  
HETATM   16  C   UNL     1     -10.680   5.781  69.079  1.00  0.00    -0.354 A  
HETATM   17  C   UNL     1      -9.761   6.479  71.161  1.00  0.00    -0.188 A  
HETATM   18  C   UNL     1      -9.506   7.750  70.621  1.00  0.00    -0.162 A  
HETATM   19 CL   UNL     1      -8.820   8.879  71.764  1.00  0.00    -0.243 Cl 
ENDBRANCH  11  12
ENDBRANCH  10  11
BRANCH  10  20
HETATM   20  C   UNL     1     -10.062  11.903  67.124  1.00  0.00    -0.204 C  
BRANCH  20  21
HETATM   21  N   UNL     1     -11.056  12.661  66.376  1.00  0.00    -0.276 NA 
HETATM   22  C   UNL     1     -11.814  12.186  65.341  1.00  0.00    -0.295 A  
HETATM   23  N   UNL     1     -12.607  13.115  64.862  1.00  0.00    -0.637 NA 
HETATM   24  C   UNL     1     -11.327  13.994  66.506  1.00  0.00    -0.336 A  
HETATM   25  C   UNL     1     -12.315  14.245  65.582  1.00  0.00    -0.405 A  
ENDBRANCH  20  21
ENDBRANCH  10  20
ENDBRANCH   9  10
ENDBRANCH   8   9
ENDBRANCH   5   8
TORSDOF 7
ENDMDL
MODEL       60
REMARK 921   NORMALIZED FREE ENERGY PREDICTED BY IDOCK:   -6.09 KCAL/MOL
REMARK 922        TOTAL FREE ENERGY PREDICTED BY IDOCK:   -9.46 KCAL/MOL
REMARK 923 INTER-LIGAND FREE ENERGY PREDICTED BY IDOCK:   -8.56 KCAL/MOL
REMARK 924 INTRA-LIGAND FREE ENERGY PREDICTED BY IDOCK:   -0.90 KCAL/MOL
REMARK 927      BINDING AFFINITY PREDICTED BY RF-SCORE:    0.00 PKD
ROOT
HETATM    1 CL   UNL     1     -12.974  11.819  63.484  1.00  0.00    -0.440 Cl 
HETATM    2  C   UNL     1     -11.728  12.627  64.353  1.00  0.00    -0.369 A  
HETATM    3  C   UNL     1     -10.720  11.884  64.961  1.00  0.00    -0.341 A  
HETATM    4  C   UNL     1      -9.732  12.538  65.700  1.00  0.00    -0.169 A  
HETATM    5  C   UNL     1      -9.736  13.937  65.832  1.00  0.00    -0.237 A  
HETATM    6  C   UNL     1     -10.746  14.670  65.196  1.00  0.00    -0.430 A  
HETATM    7  C   UNL     1     -11.740  14.015  64.460  1.00  0.00    -0.428 A  
ENDROOT
BRANCH   5   8
HETATM    8  C   UNL     1      -8.715  14.626  66.712  1.00  0.00    -0.233 C  
BRANCH   8   9
HETATM    9  C   UNL     1      -8.893  14.322  68.201  1.00  0.00    -0.183 C  
BRANCH   9  10
HETATM   10  C   UNL     1      -9.390  15.512  69.050  1.00  0.00    -0.235 C  
BRANCH  10  11
HETATM   11  S   UNL     1     -11.230  15.582  69.042  1.00  0.00    -0.328 SA 
BRANCH  11  12
HETATM   12  C   UNL     1     -11.989  14.621  70.375  1.00  0.00    -0.311 A  
HETATM   13 CL   UNL     1     -12.122  16.519  72.452  1.00  0.00    -0.466 Cl 
HETATM   14  C   UNL     1     -13.269  12.788  72.170  1.00  0.00    -0.546 A  
HETATM   15  C   UNL     1     -12.385  15.003  71.677  1.00  0.00    -0.342 A  
HETATM   16  C   UNL     1     -13.037  14.098  72.543  1.00  0.00    -0.554 A  
HETATM   17  C   UNL     1     -12.836  12.358  70.932  1.00  0.00    -0.176 A  
HETATM   18  C   UNL     1     -12.204  13.249  70.049  1.00  0.00    -0.275 A  
HETATM   19 CL   UNL     1     -11.693  12.515  68.549  1.00  0.00    -0.351 Cl 
ENDBRANCH  11  12
ENDBRANCH  10  11
BRANCH  10  20
HETATM   20  C   UNL     1      -8.744  16.908  68.902  1.00  0.00    -0.212 C  
BRANCH  20  21
HETATM   21  N   UNL     1      -9.460  17.821  68.020  1.00  0.00    -0.273 NA 
HETATM   22  C   UNL     1      -9.526  17.730  66.656  1.00  0.00    -0.292 A  
HETATM   23  N   UNL     1     -10.232  18.709  66.145  1.00  0.00    -0.475 NA 
HETATM   24  C   UNL     1     -10.096  18.973  68.386  1.00  0.00    -0.403 A  
HETATM   25  C   UNL     1     -10.597  19.489  67.213  1.00  0.00    -0.490 A  
ENDBRANCH  20  21
ENDBRANCH  10  20
ENDBRANCH   9  10
ENDBRANCH   8   9
ENDBRANCH   5   8
TORSDOF 7
ENDMDL
MODEL       61
REMARK 921   NORMALIZED FREE ENERGY PREDICTED BY IDOCK:   -6.08 KCAL/MOL
REMARK 922        TOTAL FREE ENERGY PREDICTED BY IDOCK:   -9.45 KCAL/MOL
REMARK 923 INTER-LIGAND FREE ENERGY PREDICTED BY IDOCK:   -7.90 KCAL/MOL
REMARK 924 INTRA-LIGAND FREE ENERGY PREDICTED BY IDOCK:   -1.55 KCAL/MOL
REMARK 927      BINDING AFFINITY PREDICTED BY RF-SCORE:    0.00 PKD
ROOT
HETATM    1 CL   UNL     1     -13.479   9.727  72.177  1.00  0.00    -0.518 Cl 
HETATM    2  C   UNL     1     -13.061  11.298  71.615  1.00  0.00    -0.408 A  
HETATM    3  C   UNL     1     -13.652  12.417  72.193  1.00  0.00    -0.405 A  
HETATM    4  C   UNL     1     -13.343  13.689  71.708  1.00  0.00    -0.469 A  
HETATM    5  C   UNL     1     -12.436  13.857  70.649  1.00  0.00    -0.436 A  
HETATM    6  C   UNL     1     -11.834  12.722  70.092  1.00  0.00    -0.326 A  
HETATM    7  C   UNL     1     -12.148  11.446  70.574  1.00  0.00    -0.487 A  
ENDROOT
BRANCH   5   8
HETATM    8  C   UNL     1     -12.179  15.233  70.070  1.00  0.00    -0.385 C  
BRANCH   8   9
HETATM    9  C   UNL     1     -10.695  15.597  70.005  1.00  0.00    -0.345 C  
BRANCH   9  10
HETATM   10  C   UNL     1     -10.314  16.563  68.862  1.00  0.00    -0.292 C  
BRANCH  10  11
HETATM   11  S   UNL     1      -9.026  15.806  67.785  1.00  0.00    -0.176 SA 
BRANCH  11  12
HETATM   12  C   UNL     1      -9.167  14.006  67.658  1.00  0.00    -0.194 A  
HETATM   13 CL   UNL     1      -6.883  13.147  69.067  1.00  0.00    -0.104 Cl 
HETATM   14  C   UNL     1      -9.804  11.234  67.299  1.00  0.00    -0.203 A  
HETATM   15  C   UNL     1      -8.366  12.978  68.205  1.00  0.00    -0.164 A  
HETATM   16  C   UNL     1      -8.704  11.617  68.041  1.00  0.00    -0.157 A  
HETATM   17  C   UNL     1     -10.574  12.207  66.693  1.00  0.00    -0.266 A  
HETATM   18  C   UNL     1     -10.265  13.566  66.860  1.00  0.00    -0.256 A  
HETATM   19 CL   UNL     1     -11.325  14.646  65.989  1.00  0.00    -0.343 Cl 
ENDBRANCH  11  12
ENDBRANCH  10  11
BRANCH  10  20
HETATM   20  C   UNL     1     -10.041  18.056  69.153  1.00  0.00    -0.196 C  
BRANCH  20  21
HETATM   21  N   UNL     1      -9.901  18.892  67.968  1.00  0.00    -0.334 NA 
HETATM   22  C   UNL     1     -10.857  19.087  67.008  1.00  0.00    -0.352 A  
HETATM   23  N   UNL     1     -10.425  19.881  66.057  1.00  0.00    -0.495 NA 
HETATM   24  C   UNL     1      -8.769  19.538  67.558  1.00  0.00    -0.307 A  
HETATM   25  C   UNL     1      -9.127  20.172  66.390  1.00  0.00    -0.282 A  
ENDBRANCH  20  21
ENDBRANCH  10  20
ENDBRANCH   9  10
ENDBRANCH   8   9
ENDBRANCH   5   8
TORSDOF 7
ENDMDL
MODEL       62
REMARK 921   NORMALIZED FREE ENERGY PREDICTED BY IDOCK:   -6.07 KCAL/MOL
REMARK 922        TOTAL FREE ENERGY PREDICTED BY IDOCK:   -9.43 KCAL/MOL
REMARK 923 INTER-LIGAND FREE ENERGY PREDICTED BY IDOCK:   -8.83 KCAL/MOL
REMARK 924 INTRA-LIGAND FREE ENERGY PREDICTED BY IDOCK:   -0.60 KCAL/MOL
REMARK 927      BINDING AFFINITY PREDICTED BY RF-SCORE:    0.00 PKD
ROOT
HETATM    1 CL   UNL     1     -10.825   7.152  73.428  1.00  0.00    -0.389 Cl 
HETATM    2  C   UNL     1     -11.166   8.376  72.267  1.00  0.00    -0.376 A  
HETATM    3  C   UNL     1     -12.446   8.916  72.191  1.00  0.00    -0.459 A  
HETATM    4  C   UNL     1     -12.731   9.879  71.221  1.00  0.00    -0.482 A  
HETATM    5  C   UNL     1     -11.741  10.317  70.325  1.00  0.00    -0.388 A  
HETATM    6  C   UNL     1     -10.453   9.777  70.429  1.00  0.00    -0.358 A  
HETATM    7  C   UNL     1     -10.168   8.808  71.397  1.00  0.00    -0.350 A  
ENDROOT
BRANCH   5   8
HETATM    8  C   UNL     1     -12.086  11.292  69.219  1.00  0.00    -0.372 C  
BRANCH   8   9
HETATM    9  C   UNL     1     -10.900  11.624  68.311  1.00  0.00    -0.260 C  
BRANCH   9  10
HETATM   10  C   UNL     1     -11.181  12.709  67.249  1.00  0.00    -0.298 C  
BRANCH  10  11
HETATM   11  S   UNL     1     -11.945  14.191  68.033  1.00  0.00    -0.282 SA 
BRANCH  11  12
HETATM   12  C   UNL     1     -11.030  15.720  67.712  1.00  0.00    -0.314 A  
HETATM   13 CL   UNL     1     -10.356  15.431  64.992  1.00  0.00    -0.405 Cl 
HETATM   14  C   UNL     1      -9.732  18.275  67.608  1.00  0.00    -0.306 A  
HETATM   15  C   UNL     1     -10.465  16.224  66.519  1.00  0.00    -0.290 A  
HETATM   16  C   UNL     1      -9.850  17.494  66.474  1.00  0.00    -0.315 A  
HETATM   17  C   UNL     1     -10.212  17.789  68.808  1.00  0.00    -0.373 A  
HETATM   18  C   UNL     1     -10.844  16.536  68.867  1.00  0.00    -0.336 A  
HETATM   19 CL   UNL     1     -11.349  16.074  70.474  1.00  0.00    -0.393 Cl 
ENDBRANCH  11  12
ENDBRANCH  10  11
BRANCH  10  20
HETATM   20  C   UNL     1     -11.849  12.340  65.905  1.00  0.00    -0.354 C  
BRANCH  20  21
HETATM   21  N   UNL     1     -10.963  11.709  64.937  1.00  0.00    -0.300 NA 
HETATM   22  C   UNL     1     -10.158  10.627  65.173  1.00  0.00    -0.307 A  
HETATM   23  N   UNL     1      -9.466  10.303  64.107  1.00  0.00    -0.282 NA 
HETATM   24  C   UNL     1     -10.703  12.144  63.668  1.00  0.00    -0.467 A  
HETATM   25  C   UNL     1      -9.800  11.238  63.161  1.00  0.00    -0.375 A  
ENDBRANCH  20  21
ENDBRANCH  10  20
ENDBRANCH   9  10
ENDBRANCH   8   9
ENDBRANCH   5   8
TORSDOF 7
ENDMDL
MODEL       63
REMARK 921   NORMALIZED FREE ENERGY PREDICTED BY IDOCK:   -6.04 KCAL/MOL
REMARK 922        TOTAL FREE ENERGY PREDICTED BY IDOCK:   -9.39 KCAL/MOL
REMARK 923 INTER-LIGAND FREE ENERGY PREDICTED BY IDOCK:   -7.99 KCAL/MOL
REMARK 924 INTRA-LIGAND FREE ENERGY PREDICTED BY IDOCK:   -1.40 KCAL/MOL
REMARK 927      BINDING AFFINITY PREDICTED BY RF-SCORE:    0.00 PKD
ROOT
HETATM    1 CL   UNL     1     -10.350   8.592  67.217  1.00  0.00    -0.348 Cl 
HETATM    2  C   UNL     1     -10.358  10.291  67.483  1.00  0.00    -0.229 A  
HETATM    3  C   UNL     1      -9.167  11.007  67.405  1.00  0.00    -0.157 A  
HETATM    4  C   UNL     1      -9.169  12.379  67.662  1.00  0.00    -0.185 A  
HETATM    5  C   UNL     1     -10.358  13.051  67.991  1.00  0.00    -0.237 A  
HETATM    6  C   UNL     1     -11.551  12.319  68.045  1.00  0.00    -0.408 A  
HETATM    7  C   UNL     1     -11.549  10.943  67.794  1.00  0.00    -0.231 A  
ENDROOT
BRANCH   5   8
HETATM    8  C   UNL     1     -10.332  14.520  68.359  1.00  0.00    -0.241 C  
BRANCH   8   9
HETATM    9  C   UNL     1     -11.218  15.386  67.461  1.00  0.00    -0.302 C  
BRANCH   9  10
HETATM   10  C   UNL     1     -10.535  15.891  66.172  1.00  0.00    -0.326 C  
BRANCH  10  11
HETATM   11  S   UNL     1     -10.062  17.663  66.348  1.00  0.00    -0.353 SA 
BRANCH  11  12
HETATM   12  C   UNL     1      -8.651  17.919  67.452  1.00  0.00    -0.239 A  
HETATM   13 CL   UNL     1      -7.186  15.542  67.080  1.00  0.00    -0.195 Cl 
HETATM   14  C   UNL     1      -6.562  18.749  69.233  1.00  0.00    -0.298 A  
HETATM   15  C   UNL     1      -7.509  17.121  67.690  1.00  0.00    -0.169 A  
HETATM   16  C   UNL     1      -6.476  17.552  68.551  1.00  0.00    -0.186 A  
HETATM   17  C   UNL     1      -7.693  19.527  69.079  1.00  0.00    -0.332 A  
HETATM   18  C   UNL     1      -8.722  19.124  68.213  1.00  0.00    -0.338 A  
HETATM   19 CL   UNL     1     -10.086  20.215  68.178  1.00  0.00    -0.537 Cl 
ENDBRANCH  11  12
ENDBRANCH  10  11
BRANCH  10  20
HETATM   20  C   UNL     1     -11.141  15.576  64.785  1.00  0.00    -0.407 C  
BRANCH  20  21
HETATM   21  N   UNL     1     -11.663  14.223  64.641  1.00  0.00    -0.410 NA 
HETATM   22  C   UNL     1     -12.911  13.802  65.014  1.00  0.00    -0.272 A  
HETATM   23  N   UNL     1     -13.076  12.524  64.771  1.00  0.00    -0.814 NA 
HETATM   24  C   UNL     1     -10.971  13.127  64.211  1.00  0.00    -0.403 A  
HETATM   25  C   UNL     1     -11.876  12.093  64.266  1.00  0.00    -0.378 A  
ENDBRANCH  20  21
ENDBRANCH  10  20
ENDBRANCH   9  10
ENDBRANCH   8   9
ENDBRANCH   5   8
TORSDOF 7
ENDMDL
MODEL       64
REMARK 921   NORMALIZED FREE ENERGY PREDICTED BY IDOCK:   -6.03 KCAL/MOL
REMARK 922        TOTAL FREE ENERGY PREDICTED BY IDOCK:   -9.37 KCAL/MOL
REMARK 923 INTER-LIGAND FREE ENERGY PREDICTED BY IDOCK:   -8.26 KCAL/MOL
REMARK 924 INTRA-LIGAND FREE ENERGY PREDICTED BY IDOCK:   -1.11 KCAL/MOL
REMARK 927      BINDING AFFINITY PREDICTED BY RF-SCORE:    0.00 PKD
ROOT
HETATM    1 CL   UNL     1      -8.693   9.202  63.575  1.00  0.00    -0.188 Cl 
HETATM    2  C   UNL     1      -9.716  10.473  64.120  1.00  0.00    -0.327 A  
HETATM    3  C   UNL     1     -10.264  11.360  63.197  1.00  0.00    -0.380 A  
HETATM    4  C   UNL     1     -11.061  12.415  63.645  1.00  0.00    -0.535 A  
HETATM    5  C   UNL     1     -11.325  12.591  65.013  1.00  0.00    -0.353 A  
HETATM    6  C   UNL     1     -10.782  11.678  65.926  1.00  0.00    -0.328 A  
HETATM    7  C   UNL     1      -9.979  10.623  65.479  1.00  0.00    -0.333 A  
ENDROOT
BRANCH   5   8
HETATM    8  C   UNL     1     -12.112  13.792  65.494  1.00  0.00    -0.434 C  
BRANCH   8   9
HETATM    9  C   UNL     1     -12.160  13.916  67.018  1.00  0.00    -0.451 C  
BRANCH   9  10
HETATM   10  C   UNL     1     -11.152  14.919  67.619  1.00  0.00    -0.311 C  
BRANCH  10  11
HETATM   11  S   UNL     1     -10.419  14.244  69.168  1.00  0.00    -0.099 SA 
BRANCH  11  12
HETATM   12  C   UNL     1     -11.647  13.518  70.282  1.00  0.00    -0.066 A  
HETATM   13 CL   UNL     1     -11.908  10.914  69.236  1.00  0.00    -0.386 Cl 
HETATM   14  C   UNL     1     -13.527  12.733  72.300  1.00  0.00    -0.591 A  
HETATM   15  C   UNL     1     -12.179  12.209  70.340  1.00  0.00    -0.294 A  
HETATM   16  C   UNL     1     -13.086  11.829  71.354  1.00  0.00    -0.322 A  
HETATM   17  C   UNL     1     -13.082  14.039  72.236  1.00  0.00    -0.516 A  
HETATM   18  C   UNL     1     -12.165  14.431  71.247  1.00  0.00    -0.357 A  
HETATM   19 CL   UNL     1     -11.748  16.126  71.301  1.00  0.00    -0.490 Cl 
ENDBRANCH  11  12
ENDBRANCH  10  11
BRANCH  10  20
HETATM   20  C   UNL     1     -11.511  16.418  67.739  1.00  0.00     0.068 C  
BRANCH  20  21
HETATM   21  N   UNL     1     -10.424  17.333  67.418  1.00  0.00    -0.347 NA 
HETATM   22  C   UNL     1      -9.520  17.846  68.309  1.00  0.00    -0.300 A  
HETATM   23  N   UNL     1      -8.672  18.654  67.718  1.00  0.00    -0.276 NA 
HETATM   24  C   UNL     1     -10.182  17.915  66.206  1.00  0.00    -0.363 A  
HETATM   25  C   UNL     1      -9.071  18.702  66.407  1.00  0.00    -0.284 A  
ENDBRANCH  20  21
ENDBRANCH  10  20
ENDBRANCH   9  10
ENDBRANCH   8   9
ENDBRANCH   5   8
TORSDOF 7
ENDMDL
MODEL       65
REMARK 921   NORMALIZED FREE ENERGY PREDICTED BY IDOCK:   -6.01 KCAL/MOL
REMARK 922        TOTAL FREE ENERGY PREDICTED BY IDOCK:   -9.36 KCAL/MOL
REMARK 923 INTER-LIGAND FREE ENERGY PREDICTED BY IDOCK:   -8.28 KCAL/MOL
REMARK 924 INTRA-LIGAND FREE ENERGY PREDICTED BY IDOCK:   -1.08 KCAL/MOL
REMARK 927      BINDING AFFINITY PREDICTED BY RF-SCORE:    0.00 PKD
ROOT
HETATM    1 CL   UNL     1     -12.686  11.595  63.085  1.00  0.00    -0.365 Cl 
HETATM    2  C   UNL     1     -11.989  12.545  64.339  1.00  0.00    -0.404 A  
HETATM    3  C   UNL     1     -10.648  12.377  64.666  1.00  0.00    -0.339 A  
HETATM    4  C   UNL     1     -10.094  13.119  65.711  1.00  0.00    -0.290 A  
HETATM    5  C   UNL     1     -10.871  14.041  66.433  1.00  0.00    -0.299 A  
HETATM    6  C   UNL     1     -12.214  14.213  66.076  1.00  0.00    -0.464 A  
HETATM    7  C   UNL     1     -12.771  13.465  65.033  1.00  0.00    -0.420 A  
ENDROOT
BRANCH   5   8
HETATM    8  C   UNL     1     -10.285  14.771  67.623  1.00  0.00    -0.232 C  
BRANCH   8   9
HETATM    9  C   UNL     1     -10.801  16.203  67.770  1.00  0.00    -0.318 C  
BRANCH   9  10
HETATM   10  C   UNL     1     -10.887  16.714  69.225  1.00  0.00    -0.310 C  
BRANCH  10  11
HETATM   11  S   UNL     1      -9.839  18.213  69.442  1.00  0.00     0.246 SA 
BRANCH  11  12
HETATM   12  C   UNL     1      -8.778  18.556  68.016  1.00  0.00    -0.295 A  
HETATM   13 CL   UNL     1     -10.504  20.038  66.354  1.00  0.00    -0.563 Cl 
HETATM   14  C   UNL     1      -6.762  18.944  66.014  1.00  0.00    -0.273 A  
HETATM   15  C   UNL     1      -9.020  19.312  66.846  1.00  0.00    -0.303 A  
HETATM   16  C   UNL     1      -8.011  19.516  65.880  1.00  0.00    -0.233 A  
HETATM   17  C   UNL     1      -6.507  18.143  67.110  1.00  0.00    -0.192 A  
HETATM   18  C   UNL     1      -7.491  17.944  68.091  1.00  0.00    -0.250 A  
HETATM   19 CL   UNL     1      -7.001  16.872  69.380  1.00  0.00    -0.213 Cl 
ENDBRANCH  11  12
ENDBRANCH  10  11
BRANCH  10  20
HETATM   20  C   UNL     1     -10.766  15.732  70.412  1.00  0.00    -0.289 C  
BRANCH  20  21
HETATM   21  N   UNL     1     -11.906  15.730  71.320  1.00  0.00    -0.397 NA 
HETATM   22  C   UNL     1     -11.890  16.142  72.625  1.00  0.00    -0.506 A  
HETATM   23  N   UNL     1     -13.069  16.004  73.185  1.00  0.00    -0.539 NA 
HETATM   24  C   UNL     1     -13.149  15.226  71.063  1.00  0.00    -0.482 A  
HETATM   25  C   UNL     1     -13.863  15.438  72.220  1.00  0.00    -0.548 A  
ENDBRANCH  20  21
ENDBRANCH  10  20
ENDBRANCH   9  10
ENDBRANCH   8   9
ENDBRANCH   5   8
TORSDOF 7
ENDMDL
MODEL       66
REMARK 921   NORMALIZED FREE ENERGY PREDICTED BY IDOCK:   -6.00 KCAL/MOL
REMARK 922        TOTAL FREE ENERGY PREDICTED BY IDOCK:   -9.34 KCAL/MOL
REMARK 923 INTER-LIGAND FREE ENERGY PREDICTED BY IDOCK:   -8.42 KCAL/MOL
REMARK 924 INTRA-LIGAND FREE ENERGY PREDICTED BY IDOCK:   -0.92 KCAL/MOL
REMARK 927      BINDING AFFINITY PREDICTED BY RF-SCORE:    0.00 PKD
ROOT
HETATM    1 CL   UNL     1     -12.770  11.691  63.207  1.00  0.00    -0.443 Cl 
HETATM    2  C   UNL     1     -11.961  12.743  64.302  1.00  0.00    -0.405 A  
HETATM    3  C   UNL     1     -10.613  13.031  64.112  1.00  0.00    -0.421 A  
HETATM    4  C   UNL     1      -9.948  13.852  65.025  1.00  0.00    -0.213 A  
HETATM    5  C   UNL     1     -10.622  14.399  66.130  1.00  0.00    -0.298 A  
HETATM    6  C   UNL     1     -11.984  14.115  66.294  1.00  0.00    -0.448 A  
HETATM    7  C   UNL     1     -12.649  13.288  65.383  1.00  0.00    -0.526 A  
ENDROOT
BRANCH   5   8
HETATM    8  C   UNL     1      -9.869  15.210  67.163  1.00  0.00    -0.228 C  
BRANCH   8   9
HETATM    9  C   UNL     1     -10.301  16.677  67.215  1.00  0.00    -0.298 C  
BRANCH   9  10
HETATM   10  C   UNL     1     -10.623  17.207  68.629  1.00  0.00    -0.352 C  
BRANCH  10  11
HETATM   11  S   UNL     1     -10.019  18.937  68.818  1.00  0.00    -0.361 SA 
BRANCH  11  12
HETATM   12  C   UNL     1      -8.483  19.261  67.917  1.00  0.00    -0.308 A  
HETATM   13 CL   UNL     1      -6.537  18.758  69.891  1.00  0.00    -0.095 Cl 
HETATM   14  C   UNL     1      -6.309  19.783  66.122  1.00  0.00    -0.197 A  
HETATM   15  C   UNL     1      -7.133  19.135  68.319  1.00  0.00    -0.273 A  
HETATM   16  C   UNL     1      -6.072  19.372  67.418  1.00  0.00    -0.199 A  
HETATM   17  C   UNL     1      -7.612  19.983  65.710  1.00  0.00    -0.284 A  
HETATM   18  C   UNL     1      -8.681  19.734  66.585  1.00  0.00    -0.354 A  
HETATM   19 CL   UNL     1     -10.251  20.079  65.902  1.00  0.00    -0.577 Cl 
ENDBRANCH  11  12
ENDBRANCH  10  11
BRANCH  10  20
HETATM   20  C   UNL     1     -10.339  16.342  69.877  1.00  0.00    -0.160 C  
BRANCH  20  21
HETATM   21  N   UNL     1     -11.522  15.965  70.640  1.00  0.00    -0.372 NA 
HETATM   22  C   UNL     1     -12.635  15.347  70.138  1.00  0.00    -0.293 A  
HETATM   23  N   UNL     1     -13.537  15.154  71.071  1.00  0.00    -0.433 NA 
HETATM   24  C   UNL     1     -11.768  16.253  71.952  1.00  0.00    -0.438 A  
HETATM   25  C   UNL     1     -13.007  15.712  72.207  1.00  0.00    -0.447 A  
ENDBRANCH  20  21
ENDBRANCH  10  20
ENDBRANCH   9  10
ENDBRANCH   8   9
ENDBRANCH   5   8
TORSDOF 7
ENDMDL
MODEL       67
REMARK 921   NORMALIZED FREE ENERGY PREDICTED BY IDOCK:   -5.99 KCAL/MOL
REMARK 922        TOTAL FREE ENERGY PREDICTED BY IDOCK:   -9.33 KCAL/MOL
REMARK 923 INTER-LIGAND FREE ENERGY PREDICTED BY IDOCK:   -7.83 KCAL/MOL
REMARK 924 INTRA-LIGAND FREE ENERGY PREDICTED BY IDOCK:   -1.50 KCAL/MOL
REMARK 927      BINDING AFFINITY PREDICTED BY RF-SCORE:    0.00 PKD
ROOT
HETATM    1 CL   UNL     1     -11.032   5.648  73.542  1.00  0.00    -0.296 Cl 
HETATM    2  C   UNL     1     -11.112   7.143  72.694  1.00  0.00    -0.292 A  
HETATM    3  C   UNL     1     -12.338   7.602  72.221  1.00  0.00    -0.227 A  
HETATM    4  C   UNL     1     -12.396   8.795  71.498  1.00  0.00    -0.380 A  
HETATM    5  C   UNL     1     -11.235   9.545  71.248  1.00  0.00    -0.452 A  
HETATM    6  C   UNL     1     -10.013   9.079  71.749  1.00  0.00    -0.359 A  
HETATM    7  C   UNL     1      -9.953   7.880  72.469  1.00  0.00    -0.312 A  
ENDROOT
BRANCH   5   8
HETATM    8  C   UNL     1     -11.295  10.787  70.384  1.00  0.00    -0.342 C  
BRANCH   8   9
HETATM    9  C   UNL     1     -11.527  10.485  68.902  1.00  0.00    -0.292 C  
BRANCH   9  10
HETATM   10  C   UNL     1     -10.302   9.910  68.159  1.00  0.00    -0.195 C  
BRANCH  10  11
HETATM   11  S   UNL     1      -9.516  11.209  67.117  1.00  0.00    -0.173 SA 
BRANCH  11  12
HETATM   12  C   UNL     1     -10.622  11.876  65.850  1.00  0.00    -0.266 A  
HETATM   13 CL   UNL     1     -12.120  13.755  67.321  1.00  0.00    -0.420 Cl 
HETATM   14  C   UNL     1     -12.115  12.713  63.549  1.00  0.00    -0.648 A  
HETATM   15  C   UNL     1     -11.591  12.903  65.919  1.00  0.00    -0.377 A  
HETATM   16  C   UNL     1     -12.302  13.323  64.774  1.00  0.00    -0.454 A  
HETATM   17  C   UNL     1     -11.226  11.661  63.454  1.00  0.00    -0.401 A  
HETATM   18  C   UNL     1     -10.496  11.242  64.578  1.00  0.00    -0.334 A  
HETATM   19 CL   UNL     1      -9.452   9.875  64.275  1.00  0.00    -0.330 Cl 
ENDBRANCH  11  12
ENDBRANCH  10  11
BRANCH  10  20
HETATM   20  C   UNL     1     -10.389   8.545  67.438  1.00  0.00    -0.286 C  
BRANCH  20  21
HETATM   21  N   UNL     1     -10.112   7.390  68.283  1.00  0.00    -0.171 NA 
HETATM   22  C   UNL     1     -11.043   6.520  68.780  1.00  0.00    -0.283 A  
HETATM   23  N   UNL     1     -10.483   5.592  69.520  1.00  0.00    -0.276 NA 
HETATM   24  C   UNL     1      -8.900   7.039  68.805  1.00  0.00    -0.129 A  
HETATM   25  C   UNL     1      -9.147   5.903  69.540  1.00  0.00    -0.132 A  
ENDBRANCH  20  21
ENDBRANCH  10  20
ENDBRANCH   9  10
ENDBRANCH   8   9
ENDBRANCH   5   8
TORSDOF 7
ENDMDL
MODEL       68
REMARK 921   NORMALIZED FREE ENERGY PREDICTED BY IDOCK:   -5.98 KCAL/MOL
REMARK 922        TOTAL FREE ENERGY PREDICTED BY IDOCK:   -9.31 KCAL/MOL
REMARK 923 INTER-LIGAND FREE ENERGY PREDICTED BY IDOCK:   -8.08 KCAL/MOL
REMARK 924 INTRA-LIGAND FREE ENERGY PREDICTED BY IDOCK:   -1.23 KCAL/MOL
REMARK 927      BINDING AFFINITY PREDICTED BY RF-SCORE:    0.00 PKD
ROOT
HETATM    1 CL   UNL     1     -14.216  13.349  72.370  1.00  0.00    -0.530 Cl 
HETATM    2  C   UNL     1     -12.975  14.167  71.503  1.00  0.00    -0.344 A  
HETATM    3  C   UNL     1     -12.552  15.424  71.926  1.00  0.00    -0.455 A  
HETATM    4  C   UNL     1     -11.574  16.104  71.198  1.00  0.00    -0.453 A  
HETATM    5  C   UNL     1     -11.004  15.535  70.047  1.00  0.00    -0.331 A  
HETATM    6  C   UNL     1     -11.426  14.261  69.648  1.00  0.00    -0.334 A  
HETATM    7  C   UNL     1     -12.410  13.581  70.374  1.00  0.00    -0.397 A  
ENDROOT
BRANCH   5   8
HETATM    8  C   UNL     1     -10.014  16.320  69.214  1.00  0.00    -0.259 C  
BRANCH   8   9
HETATM    9  C   UNL     1      -9.105  15.436  68.358  1.00  0.00    -0.191 C  
BRANCH   9  10
HETATM   10  C   UNL     1      -9.215  15.674  66.837  1.00  0.00    -0.236 C  
BRANCH  10  11
HETATM   11  S   UNL     1      -7.995  16.944  66.296  1.00  0.00    -0.265 SA 
BRANCH  11  12
HETATM   12  C   UNL     1      -7.150  17.757  67.675  1.00  0.00    -0.186 A  
HETATM   13 CL   UNL     1      -5.227  15.826  68.394  1.00  0.00    -0.096 Cl 
HETATM   14  C   UNL     1      -6.038  19.412  69.735  1.00  0.00    -0.312 A  
HETATM   15  C   UNL     1      -6.041  17.345  68.449  1.00  0.00    -0.160 A  
HETATM   16  C   UNL     1      -5.487  18.180  69.444  1.00  0.00    -0.208 A  
HETATM   17  C   UNL     1      -7.163  19.822  69.048  1.00  0.00    -0.340 A  
HETATM   18  C   UNL     1      -7.716  19.014  68.041  1.00  0.00    -0.273 A  
HETATM   19 CL   UNL     1      -9.156  19.679  67.311  1.00  0.00    -0.372 Cl 
ENDBRANCH  11  12
ENDBRANCH  10  11
BRANCH  10  20
HETATM   20  C   UNL     1     -10.596  15.858  66.167  1.00  0.00    -0.305 C  
BRANCH  20  21
HETATM   21  N   UNL     1     -11.170  14.640  65.610  1.00  0.00    -0.335 NA 
HETATM   22  C   UNL     1     -10.536  13.770  64.766  1.00  0.00    -0.428 A  
HETATM   23  N   UNL     1     -11.322  12.776  64.425  1.00  0.00    -0.327 NA 
HETATM   24  C   UNL     1     -12.460  14.214  65.747  1.00  0.00    -0.466 A  
HETATM   25  C   UNL     1     -12.523  13.039  65.034  1.00  0.00    -0.477 A  
ENDBRANCH  20  21
ENDBRANCH  10  20
ENDBRANCH   9  10
ENDBRANCH   8   9
ENDBRANCH   5   8
TORSDOF 7
ENDMDL
MODEL       69
REMARK 921   NORMALIZED FREE ENERGY PREDICTED BY IDOCK:   -5.98 KCAL/MOL
REMARK 922        TOTAL FREE ENERGY PREDICTED BY IDOCK:   -9.31 KCAL/MOL
REMARK 923 INTER-LIGAND FREE ENERGY PREDICTED BY IDOCK:   -8.40 KCAL/MOL
REMARK 924 INTRA-LIGAND FREE ENERGY PREDICTED BY IDOCK:   -0.91 KCAL/MOL
REMARK 927      BINDING AFFINITY PREDICTED BY RF-SCORE:    0.00 PKD
ROOT
HETATM    1 CL   UNL     1      -7.155  21.073  67.327  1.00  0.00    -0.430 Cl 
HETATM    2  C   UNL     1      -8.215  19.768  67.694  1.00  0.00    -0.305 A  
HETATM    3  C   UNL     1      -9.573  19.884  67.412  1.00  0.00    -0.499 A  
HETATM    4  C   UNL     1     -10.438  18.841  67.748  1.00  0.00    -0.479 A  
HETATM    5  C   UNL     1      -9.957  17.671  68.359  1.00  0.00    -0.356 A  
HETATM    6  C   UNL     1      -8.584  17.563  68.616  1.00  0.00    -0.259 A  
HETATM    7  C   UNL     1      -7.717  18.610  68.285  1.00  0.00    -0.321 A  
ENDROOT
BRANCH   5   8
HETATM    8  C   UNL     1     -10.916  16.587  68.803  1.00  0.00    -0.330 C  
BRANCH   8   9
HETATM    9  C   UNL     1     -10.217  15.366  69.402  1.00  0.00    -0.262 C  
BRANCH   9  10
HETATM   10  C   UNL     1     -10.306  14.083  68.547  1.00  0.00    -0.247 C  
BRANCH  10  11
HETATM   11  S   UNL     1      -9.445  14.324  66.937  1.00  0.00    -0.272 SA 
BRANCH  11  12
HETATM   12  C   UNL     1     -10.111  13.291  65.608  1.00  0.00    -0.272 A  
HETATM   13 CL   UNL     1     -12.044  14.994  64.466  1.00  0.00    -0.428 Cl 
HETATM   14  C   UNL     1     -10.821  11.381  63.591  1.00  0.00    -0.459 A  
HETATM   15  C   UNL     1     -11.078  13.574  64.617  1.00  0.00    -0.374 A  
HETATM   16  C   UNL     1     -11.401  12.634  63.614  1.00  0.00    -0.544 A  
HETATM   17  C   UNL     1      -9.922  11.041  64.583  1.00  0.00    -0.357 A  
HETATM   18  C   UNL     1      -9.573  11.970  65.576  1.00  0.00    -0.159 A  
HETATM   19 CL   UNL     1      -8.453  11.350  66.764  1.00  0.00    -0.160 Cl 
ENDBRANCH  11  12
ENDBRANCH  10  11
BRANCH  10  20
HETATM   20  C   UNL     1     -11.648  13.332  68.394  1.00  0.00    -0.337 C  
BRANCH  20  21
HETATM   21  N   UNL     1     -11.876  12.282  69.378  1.00  0.00    -0.315 NA 
HETATM   22  C   UNL     1     -12.237  12.473  70.684  1.00  0.00    -0.276 A  
HETATM   23  N   UNL     1     -12.349  11.332  71.321  1.00  0.00    -0.313 NA 
HETATM   24  C   UNL     1     -11.668  10.944  69.200  1.00  0.00    -0.326 A  
HETATM   25  C   UNL     1     -12.001  10.371  70.406  1.00  0.00    -0.320 A  
ENDBRANCH  20  21
ENDBRANCH  10  20
ENDBRANCH   9  10
ENDBRANCH   8   9
ENDBRANCH   5   8
TORSDOF 7
ENDMDL
MODEL       70
REMARK 921   NORMALIZED FREE ENERGY PREDICTED BY IDOCK:   -5.98 KCAL/MOL
REMARK 922        TOTAL FREE ENERGY PREDICTED BY IDOCK:   -9.30 KCAL/MOL
REMARK 923 INTER-LIGAND FREE ENERGY PREDICTED BY IDOCK:   -8.66 KCAL/MOL
REMARK 924 INTRA-LIGAND FREE ENERGY PREDICTED BY IDOCK:   -0.64 KCAL/MOL
REMARK 927      BINDING AFFINITY PREDICTED BY RF-SCORE:    0.00 PKD
ROOT
HETATM    1 CL   UNL     1     -12.539  12.224  63.153  1.00  0.00    -0.443 Cl 
HETATM    2  C   UNL     1     -11.678  13.101  64.357  1.00  0.00    -0.380 A  
HETATM    3  C   UNL     1     -10.450  12.626  64.809  1.00  0.00    -0.343 A  
HETATM    4  C   UNL     1      -9.772  13.317  65.815  1.00  0.00    -0.149 A  
HETATM    5  C   UNL     1     -10.307  14.490  66.373  1.00  0.00    -0.296 A  
HETATM    6  C   UNL     1     -11.533  14.964  65.891  1.00  0.00    -0.276 A  
HETATM    7  C   UNL     1     -12.217  14.270  64.887  1.00  0.00    -0.449 A  
ENDROOT
BRANCH   5   8
HETATM    8  C   UNL     1      -9.608  15.177  67.527  1.00  0.00    -0.207 C  
BRANCH   8   9
HETATM    9  C   UNL     1      -9.556  14.328  68.798  1.00  0.00    -0.153 C  
BRANCH   9  10
HETATM   10  C   UNL     1     -10.825  14.396  69.675  1.00  0.00    -0.111 C  
BRANCH  10  11
HETATM   11  S   UNL     1     -12.090  13.204  69.067  1.00  0.00    -0.102 SA 
BRANCH  11  12
HETATM   12  C   UNL     1     -11.783  11.502  69.600  1.00  0.00    -0.351 A  
HETATM   13 CL   UNL     1     -10.616  10.376  67.296  1.00  0.00    -0.304 Cl 
HETATM   14  C   UNL     1     -11.397   8.953  70.857  1.00  0.00    -0.336 A  
HETATM   15  C   UNL     1     -11.159  10.424  68.931  1.00  0.00    -0.247 A  
HETATM   16  C   UNL     1     -10.953   9.181  69.569  1.00  0.00    -0.138 A  
HETATM   17  C   UNL     1     -12.070   9.959  71.521  1.00  0.00    -0.496 A  
HETATM   18  C   UNL     1     -12.267  11.208  70.910  1.00  0.00    -0.364 A  
HETATM   19 CL   UNL     1     -13.172  12.339  71.886  1.00  0.00    -0.553 Cl 
ENDBRANCH  11  12
ENDBRANCH  10  11
BRANCH  10  20
HETATM   20  C   UNL     1     -11.437  15.760  70.068  1.00  0.00    -0.356 C  
BRANCH  20  21
HETATM   21  N   UNL     1     -12.310  15.723  71.234  1.00  0.00    -0.420 NA 
HETATM   22  C   UNL     1     -13.651  15.452  71.223  1.00  0.00    -0.505 A  
HETATM   23  N   UNL     1     -14.162  15.510  72.430  1.00  0.00    -0.548 NA 
HETATM   24  C   UNL     1     -11.968  16.051  72.515  1.00  0.00    -0.545 A  
HETATM   25  C   UNL     1     -13.121  15.879  73.245  1.00  0.00    -0.589 A  
ENDBRANCH  20  21
ENDBRANCH  10  20
ENDBRANCH   9  10
ENDBRANCH   8   9
ENDBRANCH   5   8
TORSDOF 7
ENDMDL
MODEL       71
REMARK 921   NORMALIZED FREE ENERGY PREDICTED BY IDOCK:   -5.95 KCAL/MOL
REMARK 922        TOTAL FREE ENERGY PREDICTED BY IDOCK:   -9.27 KCAL/MOL
REMARK 923 INTER-LIGAND FREE ENERGY PREDICTED BY IDOCK:   -8.47 KCAL/MOL
REMARK 924 INTRA-LIGAND FREE ENERGY PREDICTED BY IDOCK:   -0.80 KCAL/MOL
REMARK 927      BINDING AFFINITY PREDICTED BY RF-SCORE:    0.00 PKD
ROOT
HETATM    1 CL   UNL     1      -9.200  20.428  67.166  1.00  0.00    -0.512 Cl 
HETATM    2  C   UNL     1      -9.453  18.808  67.688  1.00  0.00    -0.300 A  
HETATM    3  C   UNL     1      -8.391  18.081  68.216  1.00  0.00    -0.295 A  
HETATM    4  C   UNL     1      -8.588  16.753  68.602  1.00  0.00    -0.263 A  
HETATM    5  C   UNL     1      -9.846  16.142  68.471  1.00  0.00    -0.226 A  
HETATM    6  C   UNL     1     -10.909  16.895  67.956  1.00  0.00    -0.338 A  
HETATM    7  C   UNL     1     -10.711  18.224  67.564  1.00  0.00    -0.381 A  
ENDROOT
BRANCH   5   8
HETATM    8  C   UNL     1     -10.024  14.676  68.804  1.00  0.00    -0.235 C  
BRANCH   8   9
HETATM    9  C   UNL     1     -11.483  14.217  68.758  1.00  0.00    -0.333 C  
BRANCH   9  10
HETATM   10  C   UNL     1     -11.867  13.173  69.829  1.00  0.00    -0.316 C  
BRANCH  10  11
HETATM   11  S   UNL     1     -11.758  11.470  69.134  1.00  0.00    -0.350 SA 
BRANCH  11  12
HETATM   12  C   UNL     1     -11.175  10.245  70.332  1.00  0.00    -0.332 A  
HETATM   13 CL   UNL     1     -13.452   9.892  71.953  1.00  0.00    -0.477 Cl 
HETATM   14  C   UNL     1      -9.895   8.261  71.959  1.00  0.00    -0.327 A  
HETATM   15  C   UNL     1     -11.851   9.593  71.388  1.00  0.00    -0.406 A  
HETATM   16  C   UNL     1     -11.217   8.600  72.167  1.00  0.00    -0.438 A  
HETATM   17  C   UNL     1      -9.179   8.923  70.981  1.00  0.00    -0.307 A  
HETATM   18  C   UNL     1      -9.798   9.899  70.184  1.00  0.00    -0.219 A  
HETATM   19 CL   UNL     1      -8.727  10.654  69.029  1.00  0.00    -0.159 Cl 
ENDBRANCH  11  12
ENDBRANCH  10  11
BRANCH  10  20
HETATM   20  C   UNL     1     -13.122  13.373  70.709  1.00  0.00     0.036 C  
BRANCH  20  21
HETATM   21  N   UNL     1     -13.013  14.444  71.691  1.00  0.00    -0.324 NA 
HETATM   22  C   UNL     1     -14.059  15.088  72.294  1.00  0.00    -0.513 A  
HETATM   23  N   UNL     1     -13.638  16.016  73.120  1.00  0.00    -0.559 NA 
HETATM   24  C   UNL     1     -11.863  15.057  72.100  1.00  0.00    -0.363 A  
HETATM   25  C   UNL     1     -12.271  16.004  73.011  1.00  0.00    -0.533 A  
ENDBRANCH  20  21
ENDBRANCH  10  20
ENDBRANCH   9  10
ENDBRANCH   8   9
ENDBRANCH   5   8
TORSDOF 7
ENDMDL
MODEL       72
REMARK 921   NORMALIZED FREE ENERGY PREDICTED BY IDOCK:   -5.94 KCAL/MOL
REMARK 922        TOTAL FREE ENERGY PREDICTED BY IDOCK:   -9.25 KCAL/MOL
REMARK 923 INTER-LIGAND FREE ENERGY PREDICTED BY IDOCK:   -8.43 KCAL/MOL
REMARK 924 INTRA-LIGAND FREE ENERGY PREDICTED BY IDOCK:   -0.82 KCAL/MOL
REMARK 927      BINDING AFFINITY PREDICTED BY RF-SCORE:    0.00 PKD
ROOT
HETATM    1 CL   UNL     1      -9.320  20.677  66.854  1.00  0.00    -0.425 Cl 
HETATM    2  C   UNL     1      -9.421  19.111  67.559  1.00  0.00    -0.307 A  
HETATM    3  C   UNL     1     -10.665  18.516  67.742  1.00  0.00    -0.378 A  
HETATM    4  C   UNL     1     -10.748  17.263  68.352  1.00  0.00    -0.332 A  
HETATM    5  C   UNL     1      -9.591  16.589  68.777  1.00  0.00    -0.248 A  
HETATM    6  C   UNL     1      -8.346  17.192  68.566  1.00  0.00    -0.262 A  
HETATM    7  C   UNL     1      -8.262  18.451  67.960  1.00  0.00    -0.286 A  
ENDROOT
BRANCH   5   8
HETATM    8  C   UNL     1      -9.700  15.274  69.520  1.00  0.00    -0.224 C  
BRANCH   8   9
HETATM    9  C   UNL     1      -9.510  14.051  68.621  1.00  0.00    -0.142 C  
BRANCH   9  10
HETATM   10  C   UNL     1     -10.431  14.009  67.383  1.00  0.00    -0.263 C  
BRANCH  10  11
HETATM   11  S   UNL     1     -11.901  12.948  67.711  1.00  0.00    -0.300 SA 
BRANCH  11  12
HETATM   12  C   UNL     1     -11.586  11.648  68.931  1.00  0.00    -0.314 A  
HETATM   13 CL   UNL     1     -12.535  12.837  71.302  1.00  0.00    -0.363 Cl 
HETATM   14  C   UNL     1     -11.002   9.326  70.508  1.00  0.00    -0.318 A  
HETATM   15  C   UNL     1     -11.885  11.586  70.311  1.00  0.00    -0.342 A  
HETATM   16  C   UNL     1     -11.615  10.427  71.071  1.00  0.00    -0.384 A  
HETATM   17  C   UNL     1     -10.632   9.372  69.178  1.00  0.00    -0.234 A  
HETATM   18  C   UNL     1     -10.911  10.508  68.401  1.00  0.00    -0.240 A  
HETATM   19 CL   UNL     1     -10.336  10.399  66.755  1.00  0.00    -0.288 Cl 
ENDBRANCH  11  12
ENDBRANCH  10  11
BRANCH  10  20
HETATM   20  C   UNL     1      -9.842  13.782  65.972  1.00  0.00    -0.282 C  
BRANCH  20  21
HETATM   21  N   UNL     1     -10.833  13.592  64.920  1.00  0.00    -0.341 NA 
HETATM   22  C   UNL     1     -11.825  14.473  64.586  1.00  0.00    -0.453 A  
HETATM   23  N   UNL     1     -12.567  14.009  63.608  1.00  0.00    -0.792 NA 
HETATM   24  C   UNL     1     -11.008  12.468  64.163  1.00  0.00    -0.381 A  
HETATM   25  C   UNL     1     -12.065  12.762  63.334  1.00  0.00    -0.534 A  
ENDBRANCH  20  21
ENDBRANCH  10  20
ENDBRANCH   9  10
ENDBRANCH   8   9
ENDBRANCH   5   8
TORSDOF 7
ENDMDL
MODEL       73
REMARK 921   NORMALIZED FREE ENERGY PREDICTED BY IDOCK:   -5.93 KCAL/MOL
REMARK 922        TOTAL FREE ENERGY PREDICTED BY IDOCK:   -9.24 KCAL/MOL
REMARK 923 INTER-LIGAND FREE ENERGY PREDICTED BY IDOCK:   -8.56 KCAL/MOL
REMARK 924 INTRA-LIGAND FREE ENERGY PREDICTED BY IDOCK:   -0.68 KCAL/MOL
REMARK 927      BINDING AFFINITY PREDICTED BY RF-SCORE:    0.00 PKD
ROOT
HETATM    1 CL   UNL     1     -13.053  11.729  63.244  1.00  0.00    -0.255 Cl 
HETATM    2  C   UNL     1     -11.946  12.746  64.082  1.00  0.00    -0.427 A  
HETATM    3  C   UNL     1     -10.823  12.191  64.688  1.00  0.00    -0.351 A  
HETATM    4  C   UNL     1      -9.948  13.011  65.402  1.00  0.00    -0.201 A  
HETATM    5  C   UNL     1     -10.181  14.392  65.513  1.00  0.00    -0.386 A  
HETATM    6  C   UNL     1     -11.304  14.938  64.879  1.00  0.00    -0.415 A  
HETATM    7  C   UNL     1     -12.185  14.115  64.168  1.00  0.00    -0.423 A  
ENDROOT
BRANCH   5   8
HETATM    8  C   UNL     1      -9.277  15.256  66.367  1.00  0.00    -0.342 C  
BRANCH   8   9
HETATM    9  C   UNL     1      -9.036  14.685  67.765  1.00  0.00    -0.191 C  
BRANCH   9  10
HETATM   10  C   UNL     1      -9.808  15.397  68.898  1.00  0.00    -0.216 C  
BRANCH  10  11
HETATM   11  S   UNL     1     -11.610  15.038  68.772  1.00  0.00    -0.340 SA 
BRANCH  11  12
HETATM   12  C   UNL     1     -12.131  13.634  69.789  1.00  0.00    -0.334 A  
HETATM   13 CL   UNL     1     -11.313  11.445  68.216  1.00  0.00    -0.321 Cl 
HETATM   14  C   UNL     1     -13.030  11.717  71.722  1.00  0.00    -0.483 A  
HETATM   15  C   UNL     1     -11.964  12.244  69.598  1.00  0.00    -0.279 A  
HETATM   16  C   UNL     1     -12.389  11.311  70.568  1.00  0.00    -0.446 A  
HETATM   17  C   UNL     1     -13.273  13.063  71.915  1.00  0.00    -0.527 A  
HETATM   18  C   UNL     1     -12.840  14.007  70.970  1.00  0.00    -0.340 A  
HETATM   19 CL   UNL     1     -13.270  15.653  71.365  1.00  0.00    -0.563 Cl 
ENDBRANCH  11  12
ENDBRANCH  10  11
BRANCH  10  20
HETATM   20  C   UNL     1      -9.522  16.879  69.232  1.00  0.00    -0.051 C  
BRANCH  20  21
HETATM   21  N   UNL     1      -9.617  17.789  68.098  1.00  0.00    -0.291 NA 
HETATM   22  C   UNL     1      -8.569  18.433  67.497  1.00  0.00    -0.257 A  
HETATM   23  N   UNL     1      -8.978  19.197  66.513  1.00  0.00    -0.331 NA 
HETATM   24  C   UNL     1     -10.766  18.236  67.510  1.00  0.00    -0.355 A  
HETATM   25  C   UNL     1     -10.345  19.080  66.508  1.00  0.00    -0.439 A  
ENDBRANCH  20  21
ENDBRANCH  10  20
ENDBRANCH   9  10
ENDBRANCH   8   9
ENDBRANCH   5   8
TORSDOF 7
ENDMDL
MODEL       74
REMARK 921   NORMALIZED FREE ENERGY PREDICTED BY IDOCK:   -5.92 KCAL/MOL
REMARK 922        TOTAL FREE ENERGY PREDICTED BY IDOCK:   -9.23 KCAL/MOL
REMARK 923 INTER-LIGAND FREE ENERGY PREDICTED BY IDOCK:   -8.54 KCAL/MOL
REMARK 924 INTRA-LIGAND FREE ENERGY PREDICTED BY IDOCK:   -0.69 KCAL/MOL
REMARK 927      BINDING AFFINITY PREDICTED BY RF-SCORE:    0.00 PKD
ROOT
HETATM    1 CL   UNL     1     -10.691  19.897  65.556  1.00  0.00    -0.464 Cl 
HETATM    2  C   UNL     1     -10.454  18.424  66.415  1.00  0.00    -0.383 A  
HETATM    3  C   UNL     1     -10.327  17.230  65.712  1.00  0.00    -0.245 A  
HETATM    4  C   UNL     1     -10.176  16.031  66.411  1.00  0.00    -0.315 A  
HETATM    5  C   UNL     1     -10.143  16.013  67.815  1.00  0.00    -0.243 A  
HETATM    6  C   UNL     1     -10.251  17.226  68.506  1.00  0.00    -0.358 A  
HETATM    7  C   UNL     1     -10.408  18.428  67.806  1.00  0.00    -0.428 A  
ENDROOT
BRANCH   5   8
HETATM    8  C   UNL     1     -10.072  14.698  68.563  1.00  0.00    -0.238 C  
BRANCH   8   9
HETATM    9  C   UNL     1      -9.081  13.705  67.954  1.00  0.00    -0.198 C  
BRANCH   9  10
HETATM   10  C   UNL     1      -9.720  12.428  67.367  1.00  0.00    -0.193 C  
BRANCH  10  11
HETATM   11  S   UNL     1      -9.328  10.971  68.423  1.00  0.00    -0.184 SA 
BRANCH  11  12
HETATM   12  C   UNL     1     -10.564  10.665  69.708  1.00  0.00    -0.184 A  
HETATM   13 CL   UNL     1     -12.365  12.792  69.296  1.00  0.00    -0.062 Cl 
HETATM   14  C   UNL     1     -12.319   9.783  71.798  1.00  0.00    -0.470 A  
HETATM   15  C   UNL     1     -11.770  11.339  70.007  1.00  0.00    -0.346 A  
HETATM   16  C   UNL     1     -12.637  10.881  71.023  1.00  0.00    -0.517 A  
HETATM   17  C   UNL     1     -11.118   9.137  71.582  1.00  0.00    -0.445 A  
HETATM   18  C   UNL     1     -10.252   9.566  70.563  1.00  0.00    -0.287 A  
HETATM   19 CL   UNL     1      -8.766   8.653  70.466  1.00  0.00    -0.158 Cl 
ENDBRANCH  11  12
ENDBRANCH  10  11
BRANCH  10  20
HETATM   20  C   UNL     1      -9.607  12.114  65.858  1.00  0.00    -0.214 C  
BRANCH  20  21
HETATM   21  N   UNL     1     -10.850  12.256  65.111  1.00  0.00    -0.291 NA 
HETATM   22  C   UNL     1     -12.064  12.610  65.635  1.00  0.00    -0.443 A  
HETATM   23  N   UNL     1     -12.995  12.636  64.711  1.00  0.00    -0.867 NA 
HETATM   24  C   UNL     1     -11.042  11.962  63.791  1.00  0.00    -0.436 A  
HETATM   25  C   UNL     1     -12.370  12.238  63.557  1.00  0.00    -0.565 A  
ENDBRANCH  20  21
ENDBRANCH  10  20
ENDBRANCH   9  10
ENDBRANCH   8   9
ENDBRANCH   5   8
TORSDOF 7
ENDMDL
MODEL       75
REMARK 921   NORMALIZED FREE ENERGY PREDICTED BY IDOCK:   -5.92 KCAL/MOL
REMARK 922        TOTAL FREE ENERGY PREDICTED BY IDOCK:   -9.22 KCAL/MOL
REMARK 923 INTER-LIGAND FREE ENERGY PREDICTED BY IDOCK:   -7.91 KCAL/MOL
REMARK 924 INTRA-LIGAND FREE ENERGY PREDICTED BY IDOCK:   -1.31 KCAL/MOL
REMARK 927      BINDING AFFINITY PREDICTED BY RF-SCORE:    0.00 PKD
ROOT
HETATM    1 CL   UNL     1      -9.254   9.720  63.254  1.00  0.00    -0.276 Cl 
HETATM    2  C   UNL     1     -10.195  10.926  64.043  1.00  0.00    -0.357 A  
HETATM    3  C   UNL     1     -10.832  11.906  63.288  1.00  0.00    -0.408 A  
HETATM    4  C   UNL     1     -11.562  12.907  63.933  1.00  0.00    -0.515 A  
HETATM    5  C   UNL     1     -11.668  12.935  65.333  1.00  0.00    -0.413 A  
HETATM    6  C   UNL     1     -11.037  11.929  66.076  1.00  0.00    -0.369 A  
HETATM    7  C   UNL     1     -10.301  10.929  65.431  1.00  0.00    -0.326 A  
ENDROOT
BRANCH   5   8
HETATM    8  C   UNL     1     -12.382  14.077  66.025  1.00  0.00    -0.504 C  
BRANCH   8   9
HETATM    9  C   UNL     1     -11.611  14.640  67.220  1.00  0.00    -0.404 C  
BRANCH   9  10
HETATM   10  C   UNL     1     -10.798  15.918  66.923  1.00  0.00    -0.240 C  
BRANCH  10  11
HETATM   11  S   UNL     1      -9.173  15.485  66.172  1.00  0.00    -0.325 SA 
BRANCH  11  12
HETATM   12  C   UNL     1      -7.760  15.995  67.183  1.00  0.00    -0.207 A  
HETATM   13 CL   UNL     1      -6.896  18.316  65.840  1.00  0.00    -0.313 Cl 
HETATM   14  C   UNL     1      -5.667  16.493  69.078  1.00  0.00    -0.138 A  
HETATM   15  C   UNL     1      -6.915  17.124  67.085  1.00  0.00    -0.178 A  
HETATM   16  C   UNL     1      -5.904  17.371  68.038  1.00  0.00    -0.136 A  
HETATM   17  C   UNL     1      -6.427  15.344  69.170  1.00  0.00    -0.128 A  
HETATM   18  C   UNL     1      -7.450  15.091  68.242  1.00  0.00    -0.107 A  
HETATM   19 CL   UNL     1      -8.276  13.573  68.496  1.00  0.00    -0.137 Cl 
ENDBRANCH  11  12
ENDBRANCH  10  11
BRANCH  10  20
HETATM   20  C   UNL     1     -10.682  17.040  67.979  1.00  0.00    -0.365 C  
BRANCH  20  21
HETATM   21  N   UNL     1     -10.349  18.353  67.441  1.00  0.00    -0.373 NA 
HETATM   22  C   UNL     1     -10.555  18.766  66.153  1.00  0.00    -0.377 A  
HETATM   23  N   UNL     1     -10.135  19.996  65.972  1.00  0.00    -0.482 NA 
HETATM   24  C   UNL     1      -9.684  19.353  68.092  1.00  0.00    -0.383 A  
HETATM   25  C   UNL     1      -9.594  20.374  67.175  1.00  0.00    -0.447 A  
ENDBRANCH  20  21
ENDBRANCH  10  20
ENDBRANCH   9  10
ENDBRANCH   8   9
ENDBRANCH   5   8
TORSDOF 7
ENDMDL
MODEL       76
REMARK 921   NORMALIZED FREE ENERGY PREDICTED BY IDOCK:   -5.90 KCAL/MOL
REMARK 922        TOTAL FREE ENERGY PREDICTED BY IDOCK:   -9.20 KCAL/MOL
REMARK 923 INTER-LIGAND FREE ENERGY PREDICTED BY IDOCK:   -8.38 KCAL/MOL
REMARK 924 INTRA-LIGAND FREE ENERGY PREDICTED BY IDOCK:   -0.82 KCAL/MOL
REMARK 927      BINDING AFFINITY PREDICTED BY RF-SCORE:    0.00 PKD
ROOT
HETATM    1 CL   UNL     1     -11.398   7.969  72.792  1.00  0.00    -0.467 Cl 
HETATM    2  C   UNL     1     -11.514   9.239  71.638  1.00  0.00    -0.398 A  
HETATM    3  C   UNL     1     -10.527   9.380  70.667  1.00  0.00    -0.354 A  
HETATM    4  C   UNL     1     -10.600  10.435  69.756  1.00  0.00    -0.302 A  
HETATM    5  C   UNL     1     -11.661  11.355  69.800  1.00  0.00    -0.418 A  
HETATM    6  C   UNL     1     -12.656  11.187  70.771  1.00  0.00    -0.445 A  
HETATM    7  C   UNL     1     -12.580  10.132  71.688  1.00  0.00    -0.533 A  
ENDROOT
BRANCH   5   8
HETATM    8  C   UNL     1     -11.681  12.548  68.868  1.00  0.00    -0.367 C  
BRANCH   8   9
HETATM    9  C   UNL     1     -10.624  13.601  69.208  1.00  0.00     0.008 C  
BRANCH   9  10
HETATM   10  C   UNL     1     -10.922  15.016  68.667  1.00  0.00    -0.257 C  
BRANCH  10  11
HETATM   11  S   UNL     1      -9.353  15.920  68.333  1.00  0.00    -0.206 SA 
BRANCH  11  12
HETATM   12  C   UNL     1      -9.599  17.474  67.438  1.00  0.00    -0.265 A  
HETATM   13 CL   UNL     1     -11.071  16.620  65.192  1.00  0.00    -0.192 Cl 
HETATM   14  C   UNL     1      -9.833  20.133  66.393  1.00  0.00    -0.560 A  
HETATM   15  C   UNL     1     -10.314  17.751  66.251  1.00  0.00    -0.358 A  
HETATM   16  C   UNL     1     -10.442  19.068  65.759  1.00  0.00    -0.375 A  
HETATM   17  C   UNL     1      -9.069  19.895  67.518  1.00  0.00    -0.432 A  
HETATM   18  C   UNL     1      -8.946  18.594  68.033  1.00  0.00    -0.302 A  
HETATM   19 CL   UNL     1      -7.911  18.483  69.435  1.00  0.00     0.131 Cl 
ENDBRANCH  11  12
ENDBRANCH  10  11
BRANCH  10  20
HETATM   20  C   UNL     1     -11.986  15.909  69.345  1.00  0.00    -0.256 C  
BRANCH  20  21
HETATM   21  N   UNL     1     -12.284  15.560  70.728  1.00  0.00    -0.371 NA 
HETATM   22  C   UNL     1     -13.336  14.795  71.152  1.00  0.00    -0.400 A  
HETATM   23  N   UNL     1     -13.343  14.673  72.459  1.00  0.00    -0.411 NA 
HETATM   24  C   UNL     1     -11.633  16.016  71.839  1.00  0.00    -0.431 A  
HETATM   25  C   UNL     1     -12.284  15.427  72.898  1.00  0.00    -0.421 A  
ENDBRANCH  20  21
ENDBRANCH  10  20
ENDBRANCH   9  10
ENDBRANCH   8   9
ENDBRANCH   5   8
TORSDOF 7
ENDMDL
MODEL       77
REMARK 921   NORMALIZED FREE ENERGY PREDICTED BY IDOCK:   -5.90 KCAL/MOL
REMARK 922        TOTAL FREE ENERGY PREDICTED BY IDOCK:   -9.19 KCAL/MOL
REMARK 923 INTER-LIGAND FREE ENERGY PREDICTED BY IDOCK:   -8.64 KCAL/MOL
REMARK 924 INTRA-LIGAND FREE ENERGY PREDICTED BY IDOCK:   -0.55 KCAL/MOL
REMARK 927      BINDING AFFINITY PREDICTED BY RF-SCORE:    0.00 PKD
ROOT
HETATM    1 CL   UNL     1     -12.592  16.042  74.534  1.00  0.00    -0.650 Cl 
HETATM    2  C   UNL     1     -12.446  15.306  72.986  1.00  0.00    -0.422 A  
HETATM    3  C   UNL     1     -13.048  14.073  72.749  1.00  0.00    -0.537 A  
HETATM    4  C   UNL     1     -12.893  13.458  71.505  1.00  0.00    -0.427 A  
HETATM    5  C   UNL     1     -12.145  14.069  70.485  1.00  0.00    -0.424 A  
HETATM    6  C   UNL     1     -11.564  15.318  70.734  1.00  0.00    -0.371 A  
HETATM    7  C   UNL     1     -11.713  15.933  71.982  1.00  0.00    -0.588 A  
ENDROOT
BRANCH   5   8
HETATM    8  C   UNL     1     -11.907  13.350  69.174  1.00  0.00    -0.383 C  
BRANCH   8   9
HETATM    9  C   UNL     1     -12.030  11.830  69.284  1.00  0.00    -0.354 C  
BRANCH   9  10
HETATM   10  C   UNL     1     -10.875  11.037  68.635  1.00  0.00    -0.215 C  
BRANCH  10  11
HETATM   11  S   UNL     1     -10.763  11.421  66.838  1.00  0.00    -0.277 SA 
BRANCH  11  12
HETATM   12  C   UNL     1     -10.312  13.142  66.501  1.00  0.00    -0.283 A  
HETATM   13 CL   UNL     1     -12.648  14.119  65.263  1.00  0.00    -0.481 Cl 
HETATM   14  C   UNL     1      -9.242  15.788  66.229  1.00  0.00    -0.368 A  
HETATM   15  C   UNL     1     -11.066  14.199  65.942  1.00  0.00    -0.306 A  
HETATM   16  C   UNL     1     -10.536  15.504  65.836  1.00  0.00    -0.356 A  
HETATM   17  C   UNL     1      -8.452  14.766  66.717  1.00  0.00    -0.179 A  
HETATM   18  C   UNL     1      -8.968  13.467  66.848  1.00  0.00    -0.209 A  
HETATM   19 CL   UNL     1      -7.811  12.303  67.445  1.00  0.00    -0.162 Cl 
ENDBRANCH  11  12
ENDBRANCH  10  11
BRANCH  10  20
HETATM   20  C   UNL     1     -10.690   9.532  68.932  1.00  0.00    -0.195 C  
BRANCH  20  21
HETATM   21  N   UNL     1     -10.799   9.169  70.339  1.00  0.00    -0.230 NA 
HETATM   22  C   UNL     1      -9.755   9.017  71.210  1.00  0.00    -0.301 A  
HETATM   23  N   UNL     1     -10.174   8.671  72.404  1.00  0.00    -0.297 NA 
HETATM   24  C   UNL     1     -11.941   8.820  71.001  1.00  0.00    -0.251 A  
HETATM   25  C   UNL     1     -11.536   8.549  72.288  1.00  0.00    -0.375 A  
ENDBRANCH  20  21
ENDBRANCH  10  20
ENDBRANCH   9  10
ENDBRANCH   8   9
ENDBRANCH   5   8
TORSDOF 7
ENDMDL
MODEL       78
REMARK 921   NORMALIZED FREE ENERGY PREDICTED BY IDOCK:   -5.89 KCAL/MOL
REMARK 922        TOTAL FREE ENERGY PREDICTED BY IDOCK:   -9.18 KCAL/MOL
REMARK 923 INTER-LIGAND FREE ENERGY PREDICTED BY IDOCK:   -8.13 KCAL/MOL
REMARK 924 INTRA-LIGAND FREE ENERGY PREDICTED BY IDOCK:   -1.05 KCAL/MOL
REMARK 927      BINDING AFFINITY PREDICTED BY RF-SCORE:    0.00 PKD
ROOT
HETATM    1 CL   UNL     1     -12.428  15.939  74.556  1.00  0.00    -0.765 Cl 
HETATM    2  C   UNL     1     -12.396  15.155  73.025  1.00  0.00    -0.402 A  
HETATM    3  C   UNL     1     -13.105  13.972  72.842  1.00  0.00    -0.481 A  
HETATM    4  C   UNL     1     -13.045  13.315  71.611  1.00  0.00    -0.453 A  
HETATM    5  C   UNL     1     -12.285  13.837  70.550  1.00  0.00    -0.440 A  
HETATM    6  C   UNL     1     -11.594  15.039  70.746  1.00  0.00    -0.364 A  
HETATM    7  C   UNL     1     -11.649  15.695  71.981  1.00  0.00    -0.540 A  
ENDROOT
BRANCH   5   8
HETATM    8  C   UNL     1     -12.152  13.069  69.252  1.00  0.00    -0.251 C  
BRANCH   8   9
HETATM    9  C   UNL     1     -11.795  13.954  68.057  1.00  0.00    -0.411 C  
BRANCH   9  10
HETATM   10  C   UNL     1     -10.866  13.293  67.016  1.00  0.00    -0.269 C  
BRANCH  10  11
HETATM   11  S   UNL     1      -9.653  12.185  67.849  1.00  0.00    -0.203 SA 
BRANCH  11  12
HETATM   12  C   UNL     1      -9.836  10.446  67.383  1.00  0.00    -0.178 A  
HETATM   13 CL   UNL     1      -9.597  10.572  64.578  1.00  0.00    -0.327 Cl 
HETATM   14  C   UNL     1     -10.086   7.605  67.083  1.00  0.00    -0.323 A  
HETATM   15  C   UNL     1      -9.756   9.817  66.119  1.00  0.00    -0.246 A  
HETATM   16  C   UNL     1      -9.857   8.415  65.988  1.00  0.00    -0.082 A  
HETATM   17  C   UNL     1     -10.237   8.188  68.326  1.00  0.00    -0.245 A  
HETATM   18  C   UNL     1     -10.120   9.579  68.479  1.00  0.00    -0.178 A  
HETATM   19 CL   UNL     1     -10.379  10.135  70.114  1.00  0.00    -0.315 Cl 
ENDBRANCH  11  12
ENDBRANCH  10  11
BRANCH  10  20
HETATM   20  C   UNL     1     -10.223  14.134  65.890  1.00  0.00    -0.319 C  
BRANCH  20  21
HETATM   21  N   UNL     1      -9.717  15.434  66.313  1.00  0.00    -0.276 NA 
HETATM   22  C   UNL     1     -10.272  16.647  66.008  1.00  0.00    -0.351 A  
HETATM   23  N   UNL     1      -9.577  17.634  66.521  1.00  0.00    -0.284 NA 
HETATM   24  C   UNL     1      -8.556  15.672  66.991  1.00  0.00    -0.224 A  
HETATM   25  C   UNL     1      -8.506  17.039  67.140  1.00  0.00    -0.202 A  
ENDBRANCH  20  21
ENDBRANCH  10  20
ENDBRANCH   9  10
ENDBRANCH   8   9
ENDBRANCH   5   8
TORSDOF 7
ENDMDL
MODEL       79
REMARK 921   NORMALIZED FREE ENERGY PREDICTED BY IDOCK:   -5.88 KCAL/MOL
REMARK 922        TOTAL FREE ENERGY PREDICTED BY IDOCK:   -9.17 KCAL/MOL
REMARK 923 INTER-LIGAND FREE ENERGY PREDICTED BY IDOCK:   -7.53 KCAL/MOL
REMARK 924 INTRA-LIGAND FREE ENERGY PREDICTED BY IDOCK:   -1.64 KCAL/MOL
REMARK 927      BINDING AFFINITY PREDICTED BY RF-SCORE:    0.00 PKD
ROOT
HETATM    1 CL   UNL     1     -12.179  14.527  64.228  1.00  0.00    -0.496 Cl 
HETATM    2  C   UNL     1     -12.030  13.748  65.755  1.00  0.00    -0.399 A  
HETATM    3  C   UNL     1     -11.851  12.369  65.810  1.00  0.00    -0.467 A  
HETATM    4  C   UNL     1     -11.771  11.733  67.051  1.00  0.00    -0.247 A  
HETATM    5  C   UNL     1     -11.861  12.466  68.246  1.00  0.00    -0.364 A  
HETATM    6  C   UNL     1     -12.021  13.855  68.171  1.00  0.00    -0.385 A  
HETATM    7  C   UNL     1     -12.107  14.493  66.929  1.00  0.00    -0.309 A  
ENDROOT
BRANCH   5   8
HETATM    8  C   UNL     1     -11.867  11.755  69.582  1.00  0.00    -0.407 C  
BRANCH   8   9
HETATM    9  C   UNL     1     -11.510  10.271  69.482  1.00  0.00    -0.273 C  
BRANCH   9  10
HETATM   10  C   UNL     1     -10.441   9.793  70.489  1.00  0.00    -0.301 C  
BRANCH  10  11
HETATM   11  S   UNL     1      -9.032   9.005  69.602  1.00  0.00    -0.161 SA 
BRANCH  11  12
HETATM   12  C   UNL     1      -9.007   9.373  67.830  1.00  0.00    -0.122 A  
HETATM   13 CL   UNL     1     -10.117   7.025  66.737  1.00  0.00    -0.280 Cl 
HETATM   14  C   UNL     1      -8.866  10.375  65.147  1.00  0.00    -0.207 A  
HETATM   15  C   UNL     1      -9.481   8.627  66.727  1.00  0.00    -0.191 A  
HETATM   16  C   UNL     1      -9.428   9.142  65.413  1.00  0.00    -0.231 A  
HETATM   17  C   UNL     1      -8.331  11.105  66.190  1.00  0.00    -0.144 A  
HETATM   18  C   UNL     1      -8.392  10.618  67.505  1.00  0.00    -0.115 A  
HETATM   19 CL   UNL     1      -7.630  11.661  68.682  1.00  0.00    -0.129 Cl 
ENDBRANCH  11  12
ENDBRANCH  10  11
BRANCH  10  20
HETATM   20  C   UNL     1     -10.850   9.014  71.760  1.00  0.00    -0.367 C  
BRANCH  20  21
HETATM   21  N   UNL     1     -12.241   8.580  71.788  1.00  0.00    -0.313 NA 
HETATM   22  C   UNL     1     -12.723   7.404  71.280  1.00  0.00    -0.331 A  
HETATM   23  N   UNL     1     -14.021   7.309  71.444  1.00  0.00    -0.369 NA 
HETATM   24  C   UNL     1     -13.310   9.308  72.227  1.00  0.00    -0.477 A  
HETATM   25  C   UNL     1     -14.398   8.487  72.037  1.00  0.00    -0.447 A  
ENDBRANCH  20  21
ENDBRANCH  10  20
ENDBRANCH   9  10
ENDBRANCH   8   9
ENDBRANCH   5   8
TORSDOF 7
ENDMDL
MODEL       80
REMARK 921   NORMALIZED FREE ENERGY PREDICTED BY IDOCK:   -5.85 KCAL/MOL
REMARK 922        TOTAL FREE ENERGY PREDICTED BY IDOCK:   -9.12 KCAL/MOL
REMARK 923 INTER-LIGAND FREE ENERGY PREDICTED BY IDOCK:   -6.96 KCAL/MOL
REMARK 924 INTRA-LIGAND FREE ENERGY PREDICTED BY IDOCK:   -2.17 KCAL/MOL
REMARK 927      BINDING AFFINITY PREDICTED BY RF-SCORE:    0.00 PKD
ROOT
HETATM    1 CL   UNL     1     -10.059   4.221  70.786  1.00  0.00    -0.224 Cl 
HETATM    2  C   UNL     1      -9.927   5.330  69.478  1.00  0.00    -0.227 A  
HETATM    3  C   UNL     1      -8.709   5.482  68.823  1.00  0.00    -0.102 A  
HETATM    4  C   UNL     1      -8.593   6.412  67.788  1.00  0.00    -0.116 A  
HETATM    5  C   UNL     1      -9.692   7.193  67.393  1.00  0.00    -0.186 A  
HETATM    6  C   UNL     1     -10.916   7.013  68.049  1.00  0.00    -0.185 A  
HETATM    7  C   UNL     1     -11.031   6.085  69.090  1.00  0.00    -0.429 A  
ENDROOT
BRANCH   5   8
HETATM    8  C   UNL     1      -9.530   8.263  66.334  1.00  0.00    -0.287 C  
BRANCH   8   9
HETATM    9  C   UNL     1     -10.403   9.495  66.578  1.00  0.00    -0.263 C  
BRANCH   9  10
HETATM   10  C   UNL     1      -9.631  10.829  66.673  1.00  0.00    -0.178 C  
BRANCH  10  11
HETATM   11  S   UNL     1      -9.888  11.604  68.323  1.00  0.00    -0.202 SA 
BRANCH  11  12
HETATM   12  C   UNL     1      -9.970  10.401  69.673  1.00  0.00    -0.174 A  
HETATM   13 CL   UNL     1     -12.608  10.752  70.601  1.00  0.00    -0.436 Cl 
HETATM   14  C   UNL     1      -9.708   8.343  71.652  1.00  0.00    -0.287 A  
HETATM   15  C   UNL     1     -11.043  10.033  70.517  1.00  0.00    -0.331 A  
HETATM   16  C   UNL     1     -10.909   9.002  71.471  1.00  0.00    -0.416 A  
HETATM   17  C   UNL     1      -8.617   8.720  70.894  1.00  0.00    -0.229 A  
HETATM   18  C   UNL     1      -8.737   9.731  69.927  1.00  0.00    -0.217 A  
HETATM   19 CL   UNL     1      -7.245  10.096  69.096  1.00  0.00    -0.073 Cl 
ENDBRANCH  11  12
ENDBRANCH  10  11
BRANCH  10  20
HETATM   20  C   UNL     1      -9.692  11.857  65.520  1.00  0.00    -0.215 C  
BRANCH  20  21
HETATM   21  N   UNL     1     -10.974  12.535  65.376  1.00  0.00    -0.286 NA 
HETATM   22  C   UNL     1     -12.023  12.111  64.606  1.00  0.00    -0.323 A  
HETATM   23  N   UNL     1     -13.033  12.946  64.671  1.00  0.00    -0.747 NA 
HETATM   24  C   UNL     1     -11.311  13.753  65.894  1.00  0.00    -0.307 A  
HETATM   25  C   UNL     1     -12.603  13.971  65.474  1.00  0.00    -0.516 A  
ENDBRANCH  20  21
ENDBRANCH  10  20
ENDBRANCH   9  10
ENDBRANCH   8   9
ENDBRANCH   5   8
TORSDOF 7
ENDMDL
MODEL       81
REMARK 921   NORMALIZED FREE ENERGY PREDICTED BY IDOCK:   -5.82 KCAL/MOL
REMARK 922        TOTAL FREE ENERGY PREDICTED BY IDOCK:   -9.09 KCAL/MOL
REMARK 923 INTER-LIGAND FREE ENERGY PREDICTED BY IDOCK:   -8.17 KCAL/MOL
REMARK 924 INTRA-LIGAND FREE ENERGY PREDICTED BY IDOCK:   -0.92 KCAL/MOL
REMARK 927      BINDING AFFINITY PREDICTED BY RF-SCORE:    0.00 PKD
ROOT
HETATM    1 CL   UNL     1     -12.059   7.342  72.115  1.00  0.00    -0.307 Cl 
HETATM    2  C   UNL     1     -12.110   8.924  71.440  1.00  0.00    -0.322 A  
HETATM    3  C   UNL     1     -11.229   9.266  70.419  1.00  0.00    -0.290 A  
HETATM    4  C   UNL     1     -11.244  10.562  69.900  1.00  0.00    -0.374 A  
HETATM    5  C   UNL     1     -12.142  11.526  70.389  1.00  0.00    -0.471 A  
HETATM    6  C   UNL     1     -13.036  11.158  71.403  1.00  0.00    -0.506 A  
HETATM    7  C   UNL     1     -13.017   9.861  71.928  1.00  0.00    -0.545 A  
ENDROOT
BRANCH   5   8
HETATM    8  C   UNL     1     -12.085  12.952  69.885  1.00  0.00    -0.335 C  
BRANCH   8   9
HETATM    9  C   UNL     1     -11.500  13.075  68.477  1.00  0.00    -0.340 C  
BRANCH   9  10
HETATM   10  C   UNL     1     -10.852  14.441  68.162  1.00  0.00    -0.244 C  
BRANCH  10  11
HETATM   11  S   UNL     1     -10.135  14.436  66.466  1.00  0.00    -0.285 SA 
BRANCH  11  12
HETATM   12  C   UNL     1     -10.039  12.782  65.735  1.00  0.00    -0.286 A  
HETATM   13 CL   UNL     1     -12.137  12.858  63.856  1.00  0.00    -0.519 Cl 
HETATM   14  C   UNL     1      -9.496  10.128  64.798  1.00  0.00    -0.355 A  
HETATM   15  C   UNL     1     -10.780  12.194  64.685  1.00  0.00    -0.304 A  
HETATM   16  C   UNL     1     -10.486  10.895  64.216  1.00  0.00    -0.405 A  
HETATM   17  C   UNL     1      -8.796  10.641  65.871  1.00  0.00    -0.187 A  
HETATM   18  C   UNL     1      -9.060  11.939  66.339  1.00  0.00    -0.208 A  
HETATM   19 CL   UNL     1      -8.103  12.400  67.725  1.00  0.00    -0.149 Cl 
ENDBRANCH  11  12
ENDBRANCH  10  11
BRANCH  10  20
HETATM   20  C   UNL     1      -9.929  15.130  69.193  1.00  0.00    -0.238 C  
BRANCH  20  21
HETATM   21  N   UNL     1      -9.567  16.503  68.866  1.00  0.00    -0.253 NA 
HETATM   22  C   UNL     1      -8.298  16.969  68.655  1.00  0.00    -0.264 A  
HETATM   23  N   UNL     1      -8.297  18.255  68.396  1.00  0.00    -0.302 NA 
HETATM   24  C   UNL     1     -10.412  17.575  68.815  1.00  0.00    -0.318 A  
HETATM   25  C   UNL     1      -9.610  18.644  68.488  1.00  0.00    -0.361 A  
ENDBRANCH  20  21
ENDBRANCH  10  20
ENDBRANCH   9  10
ENDBRANCH   8   9
ENDBRANCH   5   8
TORSDOF 7
ENDMDL
MODEL       82
REMARK 921   NORMALIZED FREE ENERGY PREDICTED BY IDOCK:   -5.82 KCAL/MOL
REMARK 922        TOTAL FREE ENERGY PREDICTED BY IDOCK:   -9.08 KCAL/MOL
REMARK 923 INTER-LIGAND FREE ENERGY PREDICTED BY IDOCK:   -8.27 KCAL/MOL
REMARK 924 INTRA-LIGAND FREE ENERGY PREDICTED BY IDOCK:   -0.81 KCAL/MOL
REMARK 927      BINDING AFFINITY PREDICTED BY RF-SCORE:    0.00 PKD
ROOT
HETATM    1 CL   UNL     1     -12.416  15.644  74.470  1.00  0.00    -0.781 Cl 
HETATM    2  C   UNL     1     -12.350  15.137  72.827  1.00  0.00    -0.385 A  
HETATM    3  C   UNL     1     -12.942  13.934  72.453  1.00  0.00    -0.457 A  
HETATM    4  C   UNL     1     -12.852  13.504  71.128  1.00  0.00    -0.387 A  
HETATM    5  C   UNL     1     -12.180  14.273  70.163  1.00  0.00    -0.407 A  
HETATM    6  C   UNL     1     -11.608  15.490  70.553  1.00  0.00    -0.371 A  
HETATM    7  C   UNL     1     -11.693  15.919  71.882  1.00  0.00    -0.590 A  
ENDROOT
BRANCH   5   8
HETATM    8  C   UNL     1     -12.009  13.752  68.752  1.00  0.00    -0.400 C  
BRANCH   8   9
HETATM    9  C   UNL     1     -11.687  12.258  68.691  1.00  0.00    -0.377 C  
BRANCH   9  10
HETATM   10  C   UNL     1     -10.194  11.925  68.478  1.00  0.00    -0.215 C  
BRANCH  10  11
HETATM   11  S   UNL     1      -9.738  12.126  66.704  1.00  0.00    -0.224 SA 
BRANCH  11  12
HETATM   12  C   UNL     1     -10.112  13.773  66.053  1.00  0.00    -0.311 A  
HETATM   13 CL   UNL     1     -11.996  13.185  64.042  1.00  0.00    -0.489 Cl 
HETATM   14  C   UNL     1     -10.477  16.536  65.377  1.00  0.00    -0.291 A  
HETATM   15  C   UNL     1     -11.030  14.186  65.060  1.00  0.00    -0.384 A  
HETATM   16  C   UNL     1     -11.218  15.551  64.753  1.00  0.00    -0.399 A  
HETATM   17  C   UNL     1      -9.522  16.169  66.305  1.00  0.00    -0.347 A  
HETATM   18  C   UNL     1      -9.335  14.817  66.637  1.00  0.00    -0.268 A  
HETATM   19 CL   UNL     1      -8.059  14.544  67.798  1.00  0.00    -0.149 Cl 
ENDBRANCH  11  12
ENDBRANCH  10  11
BRANCH  10  20
HETATM   20  C   UNL     1      -9.573  10.658  69.108  1.00  0.00    -0.177 C  
BRANCH  20  21
HETATM   21  N   UNL     1      -9.637   9.467  68.271  1.00  0.00    -0.141 NA 
HETATM   22  C   UNL     1      -8.569   8.831  67.699  1.00  0.00    -0.128 A  
HETATM   23  N   UNL     1      -8.951   7.797  66.989  1.00  0.00    -0.125 NA 
HETATM   24  C   UNL     1     -10.770   8.844  67.829  1.00  0.00    -0.137 A  
HETATM   25  C   UNL     1     -10.321   7.792  67.065  1.00  0.00    -0.334 A  
ENDBRANCH  20  21
ENDBRANCH  10  20
ENDBRANCH   9  10
ENDBRANCH   8   9
ENDBRANCH   5   8
TORSDOF 7
ENDMDL
MODEL       83
REMARK 921   NORMALIZED FREE ENERGY PREDICTED BY IDOCK:   -5.80 KCAL/MOL
REMARK 922        TOTAL FREE ENERGY PREDICTED BY IDOCK:   -9.06 KCAL/MOL
REMARK 923 INTER-LIGAND FREE ENERGY PREDICTED BY IDOCK:   -7.94 KCAL/MOL
REMARK 924 INTRA-LIGAND FREE ENERGY PREDICTED BY IDOCK:   -1.12 KCAL/MOL
REMARK 927      BINDING AFFINITY PREDICTED BY RF-SCORE:    0.00 PKD
ROOT
HETATM    1 CL   UNL     1      -7.753  19.019  68.320  1.00  0.00    -0.330 Cl 
HETATM    2  C   UNL     1      -8.716  17.641  68.686  1.00  0.00    -0.266 A  
HETATM    3  C   UNL     1     -10.103  17.735  68.625  1.00  0.00    -0.384 A  
HETATM    4  C   UNL     1     -10.885  16.627  68.962  1.00  0.00    -0.314 A  
HETATM    5  C   UNL     1     -10.291  15.416  69.353  1.00  0.00    -0.258 A  
HETATM    6  C   UNL     1      -8.893  15.333  69.388  1.00  0.00    -0.220 A  
HETATM    7  C   UNL     1      -8.110  16.444  69.057  1.00  0.00    -0.223 A  
ENDROOT
BRANCH   5   8
HETATM    8  C   UNL     1     -11.148  14.253  69.805  1.00  0.00    -0.175 C  
BRANCH   8   9
HETATM    9  C   UNL     1     -12.157  13.797  68.749  1.00  0.00    -0.344 C  
BRANCH   9  10
HETATM   10  C   UNL     1     -11.844  12.430  68.102  1.00  0.00    -0.315 C  
BRANCH  10  11
HETATM   11  S   UNL     1     -10.691  11.465  69.165  1.00  0.00    -0.150 SA 
BRANCH  11  12
HETATM   12  C   UNL     1     -11.541  10.395  70.353  1.00  0.00    -0.337 A  
HETATM   13 CL   UNL     1     -13.195  12.232  71.705  1.00  0.00    -0.509 Cl 
HETATM   14  C   UNL     1     -12.711   8.360  72.000  1.00  0.00    -0.399 A  
HETATM   15  C   UNL     1     -12.552  10.686  71.297  1.00  0.00    -0.427 A  
HETATM   16  C   UNL     1     -13.137   9.671  72.085  1.00  0.00    -0.520 A  
HETATM   17  C   UNL     1     -11.678   8.047  71.138  1.00  0.00    -0.307 A  
HETATM   18  C   UNL     1     -11.098   9.039  70.332  1.00  0.00    -0.244 A  
HETATM   19 CL   UNL     1      -9.783   8.463  69.336  1.00  0.00    -0.175 Cl 
ENDBRANCH  11  12
ENDBRANCH  10  11
BRANCH  10  20
HETATM   20  C   UNL     1     -11.485  12.335  66.601  1.00  0.00    -0.373 C  
BRANCH  20  21
HETATM   21  N   UNL     1     -11.065  13.592  65.994  1.00  0.00    -0.292 NA 
HETATM   22  C   UNL     1      -9.820  14.150  66.089  1.00  0.00    -0.308 A  
HETATM   23  N   UNL     1      -9.758  15.293  65.447  1.00  0.00    -0.276 NA 
HETATM   24  C   UNL     1     -11.861  14.473  65.319  1.00  0.00    -0.358 A  
HETATM   25  C   UNL     1     -11.023  15.503  64.959  1.00  0.00    -0.440 A  
ENDBRANCH  20  21
ENDBRANCH  10  20
ENDBRANCH   9  10
ENDBRANCH   8   9
ENDBRANCH   5   8
TORSDOF 7
ENDMDL
MODEL       84
REMARK 921   NORMALIZED FREE ENERGY PREDICTED BY IDOCK:   -5.80 KCAL/MOL
REMARK 922        TOTAL FREE ENERGY PREDICTED BY IDOCK:   -9.06 KCAL/MOL
REMARK 923 INTER-LIGAND FREE ENERGY PREDICTED BY IDOCK:   -7.96 KCAL/MOL
REMARK 924 INTRA-LIGAND FREE ENERGY PREDICTED BY IDOCK:   -1.10 KCAL/MOL
REMARK 927      BINDING AFFINITY PREDICTED BY RF-SCORE:    0.00 PKD
ROOT
HETATM    1 CL   UNL     1     -13.571  15.818  72.833  1.00  0.00    -0.660 Cl 
HETATM    2  C   UNL     1     -13.175  14.367  71.999  1.00  0.00    -0.369 A  
HETATM    3  C   UNL     1     -13.541  13.139  72.542  1.00  0.00    -0.595 A  
HETATM    4  C   UNL     1     -13.183  11.960  71.885  1.00  0.00    -0.467 A  
HETATM    5  C   UNL     1     -12.464  11.995  70.678  1.00  0.00    -0.335 A  
HETATM    6  C   UNL     1     -12.122  13.241  70.136  1.00  0.00    -0.403 A  
HETATM    7  C   UNL     1     -12.475  14.422  70.797  1.00  0.00    -0.423 A  
ENDROOT
BRANCH   5   8
HETATM    8  C   UNL     1     -12.000  10.711  70.024  1.00  0.00    -0.408 C  
BRANCH   8   9
HETATM    9  C   UNL     1     -11.475  10.910  68.601  1.00  0.00    -0.380 C  
BRANCH   9  10
HETATM   10  C   UNL     1      -9.940  10.813  68.458  1.00  0.00    -0.178 C  
BRANCH  10  11
HETATM   11  S   UNL     1      -9.349  11.927  67.116  1.00  0.00    -0.185 SA 
BRANCH  11  12
HETATM   12  C   UNL     1     -10.591  12.224  65.834  1.00  0.00    -0.256 A  
HETATM   13 CL   UNL     1     -12.061  14.360  66.937  1.00  0.00    -0.436 Cl 
HETATM   14  C   UNL     1     -12.312  12.418  63.548  1.00  0.00    -0.648 A  
HETATM   15  C   UNL     1     -11.605  13.205  65.742  1.00  0.00    -0.347 A  
HETATM   16  C   UNL     1     -12.430  13.306  64.600  1.00  0.00    -0.408 A  
HETATM   17  C   UNL     1     -11.378  11.404  63.630  1.00  0.00    -0.299 A  
HETATM   18  C   UNL     1     -10.536  11.300  64.748  1.00  0.00    -0.323 A  
HETATM   19 CL   UNL     1      -9.448   9.935  64.691  1.00  0.00    -0.352 Cl 
ENDBRANCH  11  12
ENDBRANCH  10  11
BRANCH  10  20
HETATM   20  C   UNL     1      -9.239   9.436  68.435  1.00  0.00    -0.127 C  
BRANCH  20  21
HETATM   21  N   UNL     1      -7.819   9.470  68.760  1.00  0.00    -0.083 NA 
HETATM   22  C   UNL     1      -7.278   9.893  69.944  1.00  0.00    -0.129 A  
HETATM   23  N   UNL     1      -5.968   9.819  69.925  1.00  0.00    -0.041 NA 
HETATM   24  C   UNL     1      -6.785   9.187  67.914  1.00  0.00    -0.068 A  
HETATM   25  C   UNL     1      -5.649   9.376  68.666  1.00  0.00    -0.040 A  
ENDBRANCH  20  21
ENDBRANCH  10  20
ENDBRANCH   9  10
ENDBRANCH   8   9
ENDBRANCH   5   8
TORSDOF 7
ENDMDL
MODEL       85
REMARK 921   NORMALIZED FREE ENERGY PREDICTED BY IDOCK:   -5.80 KCAL/MOL
REMARK 922        TOTAL FREE ENERGY PREDICTED BY IDOCK:   -9.06 KCAL/MOL
REMARK 923 INTER-LIGAND FREE ENERGY PREDICTED BY IDOCK:   -7.74 KCAL/MOL
REMARK 924 INTRA-LIGAND FREE ENERGY PREDICTED BY IDOCK:   -1.31 KCAL/MOL
REMARK 927      BINDING AFFINITY PREDICTED BY RF-SCORE:    0.00 PKD
ROOT
HETATM    1 CL   UNL     1      -9.519  10.592  62.604  1.00  0.00    -0.321 Cl 
HETATM    2  C   UNL     1     -10.152  10.923  64.169  1.00  0.00    -0.355 A  
HETATM    3  C   UNL     1     -10.957  12.041  64.364  1.00  0.00    -0.385 A  
HETATM    4  C   UNL     1     -11.437  12.332  65.643  1.00  0.00    -0.416 A  
HETATM    5  C   UNL     1     -11.124  11.506  66.736  1.00  0.00    -0.361 A  
HETATM    6  C   UNL     1     -10.329  10.374  66.518  1.00  0.00    -0.287 A  
HETATM    7  C   UNL     1      -9.844  10.086  65.238  1.00  0.00    -0.388 A  
ENDROOT
BRANCH   5   8
HETATM    8  C   UNL     1     -11.571  11.882  68.133  1.00  0.00    -0.400 C  
BRANCH   8   9
HETATM    9  C   UNL     1     -11.904  10.673  69.009  1.00  0.00    -0.256 C  
BRANCH   9  10
HETATM   10  C   UNL     1     -11.772  10.918  70.528  1.00  0.00    -0.342 C  
BRANCH  10  11
HETATM   11  S   UNL     1     -10.846   9.538  71.323  1.00  0.00    -0.292 SA 
BRANCH  11  12
HETATM   12  C   UNL     1     -10.069   8.419  70.132  1.00  0.00    -0.191 A  
HETATM   13 CL   UNL     1      -7.862   9.942  69.264  1.00  0.00    -0.105 Cl 
HETATM   14  C   UNL     1      -9.118   6.336  68.407  1.00  0.00    -0.114 A  
HETATM   15  C   UNL     1      -8.881   8.556  69.378  1.00  0.00    -0.141 A  
HETATM   16  C   UNL     1      -8.410   7.513  68.551  1.00  0.00    -0.126 A  
HETATM   17  C   UNL     1     -10.318   6.190  69.074  1.00  0.00    -0.263 A  
HETATM   18  C   UNL     1     -10.792   7.209  69.917  1.00  0.00    -0.254 A  
HETATM   19 CL   UNL     1     -12.342   6.862  70.644  1.00  0.00    -0.340 Cl 
ENDBRANCH  11  12
ENDBRANCH  10  11
BRANCH  10  20
HETATM   20  C   UNL     1     -12.993  11.369  71.361  1.00  0.00    -0.365 C  
BRANCH  20  21
HETATM   21  N   UNL     1     -13.071  12.804  71.604  1.00  0.00    -0.381 NA 
HETATM   22  C   UNL     1     -13.976  13.431  72.415  1.00  0.00    -0.504 A  
HETATM   23  N   UNL     1     -13.800  14.731  72.413  1.00  0.00    -0.454 NA 
HETATM   24  C   UNL     1     -12.328  13.772  70.990  1.00  0.00    -0.372 A  
HETATM   25  C   UNL     1     -12.773  14.956  71.532  1.00  0.00    -0.331 A  
ENDBRANCH  20  21
ENDBRANCH  10  20
ENDBRANCH   9  10
ENDBRANCH   8   9
ENDBRANCH   5   8
TORSDOF 7
ENDMDL
MODEL       86
REMARK 921   NORMALIZED FREE ENERGY PREDICTED BY IDOCK:   -5.79 KCAL/MOL
REMARK 922        TOTAL FREE ENERGY PREDICTED BY IDOCK:   -9.04 KCAL/MOL
REMARK 923 INTER-LIGAND FREE ENERGY PREDICTED BY IDOCK:   -7.56 KCAL/MOL
REMARK 924 INTRA-LIGAND FREE ENERGY PREDICTED BY IDOCK:   -1.47 KCAL/MOL
REMARK 927      BINDING AFFINITY PREDICTED BY RF-SCORE:    0.00 PKD
ROOT
HETATM    1 CL   UNL     1      -8.502   6.899  67.960  1.00  0.00    -0.124 Cl 
HETATM    2  C   UNL     1      -9.405   8.326  68.287  1.00  0.00    -0.134 A  
HETATM    3  C   UNL     1      -9.152   9.051  69.448  1.00  0.00    -0.146 A  
HETATM    4  C   UNL     1      -9.913  10.186  69.732  1.00  0.00    -0.258 A  
HETATM    5  C   UNL     1     -10.927  10.614  68.858  1.00  0.00    -0.296 A  
HETATM    6  C   UNL     1     -11.154   9.885  67.684  1.00  0.00    -0.170 A  
HETATM    7  C   UNL     1     -10.396   8.743  67.402  1.00  0.00    -0.349 A  
ENDROOT
BRANCH   5   8
HETATM    8  C   UNL     1     -11.807  11.791  69.222  1.00  0.00    -0.389 C  
BRANCH   8   9
HETATM    9  C   UNL     1     -11.062  13.127  69.225  1.00  0.00    -0.201 C  
BRANCH   9  10
HETATM   10  C   UNL     1     -11.680  14.214  68.319  1.00  0.00    -0.348 C  
BRANCH  10  11
HETATM   11  S   UNL     1     -10.542  14.611  66.926  1.00  0.00    -0.286 SA 
BRANCH  11  12
HETATM   12  C   UNL     1     -10.436  13.291  65.692  1.00  0.00    -0.281 A  
HETATM   13 CL   UNL     1      -8.287  11.755  66.672  1.00  0.00    -0.165 Cl 
HETATM   14  C   UNL     1     -10.661  11.358  63.586  1.00  0.00    -0.476 A  
HETATM   15  C   UNL     1      -9.598  12.154  65.627  1.00  0.00    -0.165 A  
HETATM   16  C   UNL     1      -9.735  11.197  64.598  1.00  0.00    -0.308 A  
HETATM   17  C   UNL     1     -11.452  12.490  63.577  1.00  0.00    -0.570 A  
HETATM   18  C   UNL     1     -11.343  13.443  64.602  1.00  0.00    -0.350 A  
HETATM   19 CL   UNL     1     -12.396  14.822  64.400  1.00  0.00    -0.478 Cl 
ENDBRANCH  11  12
ENDBRANCH  10  11
BRANCH  10  20
HETATM   20  C   UNL     1     -12.325  15.477  68.934  1.00  0.00     0.086 C  
BRANCH  20  21
HETATM   21  N   UNL     1     -12.442  15.456  70.386  1.00  0.00    -0.398 NA 
HETATM   22  C   UNL     1     -13.530  15.026  71.096  1.00  0.00    -0.437 A  
HETATM   23  N   UNL     1     -13.337  15.147  72.388  1.00  0.00    -0.382 NA 
HETATM   24  C   UNL     1     -11.538  15.954  71.281  1.00  0.00    -0.452 A  
HETATM   25  C   UNL     1     -12.097  15.721  72.516  1.00  0.00    -0.489 A  
ENDBRANCH  20  21
ENDBRANCH  10  20
ENDBRANCH   9  10
ENDBRANCH   8   9
ENDBRANCH   5   8
TORSDOF 7
ENDMDL
MODEL       87
REMARK 921   NORMALIZED FREE ENERGY PREDICTED BY IDOCK:   -5.78 KCAL/MOL
REMARK 922        TOTAL FREE ENERGY PREDICTED BY IDOCK:   -9.03 KCAL/MOL
REMARK 923 INTER-LIGAND FREE ENERGY PREDICTED BY IDOCK:   -7.42 KCAL/MOL
REMARK 924 INTRA-LIGAND FREE ENERGY PREDICTED BY IDOCK:   -1.60 KCAL/MOL
REMARK 927      BINDING AFFINITY PREDICTED BY RF-SCORE:    0.00 PKD
ROOT
HETATM    1 CL   UNL     1     -10.264   6.843  74.045  1.00  0.00    -0.392 Cl 
HETATM    2  C   UNL     1     -10.369   7.889  72.683  1.00  0.00    -0.308 A  
HETATM    3  C   UNL     1      -9.209   8.266  72.013  1.00  0.00    -0.270 A  
HETATM    4  C   UNL     1      -9.292   9.147  70.933  1.00  0.00    -0.335 A  
HETATM    5  C   UNL     1     -10.532   9.652  70.507  1.00  0.00    -0.367 A  
HETATM    6  C   UNL     1     -11.691   9.246  71.179  1.00  0.00    -0.394 A  
HETATM    7  C   UNL     1     -11.608   8.367  72.265  1.00  0.00    -0.453 A  
ENDROOT
BRANCH   5   8
HETATM    8  C   UNL     1     -10.600  10.678  69.395  1.00  0.00    -0.270 C  
BRANCH   8   9
HETATM    9  C   UNL     1     -11.257  10.149  68.120  1.00  0.00    -0.245 C  
BRANCH   9  10
HETATM   10  C   UNL     1     -10.328   9.317  67.210  1.00  0.00    -0.265 C  
BRANCH  10  11
HETATM   11  S   UNL     1      -9.945  10.243  65.664  1.00  0.00    -0.273 SA 
BRANCH  11  12
HETATM   12  C   UNL     1     -10.656  11.908  65.634  1.00  0.00    -0.268 A  
HETATM   13 CL   UNL     1     -12.775  11.599  63.803  1.00  0.00    -0.363 Cl 
HETATM   14  C   UNL     1     -11.517  14.625  65.941  1.00  0.00    -0.338 A  
HETATM   15  C   UNL     1     -11.787  12.415  64.956  1.00  0.00    -0.388 A  
HETATM   16  C   UNL     1     -12.215  13.749  65.134  1.00  0.00    -0.453 A  
HETATM   17  C   UNL     1     -10.367  14.186  66.569  1.00  0.00    -0.284 A  
HETATM   18  C   UNL     1      -9.937  12.858  66.419  1.00  0.00    -0.267 A  
HETATM   19 CL   UNL     1      -8.446  12.499  67.254  1.00  0.00    -0.178 Cl 
ENDBRANCH  11  12
ENDBRANCH  10  11
BRANCH  10  20
HETATM   20  C   UNL     1     -10.618   7.821  66.947  1.00  0.00    -0.277 C  
BRANCH  20  21
HETATM   21  N   UNL     1     -10.341   6.939  68.073  1.00  0.00    -0.179 NA 
HETATM   22  C   UNL     1      -9.115   6.435  68.413  1.00  0.00    -0.118 A  
HETATM   23  N   UNL     1      -9.192   5.658  69.467  1.00  0.00    -0.127 NA 
HETATM   24  C   UNL     1     -11.261   6.384  68.915  1.00  0.00    -0.307 A  
HETATM   25  C   UNL     1     -10.524   5.622  69.792  1.00  0.00    -0.306 A  
ENDBRANCH  20  21
ENDBRANCH  10  20
ENDBRANCH   9  10
ENDBRANCH   8   9
ENDBRANCH   5   8
TORSDOF 7
ENDMDL
MODEL       88
REMARK 921   NORMALIZED FREE ENERGY PREDICTED BY IDOCK:   -5.75 KCAL/MOL
REMARK 922        TOTAL FREE ENERGY PREDICTED BY IDOCK:   -8.99 KCAL/MOL
REMARK 923 INTER-LIGAND FREE ENERGY PREDICTED BY IDOCK:   -7.62 KCAL/MOL
REMARK 924 INTRA-LIGAND FREE ENERGY PREDICTED BY IDOCK:   -1.37 KCAL/MOL
REMARK 927      BINDING AFFINITY PREDICTED BY RF-SCORE:    0.00 PKD
ROOT
HETATM    1 CL   UNL     1     -12.215  13.981  64.047  1.00  0.00    -0.462 Cl 
HETATM    2  C   UNL     1     -12.049  13.351  65.640  1.00  0.00    -0.434 A  
HETATM    3  C   UNL     1     -12.158  14.205  66.733  1.00  0.00    -0.474 A  
HETATM    4  C   UNL     1     -11.983  13.701  68.023  1.00  0.00    -0.385 A  
HETATM    5  C   UNL     1     -11.706  12.340  68.235  1.00  0.00    -0.392 A  
HETATM    6  C   UNL     1     -11.620  11.490  67.124  1.00  0.00    -0.249 A  
HETATM    7  C   UNL     1     -11.790  11.997  65.831  1.00  0.00    -0.232 A  
ENDROOT
BRANCH   5   8
HETATM    8  C   UNL     1     -11.425  11.822  69.629  1.00  0.00    -0.341 C  
BRANCH   8   9
HETATM    9  C   UNL     1     -11.433  10.295  69.723  1.00  0.00    -0.320 C  
BRANCH   9  10
HETATM   10  C   UNL     1     -10.425   9.703  70.733  1.00  0.00    -0.305 C  
BRANCH  10  11
HETATM   11  S   UNL     1      -8.850   9.265  69.885  1.00  0.00    -0.204 SA 
BRANCH  11  12
HETATM   12  C   UNL     1      -8.901   9.536  68.096  1.00  0.00    -0.124 A  
HETATM   13 CL   UNL     1      -7.930  12.172  67.883  1.00  0.00    -0.139 Cl 
HETATM   14  C   UNL     1      -9.061   9.524  65.233  1.00  0.00    -0.276 A  
HETATM   15  C   UNL     1      -8.490  10.643  67.319  1.00  0.00    -0.126 A  
HETATM   16  C   UNL     1      -8.551  10.615  65.909  1.00  0.00    -0.177 A  
HETATM   17  C   UNL     1      -9.535   8.449  65.959  1.00  0.00    -0.224 A  
HETATM   18  C   UNL     1      -9.465   8.451  67.362  1.00  0.00    -0.147 A  
HETATM   19 CL   UNL     1     -10.147   7.026  68.106  1.00  0.00    -0.179 Cl 
ENDBRANCH  11  12
ENDBRANCH  10  11
BRANCH  10  20
HETATM   20  C   UNL     1     -10.870   8.627  71.748  1.00  0.00    -0.325 C  
BRANCH  20  21
HETATM   21  N   UNL     1     -12.313   8.466  71.874  1.00  0.00    -0.326 NA 
HETATM   22  C   UNL     1     -13.166   9.338  72.495  1.00  0.00    -0.366 A  
HETATM   23  N   UNL     1     -14.404   8.906  72.456  1.00  0.00    -0.586 NA 
HETATM   24  C   UNL     1     -13.046   7.379  71.489  1.00  0.00    -0.374 A  
HETATM   25  C   UNL     1     -14.343   7.688  71.828  1.00  0.00    -0.452 A  
ENDBRANCH  20  21
ENDBRANCH  10  20
ENDBRANCH   9  10
ENDBRANCH   8   9
ENDBRANCH   5   8
TORSDOF 7
ENDMDL
MODEL       89
REMARK 921   NORMALIZED FREE ENERGY PREDICTED BY IDOCK:   -5.75 KCAL/MOL
REMARK 922        TOTAL FREE ENERGY PREDICTED BY IDOCK:   -8.98 KCAL/MOL
REMARK 923 INTER-LIGAND FREE ENERGY PREDICTED BY IDOCK:   -7.82 KCAL/MOL
REMARK 924 INTRA-LIGAND FREE ENERGY PREDICTED BY IDOCK:   -1.17 KCAL/MOL
REMARK 927      BINDING AFFINITY PREDICTED BY RF-SCORE:    0.00 PKD
ROOT
HETATM    1 CL   UNL     1      -7.786  19.976  66.075  1.00  0.00    -0.328 Cl 
HETATM    2  C   UNL     1      -8.575  18.782  67.032  1.00  0.00    -0.282 A  
HETATM    3  C   UNL     1      -9.943  18.879  67.264  1.00  0.00    -0.386 A  
HETATM    4  C   UNL     1     -10.575  17.933  68.073  1.00  0.00    -0.366 A  
HETATM    5  C   UNL     1      -9.849  16.878  68.652  1.00  0.00    -0.270 A  
HETATM    6  C   UNL     1      -8.476  16.784  68.391  1.00  0.00    -0.231 A  
HETATM    7  C   UNL     1      -7.842  17.736  67.584  1.00  0.00    -0.212 A  
ENDROOT
BRANCH   5   8
HETATM    8  C   UNL     1     -10.525  15.913  69.602  1.00  0.00    -0.295 C  
BRANCH   8   9
HETATM    9  C   UNL     1     -11.440  14.909  68.899  1.00  0.00    -0.320 C  
BRANCH   9  10
HETATM   10  C   UNL     1     -10.874  13.476  68.799  1.00  0.00    -0.253 C  
BRANCH  10  11
HETATM   11  S   UNL     1      -9.532  13.402  67.540  1.00  0.00    -0.229 SA 
BRANCH  11  12
HETATM   12  C   UNL     1     -10.029  12.567  66.013  1.00  0.00    -0.257 A  
HETATM   13 CL   UNL     1      -8.995   9.976  66.408  1.00  0.00    -0.159 Cl 
HETATM   14  C   UNL     1     -11.070  11.609  63.519  1.00  0.00    -0.476 A  
HETATM   15  C   UNL     1      -9.869  11.224  65.602  1.00  0.00    -0.234 A  
HETATM   16  C   UNL     1     -10.407  10.759  64.383  1.00  0.00    -0.405 A  
HETATM   17  C   UNL     1     -11.188  12.944  63.853  1.00  0.00    -0.471 A  
HETATM   18  C   UNL     1     -10.676  13.421  65.070  1.00  0.00    -0.343 A  
HETATM   19 CL   UNL     1     -10.885  15.139  65.301  1.00  0.00    -0.383 Cl 
ENDBRANCH  11  12
ENDBRANCH  10  11
BRANCH  10  20
HETATM   20  C   UNL     1     -11.824  12.259  68.723  1.00  0.00    -0.306 C  
BRANCH  20  21
HETATM   21  N   UNL     1     -11.524  11.192  69.670  1.00  0.00    -0.282 NA 
HETATM   22  C   UNL     1     -12.206  10.935  70.829  1.00  0.00    -0.383 A  
HETATM   23  N   UNL     1     -11.685   9.919  71.474  1.00  0.00    -0.372 NA 
HETATM   24  C   UNL     1     -10.460  10.338  69.621  1.00  0.00    -0.253 A  
HETATM   25  C   UNL     1     -10.599   9.535  70.730  1.00  0.00    -0.317 A  
ENDBRANCH  20  21
ENDBRANCH  10  20
ENDBRANCH   9  10
ENDBRANCH   8   9
ENDBRANCH   5   8
TORSDOF 7
ENDMDL
MODEL       90
REMARK 921   NORMALIZED FREE ENERGY PREDICTED BY IDOCK:   -5.74 KCAL/MOL
REMARK 922        TOTAL FREE ENERGY PREDICTED BY IDOCK:   -8.97 KCAL/MOL
REMARK 923 INTER-LIGAND FREE ENERGY PREDICTED BY IDOCK:   -8.17 KCAL/MOL
REMARK 924 INTRA-LIGAND FREE ENERGY PREDICTED BY IDOCK:   -0.81 KCAL/MOL
REMARK 927      BINDING AFFINITY PREDICTED BY RF-SCORE:    0.00 PKD
ROOT
HETATM    1 CL   UNL     1      -9.564   2.798  70.979  1.00  0.00    -0.226 Cl 
HETATM    2  C   UNL     1      -9.888   4.128  69.938  1.00  0.00    -0.162 A  
HETATM    3  C   UNL     1     -10.573   5.236  70.428  1.00  0.00    -0.278 A  
HETATM    4  C   UNL     1     -10.871   6.297  69.571  1.00  0.00    -0.404 A  
HETATM    5  C   UNL     1     -10.483   6.267  68.221  1.00  0.00    -0.277 A  
HETATM    6  C   UNL     1      -9.776   5.154  67.750  1.00  0.00    -0.182 A  
HETATM    7  C   UNL     1      -9.482   4.087  68.607  1.00  0.00    -0.220 A  
ENDROOT
BRANCH   5   8
HETATM    8  C   UNL     1     -10.892   7.380  67.280  1.00  0.00    -0.326 C  
BRANCH   8   9
HETATM    9  C   UNL     1      -9.959   8.591  67.329  1.00  0.00    -0.289 C  
BRANCH   9  10
HETATM   10  C   UNL     1     -10.432   9.737  68.249  1.00  0.00    -0.216 C  
BRANCH  10  11
HETATM   11  S   UNL     1      -9.946  11.368  67.545  1.00  0.00    -0.184 SA 
BRANCH  11  12
HETATM   12  C   UNL     1     -10.726  11.720  65.950  1.00  0.00    -0.282 A  
HETATM   13 CL   UNL     1      -9.233  10.090  64.203  1.00  0.00    -0.297 Cl 
HETATM   14  C   UNL     1     -12.281  12.485  63.665  1.00  0.00    -0.642 A  
HETATM   15  C   UNL     1     -10.485  11.180  64.666  1.00  0.00    -0.335 A  
HETATM   16  C   UNL     1     -11.274  11.547  63.554  1.00  0.00    -0.412 A  
HETATM   17  C   UNL     1     -12.503  13.086  64.889  1.00  0.00    -0.512 A  
HETATM   18  C   UNL     1     -11.742  12.720  66.011  1.00  0.00    -0.418 A  
HETATM   19 CL   UNL     1     -12.140  13.613  67.458  1.00  0.00    -0.390 Cl 
ENDBRANCH  11  12
ENDBRANCH  10  11
BRANCH  10  20
HETATM   20  C   UNL     1     -10.210   9.663  69.777  1.00  0.00    -0.237 C  
BRANCH  20  21
HETATM   21  N   UNL     1     -11.371  10.022  70.580  1.00  0.00    -0.323 NA 
HETATM   22  C   UNL     1     -12.043   9.189  71.434  1.00  0.00    -0.337 A  
HETATM   23  N   UNL     1     -13.056   9.801  72.001  1.00  0.00    -0.440 NA 
HETATM   24  C   UNL     1     -12.049  11.207  70.544  1.00  0.00    -0.381 A  
HETATM   25  C   UNL     1     -13.068  11.060  71.457  1.00  0.00    -0.396 A  
ENDBRANCH  20  21
ENDBRANCH  10  20
ENDBRANCH   9  10
ENDBRANCH   8   9
ENDBRANCH   5   8
TORSDOF 7
ENDMDL
MODEL       91
REMARK 921   NORMALIZED FREE ENERGY PREDICTED BY IDOCK:   -5.74 KCAL/MOL
REMARK 922        TOTAL FREE ENERGY PREDICTED BY IDOCK:   -8.97 KCAL/MOL
REMARK 923 INTER-LIGAND FREE ENERGY PREDICTED BY IDOCK:   -8.10 KCAL/MOL
REMARK 924 INTRA-LIGAND FREE ENERGY PREDICTED BY IDOCK:   -0.87 KCAL/MOL
REMARK 927      BINDING AFFINITY PREDICTED BY RF-SCORE:    0.00 PKD
ROOT
HETATM    1 CL   UNL     1      -9.426   9.978  63.224  1.00  0.00    -0.307 Cl 
HETATM    2  C   UNL     1     -10.121  11.175  64.247  1.00  0.00    -0.326 A  
HETATM    3  C   UNL     1     -10.407  12.437  63.734  1.00  0.00    -0.454 A  
HETATM    4  C   UNL     1     -10.933  13.420  64.575  1.00  0.00    -0.404 A  
HETATM    5  C   UNL     1     -11.186  13.151  65.931  1.00  0.00    -0.311 A  
HETATM    6  C   UNL     1     -10.911  11.870  66.424  1.00  0.00    -0.337 A  
HETATM    7  C   UNL     1     -10.379  10.886  65.584  1.00  0.00    -0.305 A  
ENDROOT
BRANCH   5   8
HETATM    8  C   UNL     1     -11.668  14.251  66.853  1.00  0.00    -0.430 C  
BRANCH   8   9
HETATM    9  C   UNL     1     -10.535  15.109  67.418  1.00  0.00    -0.264 C  
BRANCH   9  10
HETATM   10  C   UNL     1     -10.924  15.977  68.634  1.00  0.00    -0.323 C  
BRANCH  10  11
HETATM   11  S   UNL     1     -10.636  17.759  68.270  1.00  0.00    -0.261 SA 
BRANCH  11  12
HETATM   12  C   UNL     1      -8.999  18.091  67.572  1.00  0.00    -0.249 A  
HETATM   13 CL   UNL     1      -7.328  16.609  69.290  1.00  0.00    -0.225 Cl 
HETATM   14  C   UNL     1      -6.629  18.796  66.121  1.00  0.00    -0.256 A  
HETATM   15  C   UNL     1      -7.725  17.598  67.935  1.00  0.00    -0.216 A  
HETATM   16  C   UNL     1      -6.569  17.934  67.198  1.00  0.00    -0.196 A  
HETATM   17  C   UNL     1      -7.845  19.352  65.776  1.00  0.00    -0.120 A  
HETATM   18  C   UNL     1      -9.009  19.015  66.486  1.00  0.00    -0.330 A  
HETATM   19 CL   UNL     1     -10.442  19.845  65.931  1.00  0.00    -0.607 Cl 
ENDBRANCH  11  12
ENDBRANCH  10  11
BRANCH  10  20
HETATM   20  C   UNL     1     -10.471  15.583  70.059  1.00  0.00    -0.309 C  
BRANCH  20  21
HETATM   21  N   UNL     1     -11.536  15.096  70.925  1.00  0.00    -0.312 NA 
HETATM   22  C   UNL     1     -12.473  14.156  70.591  1.00  0.00    -0.362 A  
HETATM   23  N   UNL     1     -13.309  13.940  71.579  1.00  0.00    -0.346 NA 
HETATM   24  C   UNL     1     -11.847  15.561  72.171  1.00  0.00    -0.462 A  
HETATM   25  C   UNL     1     -12.927  14.807  72.571  1.00  0.00    -0.392 A  
ENDBRANCH  20  21
ENDBRANCH  10  20
ENDBRANCH   9  10
ENDBRANCH   8   9
ENDBRANCH   5   8
TORSDOF 7
ENDMDL
MODEL       92
REMARK 921   NORMALIZED FREE ENERGY PREDICTED BY IDOCK:   -5.73 KCAL/MOL
REMARK 922        TOTAL FREE ENERGY PREDICTED BY IDOCK:   -8.96 KCAL/MOL
REMARK 923 INTER-LIGAND FREE ENERGY PREDICTED BY IDOCK:   -7.98 KCAL/MOL
REMARK 924 INTRA-LIGAND FREE ENERGY PREDICTED BY IDOCK:   -0.98 KCAL/MOL
REMARK 927      BINDING AFFINITY PREDICTED BY RF-SCORE:    0.00 PKD
ROOT
HETATM    1 CL   UNL     1      -6.883  20.446  66.026  1.00  0.00    -0.277 Cl 
HETATM    2  C   UNL     1      -7.302  19.042  66.928  1.00  0.00    -0.210 A  
HETATM    3  C   UNL     1      -7.952  17.986  66.296  1.00  0.00    -0.276 A  
HETATM    4  C   UNL     1      -8.328  16.865  67.038  1.00  0.00    -0.227 A  
HETATM    5  C   UNL     1      -8.052  16.784  68.414  1.00  0.00    -0.219 A  
HETATM    6  C   UNL     1      -7.380  17.847  69.029  1.00  0.00    -0.194 A  
HETATM    7  C   UNL     1      -7.008  18.973  68.287  1.00  0.00    -0.284 A  
ENDROOT
BRANCH   5   8
HETATM    8  C   UNL     1      -8.547  15.606  69.226  1.00  0.00    -0.262 C  
BRANCH   8   9
HETATM    9  C   UNL     1      -9.594  14.762  68.496  1.00  0.00    -0.218 C  
BRANCH   9  10
HETATM   10  C   UNL     1     -10.870  14.465  69.313  1.00  0.00    -0.239 C  
BRANCH  10  11
HETATM   11  S   UNL     1     -11.803  13.066  68.561  1.00  0.00    -0.286 SA 
BRANCH  11  12
HETATM   12  C   UNL     1     -11.583  11.502  69.446  1.00  0.00    -0.321 A  
HETATM   13 CL   UNL     1     -13.126  11.929  71.764  1.00  0.00    -0.537 Cl 
HETATM   14  C   UNL     1     -11.049   8.877  70.467  1.00  0.00    -0.288 A  
HETATM   15  C   UNL     1     -12.143  11.043  70.660  1.00  0.00    -0.373 A  
HETATM   16  C   UNL     1     -11.892   9.739  71.140  1.00  0.00    -0.466 A  
HETATM   17  C   UNL     1     -10.428   9.312  69.312  1.00  0.00    -0.228 A  
HETATM   18  C   UNL     1     -10.682  10.598  68.809  1.00  0.00    -0.215 A  
HETATM   19 CL   UNL     1      -9.779  10.984  67.364  1.00  0.00    -0.184 Cl 
ENDBRANCH  11  12
ENDBRANCH  10  11
BRANCH  10  20
HETATM   20  C   UNL     1     -11.796  15.615  69.771  1.00  0.00    -0.363 C  
BRANCH  20  21
HETATM   21  N   UNL     1     -12.370  15.443  71.099  1.00  0.00    -0.349 NA 
HETATM   22  C   UNL     1     -13.704  15.451  71.403  1.00  0.00    -0.504 A  
HETATM   23  N   UNL     1     -13.903  15.289  72.689  1.00  0.00    -0.494 NA 
HETATM   24  C   UNL     1     -11.681  15.351  72.275  1.00  0.00    -0.469 A  
HETATM   25  C   UNL     1     -12.650  15.221  73.243  1.00  0.00    -0.499 A  
ENDBRANCH  20  21
ENDBRANCH  10  20
ENDBRANCH   9  10
ENDBRANCH   8   9
ENDBRANCH   5   8
TORSDOF 7
ENDMDL
MODEL       93
REMARK 921   NORMALIZED FREE ENERGY PREDICTED BY IDOCK:   -5.72 KCAL/MOL
REMARK 922        TOTAL FREE ENERGY PREDICTED BY IDOCK:   -8.95 KCAL/MOL
REMARK 923 INTER-LIGAND FREE ENERGY PREDICTED BY IDOCK:   -7.92 KCAL/MOL
REMARK 924 INTRA-LIGAND FREE ENERGY PREDICTED BY IDOCK:   -1.03 KCAL/MOL
REMARK 927      BINDING AFFINITY PREDICTED BY RF-SCORE:    0.00 PKD
ROOT
HETATM    1 CL   UNL     1     -10.450   6.945  74.038  1.00  0.00    -0.372 Cl 
HETATM    2  C   UNL     1     -10.847   8.080  72.807  1.00  0.00    -0.369 A  
HETATM    3  C   UNL     1     -12.177   8.429  72.593  1.00  0.00    -0.302 A  
HETATM    4  C   UNL     1     -12.501   9.319  71.567  1.00  0.00    -0.435 A  
HETATM    5  C   UNL     1     -11.501   9.875  70.752  1.00  0.00    -0.433 A  
HETATM    6  C   UNL     1     -10.166   9.529  70.994  1.00  0.00    -0.332 A  
HETATM    7  C   UNL     1      -9.841   8.633  72.018  1.00  0.00    -0.396 A  
ENDROOT
BRANCH   5   8
HETATM    8  C   UNL     1     -11.872  10.764  69.584  1.00  0.00    -0.392 C  
BRANCH   8   9
HETATM    9  C   UNL     1     -11.074  10.464  68.314  1.00  0.00    -0.338 C  
BRANCH   9  10
HETATM   10  C   UNL     1     -10.593  11.711  67.541  1.00  0.00    -0.209 C  
BRANCH  10  11
HETATM   11  S   UNL     1      -9.384  12.666  68.551  1.00  0.00    -0.006 SA 
BRANCH  11  12
HETATM   12  C   UNL     1      -9.883  14.384  68.827  1.00  0.00    -0.214 A  
HETATM   13 CL   UNL     1     -12.073  14.077  70.573  1.00  0.00    -0.408 Cl 
HETATM   14  C   UNL     1     -10.287  17.213  69.059  1.00  0.00    -0.331 A  
HETATM   15  C   UNL     1     -10.889  14.931  69.656  1.00  0.00    -0.253 A  
HETATM   16  C   UNL     1     -11.062  16.327  69.780  1.00  0.00    -0.337 A  
HETATM   17  C   UNL     1      -9.338  16.717  68.187  1.00  0.00    -0.234 A  
HETATM   18  C   UNL     1      -9.139  15.333  68.065  1.00  0.00    -0.176 A  
HETATM   19 CL   UNL     1      -7.925  14.894  66.887  1.00  0.00    -0.159 Cl 
ENDBRANCH  11  12
ENDBRANCH  10  11
BRANCH  10  20
HETATM   20  C   UNL     1     -11.606  12.623  66.812  1.00  0.00    -0.374 C  
BRANCH  20  21
HETATM   21  N   UNL     1     -11.604  12.497  65.360  1.00  0.00    -0.357 NA 
HETATM   22  C   UNL     1     -10.664  11.841  64.614  1.00  0.00    -0.310 A  
HETATM   23  N   UNL     1     -10.930  11.918  63.332  1.00  0.00    -0.407 NA 
HETATM   24  C   UNL     1     -12.474  13.094  64.492  1.00  0.00    -0.342 A  
HETATM   25  C   UNL     1     -12.058  12.694  63.243  1.00  0.00    -0.433 A  
ENDBRANCH  20  21
ENDBRANCH  10  20
ENDBRANCH   9  10
ENDBRANCH   8   9
ENDBRANCH   5   8
TORSDOF 7
ENDMDL
MODEL       94
REMARK 921   NORMALIZED FREE ENERGY PREDICTED BY IDOCK:   -5.72 KCAL/MOL
REMARK 922        TOTAL FREE ENERGY PREDICTED BY IDOCK:   -8.94 KCAL/MOL
REMARK 923 INTER-LIGAND FREE ENERGY PREDICTED BY IDOCK:   -8.15 KCAL/MOL
REMARK 924 INTRA-LIGAND FREE ENERGY PREDICTED BY IDOCK:   -0.79 KCAL/MOL
REMARK 927      BINDING AFFINITY PREDICTED BY RF-SCORE:    0.00 PKD
ROOT
HETATM    1 CL   UNL     1     -11.268   6.273  72.063  1.00  0.00    -0.309 Cl 
HETATM    2  C   UNL     1     -11.414   7.849  71.388  1.00  0.00    -0.260 A  
HETATM    3  C   UNL     1     -12.133   8.826  72.070  1.00  0.00    -0.447 A  
HETATM    4  C   UNL     1     -12.285  10.093  71.503  1.00  0.00    -0.473 A  
HETATM    5  C   UNL     1     -11.715  10.399  70.256  1.00  0.00    -0.406 A  
HETATM    6  C   UNL     1     -10.978   9.410  69.593  1.00  0.00    -0.216 A  
HETATM    7  C   UNL     1     -10.830   8.138  70.158  1.00  0.00    -0.241 A  
ENDROOT
BRANCH   5   8
HETATM    8  C   UNL     1     -11.965  11.744  69.608  1.00  0.00    -0.378 C  
BRANCH   8   9
HETATM    9  C   UNL     1     -11.573  11.788  68.130  1.00  0.00    -0.391 C  
BRANCH   9  10
HETATM   10  C   UNL     1     -10.718  13.008  67.723  1.00  0.00    -0.229 C  
BRANCH  10  11
HETATM   11  S   UNL     1     -11.800  14.440  67.307  1.00  0.00    -0.376 SA 
BRANCH  11  12
HETATM   12  C   UNL     1     -11.027  16.041  67.645  1.00  0.00    -0.284 A  
HETATM   13 CL   UNL     1     -11.329  16.250  70.439  1.00  0.00    -0.368 Cl 
HETATM   14  C   UNL     1      -9.656  18.557  67.757  1.00  0.00    -0.311 A  
HETATM   15  C   UNL     1     -10.795  16.714  68.867  1.00  0.00    -0.321 A  
HETATM   16  C   UNL     1     -10.098  17.941  68.911  1.00  0.00    -0.349 A  
HETATM   17  C   UNL     1      -9.923  17.966  66.538  1.00  0.00    -0.357 A  
HETATM   18  C   UNL     1     -10.598  16.736  66.476  1.00  0.00    -0.198 A  
HETATM   19 CL   UNL     1     -10.877  16.163  64.850  1.00  0.00    -0.429 Cl 
ENDBRANCH  11  12
ENDBRANCH  10  11
BRANCH  10  20
HETATM   20  C   UNL     1      -9.541  12.849  66.734  1.00  0.00    -0.246 C  
BRANCH  20  21
HETATM   21  N   UNL     1      -9.854  12.084  65.533  1.00  0.00    -0.238 NA 
HETATM   22  C   UNL     1      -9.454  10.802  65.273  1.00  0.00    -0.218 A  
HETATM   23  N   UNL     1      -9.880  10.396  64.101  1.00  0.00    -0.328 NA 
HETATM   24  C   UNL     1     -10.504  12.545  64.423  1.00  0.00    -0.359 A  
HETATM   25  C   UNL     1     -10.540  11.472  63.563  1.00  0.00    -0.423 A  
ENDBRANCH  20  21
ENDBRANCH  10  20
ENDBRANCH   9  10
ENDBRANCH   8   9
ENDBRANCH   5   8
TORSDOF 7
ENDMDL
MODEL       95
REMARK 921   NORMALIZED FREE ENERGY PREDICTED BY IDOCK:   -5.71 KCAL/MOL
REMARK 922        TOTAL FREE ENERGY PREDICTED BY IDOCK:   -8.93 KCAL/MOL
REMARK 923 INTER-LIGAND FREE ENERGY PREDICTED BY IDOCK:   -7.90 KCAL/MOL
REMARK 924 INTRA-LIGAND FREE ENERGY PREDICTED BY IDOCK:   -1.03 KCAL/MOL
REMARK 927      BINDING AFFINITY PREDICTED BY RF-SCORE:    0.00 PKD
ROOT
HETATM    1 CL   UNL     1      -7.830   9.011  62.631  1.00  0.00    -0.122 Cl 
HETATM    2  C   UNL     1      -8.991  10.002  63.425  1.00  0.00    -0.257 A  
HETATM    3  C   UNL     1      -9.565  11.071  62.743  1.00  0.00    -0.337 A  
HETATM    4  C   UNL     1     -10.477  11.899  63.402  1.00  0.00    -0.487 A  
HETATM    5  C   UNL     1     -10.829  11.664  64.741  1.00  0.00    -0.367 A  
HETATM    6  C   UNL     1     -10.258  10.571  65.405  1.00  0.00    -0.340 A  
HETATM    7  C   UNL     1      -9.340   9.745  64.748  1.00  0.00    -0.327 A  
ENDROOT
BRANCH   5   8
HETATM    8  C   UNL     1     -11.746  12.622  65.472  1.00  0.00    -0.446 C  
BRANCH   8   9
HETATM    9  C   UNL     1     -11.839  12.347  66.974  1.00  0.00    -0.368 C  
BRANCH   9  10
HETATM   10  C   UNL     1     -11.264  13.462  67.873  1.00  0.00    -0.275 C  
BRANCH  10  11
HETATM   11  S   UNL     1      -9.789  14.229  67.081  1.00  0.00    -0.258 SA 
BRANCH  11  12
HETATM   12  C   UNL     1      -9.912  16.029  66.932  1.00  0.00    -0.251 A  
HETATM   13 CL   UNL     1     -11.243  16.315  64.465  1.00  0.00    -0.378 Cl 
HETATM   14  C   UNL     1      -9.973  18.889  67.124  1.00  0.00    -0.382 A  
HETATM   15  C   UNL     1     -10.527  16.832  65.945  1.00  0.00    -0.301 A  
HETATM   16  C   UNL     1     -10.572  18.239  66.063  1.00  0.00    -0.318 A  
HETATM   17  C   UNL     1      -9.304  18.144  68.075  1.00  0.00    -0.289 A  
HETATM   18  C   UNL     1      -9.266  16.743  67.984  1.00  0.00    -0.228 A  
HETATM   19 CL   UNL     1      -8.343  15.977  69.253  1.00  0.00    -0.245 Cl 
ENDBRANCH  11  12
ENDBRANCH  10  11
BRANCH  10  20
HETATM   20  C   UNL     1     -11.068  13.228  69.388  1.00  0.00    -0.090 C  
BRANCH  20  21
HETATM   21  N   UNL     1     -11.973  13.982  70.245  1.00  0.00    -0.325 NA 
HETATM   22  C   UNL     1     -12.837  13.450  71.163  1.00  0.00    -0.291 A  
HETATM   23  N   UNL     1     -13.531  14.386  71.766  1.00  0.00    -0.348 NA 
HETATM   24  C   UNL     1     -12.191  15.330  70.209  1.00  0.00    -0.363 A  
HETATM   25  C   UNL     1     -13.134  15.563  71.183  1.00  0.00    -0.507 A  
ENDBRANCH  20  21
ENDBRANCH  10  20
ENDBRANCH   9  10
ENDBRANCH   8   9
ENDBRANCH   5   8
TORSDOF 7
ENDMDL
MODEL       96
REMARK 921   NORMALIZED FREE ENERGY PREDICTED BY IDOCK:   -5.71 KCAL/MOL
REMARK 922        TOTAL FREE ENERGY PREDICTED BY IDOCK:   -8.92 KCAL/MOL
REMARK 923 INTER-LIGAND FREE ENERGY PREDICTED BY IDOCK:   -7.59 KCAL/MOL
REMARK 924 INTRA-LIGAND FREE ENERGY PREDICTED BY IDOCK:   -1.33 KCAL/MOL
REMARK 927      BINDING AFFINITY PREDICTED BY RF-SCORE:    0.00 PKD
ROOT
HETATM    1 CL   UNL     1      -7.803   8.787  64.854  1.00  0.00    -0.113 Cl 
HETATM    2  C   UNL     1      -8.696   9.767  65.950  1.00  0.00    -0.139 A  
HETATM    3  C   UNL     1     -10.017   9.443  66.244  1.00  0.00    -0.353 A  
HETATM    4  C   UNL     1     -10.753  10.263  67.102  1.00  0.00    -0.303 A  
HETATM    5  C   UNL     1     -10.177  11.407  67.680  1.00  0.00    -0.204 A  
HETATM    6  C   UNL     1      -8.840  11.706  67.388  1.00  0.00    -0.160 A  
HETATM    7  C   UNL     1      -8.103  10.888  66.524  1.00  0.00    -0.154 A  
ENDROOT
BRANCH   5   8
HETATM    8  C   UNL     1     -11.012  12.338  68.533  1.00  0.00    -0.275 C  
BRANCH   8   9
HETATM    9  C   UNL     1     -10.479  13.772  68.566  1.00  0.00    -0.248 C  
BRANCH   9  10
HETATM   10  C   UNL     1     -10.816  14.617  67.318  1.00  0.00    -0.305 C  
BRANCH  10  11
HETATM   11  S   UNL     1     -10.730  16.413  67.716  1.00  0.00    -0.307 SA 
BRANCH  11  12
HETATM   12  C   UNL     1      -9.243  17.218  67.071  1.00  0.00    -0.243 A  
HETATM   13 CL   UNL     1      -7.359  15.126  67.180  1.00  0.00    -0.209 Cl 
HETATM   14  C   UNL     1      -7.162  18.830  65.934  1.00  0.00    -0.270 A  
HETATM   15  C   UNL     1      -7.953  16.701  66.811  1.00  0.00    -0.249 A  
HETATM   16  C   UNL     1      -6.944  17.499  66.229  1.00  0.00    -0.332 A  
HETATM   17  C   UNL     1      -8.388  19.391  66.235  1.00  0.00    -0.346 A  
HETATM   18  C   UNL     1      -9.409  18.608  66.797  1.00  0.00    -0.308 A  
HETATM   19 CL   UNL     1     -10.872  19.497  67.144  1.00  0.00    -0.596 Cl 
ENDBRANCH  11  12
ENDBRANCH  10  11
BRANCH  10  20
HETATM   20  C   UNL     1     -12.034  14.264  66.434  1.00  0.00    -0.419 C  
BRANCH  20  21
HETATM   21  N   UNL     1     -11.736  13.396  65.302  1.00  0.00    -0.312 NA 
HETATM   22  C   UNL     1     -10.597  13.431  64.545  1.00  0.00    -0.425 A  
HETATM   23  N   UNL     1     -10.631  12.535  63.587  1.00  0.00    -0.433 NA 
HETATM   24  C   UNL     1     -12.575  12.477  64.740  1.00  0.00    -0.413 A  
HETATM   25  C   UNL     1     -11.857  11.931  63.701  1.00  0.00    -0.473 A  
ENDBRANCH  20  21
ENDBRANCH  10  20
ENDBRANCH   9  10
ENDBRANCH   8   9
ENDBRANCH   5   8
TORSDOF 7
ENDMDL
MODEL       97
REMARK 921   NORMALIZED FREE ENERGY PREDICTED BY IDOCK:   -5.71 KCAL/MOL
REMARK 922        TOTAL FREE ENERGY PREDICTED BY IDOCK:   -8.92 KCAL/MOL
REMARK 923 INTER-LIGAND FREE ENERGY PREDICTED BY IDOCK:   -7.80 KCAL/MOL
REMARK 924 INTRA-LIGAND FREE ENERGY PREDICTED BY IDOCK:   -1.12 KCAL/MOL
REMARK 927      BINDING AFFINITY PREDICTED BY RF-SCORE:    0.00 PKD
ROOT
HETATM    1 CL   UNL     1     -12.410  15.033  64.205  1.00  0.00    -0.410 Cl 
HETATM    2  C   UNL     1     -11.739  13.497  64.594  1.00  0.00    -0.381 A  
HETATM    3  C   UNL     1     -11.442  13.190  65.918  1.00  0.00    -0.366 A  
HETATM    4  C   UNL     1     -10.860  11.959  66.227  1.00  0.00    -0.323 A  
HETATM    5  C   UNL     1     -10.577  11.021  65.221  1.00  0.00    -0.283 A  
HETATM    6  C   UNL     1     -10.902  11.338  63.896  1.00  0.00    -0.427 A  
HETATM    7  C   UNL     1     -11.480  12.573  63.585  1.00  0.00    -0.568 A  
ENDROOT
BRANCH   5   8
HETATM    8  C   UNL     1      -9.862   9.729  65.556  1.00  0.00    -0.378 C  
BRANCH   8   9
HETATM    9  C   UNL     1      -9.004   9.821  66.819  1.00  0.00    -0.156 C  
BRANCH   9  10
HETATM   10  C   UNL     1      -9.520   8.990  68.014  1.00  0.00    -0.142 C  
BRANCH  10  11
HETATM   11  S   UNL     1      -9.595  10.029  69.533  1.00  0.00    -0.226 SA 
BRANCH  11  12
HETATM   12  C   UNL     1     -11.038   9.679  70.567  1.00  0.00    -0.308 A  
HETATM   13 CL   UNL     1     -10.583   6.999  71.308  1.00  0.00    -0.234 Cl 
HETATM   14  C   UNL     1     -13.401   9.568  72.188  1.00  0.00    -0.545 A  
HETATM   15  C   UNL     1     -11.389   8.523  71.300  1.00  0.00    -0.271 A  
HETATM   16  C   UNL     1     -12.543   8.489  72.114  1.00  0.00    -0.431 A  
HETATM   17  C   UNL     1     -13.129  10.693  71.434  1.00  0.00    -0.499 A  
HETATM   18  C   UNL     1     -11.976  10.752  70.635  1.00  0.00    -0.367 A  
HETATM   19 CL   UNL     1     -11.820  12.236  69.726  1.00  0.00    -0.398 Cl 
ENDBRANCH  11  12
ENDBRANCH  10  11
BRANCH  10  20
HETATM   20  C   UNL     1      -8.958   7.577  68.290  1.00  0.00    -0.130 C  
BRANCH  20  21
HETATM   21  N   UNL     1      -9.433   6.543  67.380  1.00  0.00    -0.123 NA 
HETATM   22  C   UNL     1      -8.657   5.813  66.522  1.00  0.00    -0.121 A  
HETATM   23  N   UNL     1      -9.379   4.971  65.822  1.00  0.00    -0.158 NA 
HETATM   24  C   UNL     1     -10.735   6.198  67.152  1.00  0.00    -0.346 A  
HETATM   25  C   UNL     1     -10.676   5.198  66.209  1.00  0.00    -0.209 A  
ENDBRANCH  20  21
ENDBRANCH  10  20
ENDBRANCH   9  10
ENDBRANCH   8   9
ENDBRANCH   5   8
TORSDOF 7
ENDMDL
MODEL       98
REMARK 921   NORMALIZED FREE ENERGY PREDICTED BY IDOCK:   -5.68 KCAL/MOL
REMARK 922        TOTAL FREE ENERGY PREDICTED BY IDOCK:   -8.89 KCAL/MOL
REMARK 923 INTER-LIGAND FREE ENERGY PREDICTED BY IDOCK:   -7.75 KCAL/MOL
REMARK 924 INTRA-LIGAND FREE ENERGY PREDICTED BY IDOCK:   -1.14 KCAL/MOL
REMARK 927      BINDING AFFINITY PREDICTED BY RF-SCORE:    0.00 PKD
ROOT
HETATM    1 CL   UNL     1     -13.579  15.908  73.139  1.00  0.00    -0.649 Cl 
HETATM    2  C   UNL     1     -13.045  14.770  71.963  1.00  0.00    -0.337 A  
HETATM    3  C   UNL     1     -12.446  15.222  70.791  1.00  0.00    -0.457 A  
HETATM    4  C   UNL     1     -12.050  14.300  69.819  1.00  0.00    -0.401 A  
HETATM    5  C   UNL     1     -12.242  12.921  70.011  1.00  0.00    -0.292 A  
HETATM    6  C   UNL     1     -12.828  12.484  71.206  1.00  0.00    -0.337 A  
HETATM    7  C   UNL     1     -13.230  13.407  72.177  1.00  0.00    -0.557 A  
ENDROOT
BRANCH   5   8
HETATM    8  C   UNL     1     -11.895  11.939  68.913  1.00  0.00    -0.366 C  
BRANCH   8   9
HETATM    9  C   UNL     1     -11.693  12.601  67.548  1.00  0.00    -0.429 C  
BRANCH   9  10
HETATM   10  C   UNL     1     -10.905  11.752  66.527  1.00  0.00    -0.282 C  
BRANCH  10  11
HETATM   11  S   UNL     1      -9.630  10.735  67.384  1.00  0.00    -0.160 SA 
BRANCH  11  12
HETATM   12  C   UNL     1      -7.995  11.510  67.406  1.00  0.00    -0.143 A  
HETATM   13 CL   UNL     1      -8.572  14.050  68.481  1.00  0.00    -0.167 Cl 
HETATM   14  C   UNL     1      -5.247  12.326  67.347  1.00  0.00    -0.105 A  
HETATM   15  C   UNL     1      -7.579  12.774  67.885  1.00  0.00    -0.138 A  
HETATM   16  C   UNL     1      -6.219  13.154  67.873  1.00  0.00    -0.140 A  
HETATM   17  C   UNL     1      -5.621  11.112  66.808  1.00  0.00    -0.100 A  
HETATM   18  C   UNL     1      -6.966  10.708  66.829  1.00  0.00    -0.110 A  
HETATM   19 CL   UNL     1      -7.253   9.162  66.069  1.00  0.00    -0.092 Cl 
ENDBRANCH  11  12
ENDBRANCH  10  11
BRANCH  10  20
HETATM   20  C   UNL     1     -10.377  12.385  65.220  1.00  0.00    -0.282 C  
BRANCH  20  21
HETATM   21  N   UNL     1     -11.019  13.638  64.846  1.00  0.00    -0.346 NA 
HETATM   22  C   UNL     1     -12.205  13.761  64.175  1.00  0.00    -0.396 A  
HETATM   23  N   UNL     1     -12.512  15.020  63.971  1.00  0.00    -0.774 NA 
HETATM   24  C   UNL     1     -10.505  14.893  65.005  1.00  0.00    -0.401 A  
HETATM   25  C   UNL     1     -11.462  15.736  64.488  1.00  0.00    -0.289 A  
ENDBRANCH  20  21
ENDBRANCH  10  20
ENDBRANCH   9  10
ENDBRANCH   8   9
ENDBRANCH   5   8
TORSDOF 7
ENDMDL
MODEL       99
REMARK 921   NORMALIZED FREE ENERGY PREDICTED BY IDOCK:   -5.68 KCAL/MOL
REMARK 922        TOTAL FREE ENERGY PREDICTED BY IDOCK:   -8.89 KCAL/MOL
REMARK 923 INTER-LIGAND FREE ENERGY PREDICTED BY IDOCK:   -7.30 KCAL/MOL
REMARK 924 INTRA-LIGAND FREE ENERGY PREDICTED BY IDOCK:   -1.59 KCAL/MOL
REMARK 927      BINDING AFFINITY PREDICTED BY RF-SCORE:    0.00 PKD
ROOT
HETATM    1 CL   UNL     1     -13.042  11.621  63.411  1.00  0.00    -0.193 Cl 
HETATM    2  C   UNL     1     -12.031  12.886  63.991  1.00  0.00    -0.451 A  
HETATM    3  C   UNL     1     -10.718  12.606  64.357  1.00  0.00    -0.384 A  
HETATM    4  C   UNL     1      -9.911  13.625  64.866  1.00  0.00    -0.183 A  
HETATM    5  C   UNL     1     -10.403  14.934  65.006  1.00  0.00    -0.401 A  
HETATM    6  C   UNL     1     -11.720  15.202  64.613  1.00  0.00    -0.348 A  
HETATM    7  C   UNL     1     -12.531  14.180  64.109  1.00  0.00    -0.267 A  
ENDROOT
BRANCH   5   8
HETATM    8  C   UNL     1      -9.550  16.009  65.646  1.00  0.00    -0.226 C  
BRANCH   8   9
HETATM    9  C   UNL     1     -10.264  16.761  66.770  1.00  0.00    -0.304 C  
BRANCH   9  10
HETATM   10  C   UNL     1      -9.331  17.342  67.855  1.00  0.00    -0.267 C  
BRANCH  10  11
HETATM   11  S   UNL     1      -9.209  16.186  69.283  1.00  0.00    -0.174 SA 
BRANCH  11  12
HETATM   12  C   UNL     1     -10.264  14.725  69.112  1.00  0.00    -0.220 A  
HETATM   13 CL   UNL     1     -12.590  15.527  70.484  1.00  0.00    -0.471 Cl 
HETATM   14  C   UNL     1     -11.628  12.267  68.545  1.00  0.00    -0.359 A  
HETATM   15  C   UNL     1     -11.595  14.494  69.529  1.00  0.00    -0.307 A  
HETATM   16  C   UNL     1     -12.264  13.289  69.223  1.00  0.00    -0.194 A  
HETATM   17  C   UNL     1     -10.307  12.428  68.179  1.00  0.00    -0.231 A  
HETATM   18  C   UNL     1      -9.631  13.626  68.458  1.00  0.00    -0.165 A  
HETATM   19 CL   UNL     1      -7.958  13.630  67.955  1.00  0.00    -0.145 Cl 
ENDBRANCH  11  12
ENDBRANCH  10  11
BRANCH  10  20
HETATM   20  C   UNL     1      -9.463  18.817  68.297  1.00  0.00    -0.349 C  
BRANCH  20  21
HETATM   21  N   UNL     1      -8.243  19.604  68.167  1.00  0.00    -0.313 NA 
HETATM   22  C   UNL     1      -7.242  19.689  69.097  1.00  0.00    -0.327 A  
HETATM   23  N   UNL     1      -6.284  20.490  68.695  1.00  0.00    -0.319 NA 
HETATM   24  C   UNL     1      -7.937  20.466  67.153  1.00  0.00    -0.335 A  
HETATM   25  C   UNL     1      -6.703  20.978  67.483  1.00  0.00    -0.368 A  
ENDBRANCH  20  21
ENDBRANCH  10  20
ENDBRANCH   9  10
ENDBRANCH   8   9
ENDBRANCH   5   8
TORSDOF 7
ENDMDL
MODEL      100
REMARK 921   NORMALIZED FREE ENERGY PREDICTED BY IDOCK:   -5.68 KCAL/MOL
REMARK 922        TOTAL FREE ENERGY PREDICTED BY IDOCK:   -8.89 KCAL/MOL
REMARK 923 INTER-LIGAND FREE ENERGY PREDICTED BY IDOCK:   -7.16 KCAL/MOL
REMARK 924 INTRA-LIGAND FREE ENERGY PREDICTED BY IDOCK:   -1.73 KCAL/MOL
REMARK 927      BINDING AFFINITY PREDICTED BY RF-SCORE:    0.00 PKD
ROOT
HETATM    1 CL   UNL     1     -10.850   7.057  73.520  1.00  0.00    -0.353 Cl 
HETATM    2  C   UNL     1     -10.699   8.209  72.251  1.00  0.00    -0.313 A  
HETATM    3  C   UNL     1     -11.817   8.922  71.832  1.00  0.00    -0.440 A  
HETATM    4  C   UNL     1     -11.702   9.827  70.775  1.00  0.00    -0.407 A  
HETATM    5  C   UNL     1     -10.469  10.035  70.133  1.00  0.00    -0.338 A  
HETATM    6  C   UNL     1      -9.349   9.324  70.582  1.00  0.00    -0.329 A  
HETATM    7  C   UNL     1      -9.466   8.412  71.638  1.00  0.00    -0.281 A  
ENDROOT
BRANCH   5   8
HETATM    8  C   UNL     1     -10.376  10.948  68.929  1.00  0.00    -0.222 C  
BRANCH   8   9
HETATM    9  C   UNL     1     -11.214  10.473  67.741  1.00  0.00    -0.344 C  
BRANCH   9  10
HETATM   10  C   UNL     1     -10.742  10.993  66.366  1.00  0.00    -0.227 C  
BRANCH  10  11
HETATM   11  S   UNL     1      -9.670   9.743  65.540  1.00  0.00    -0.304 SA 
BRANCH  11  12
HETATM   12  C   UNL     1      -8.965   8.535  66.690  1.00  0.00    -0.148 A  
HETATM   13 CL   UNL     1     -11.077   6.690  66.958  1.00  0.00    -0.473 Cl 
HETATM   14  C   UNL     1      -7.458   6.835  68.439  1.00  0.00    -0.095 A  
HETATM   15  C   UNL     1      -9.492   7.324  67.192  1.00  0.00    -0.145 A  
HETATM   16  C   UNL     1      -8.730   6.483  68.034  1.00  0.00    -0.116 A  
HETATM   17  C   UNL     1      -6.933   8.043  68.024  1.00  0.00    -0.074 A  
HETATM   18  C   UNL     1      -7.668   8.883  67.172  1.00  0.00    -0.095 A  
HETATM   19 CL   UNL     1      -6.859  10.382  66.786  1.00  0.00    -0.087 Cl 
ENDBRANCH  11  12
ENDBRANCH  10  11
BRANCH  10  20
HETATM   20  C   UNL     1     -10.197  12.431  66.214  1.00  0.00    -0.238 C  
BRANCH  20  21
HETATM   21  N   UNL     1     -11.134  13.378  65.620  1.00  0.00    -0.285 NA 
HETATM   22  C   UNL     1     -12.498  13.290  65.667  1.00  0.00    -0.451 A  
HETATM   23  N   UNL     1     -13.064  14.285  65.026  1.00  0.00    -0.610 NA 
HETATM   24  C   UNL     1     -10.817  14.449  64.834  1.00  0.00    -0.416 A  
HETATM   25  C   UNL     1     -12.026  15.017  64.506  1.00  0.00    -0.371 A  
ENDBRANCH  20  21
ENDBRANCH  10  20
ENDBRANCH   9  10
ENDBRANCH   8   9
ENDBRANCH   5   8
TORSDOF 7
ENDMDL
MODEL      101
REMARK 921   NORMALIZED FREE ENERGY PREDICTED BY IDOCK:   -5.67 KCAL/MOL
REMARK 922        TOTAL FREE ENERGY PREDICTED BY IDOCK:   -8.88 KCAL/MOL
REMARK 923 INTER-LIGAND FREE ENERGY PREDICTED BY IDOCK:   -7.89 KCAL/MOL
REMARK 924 INTRA-LIGAND FREE ENERGY PREDICTED BY IDOCK:   -0.98 KCAL/MOL
REMARK 927      BINDING AFFINITY PREDICTED BY RF-SCORE:    0.00 PKD
ROOT
HETATM    1 CL   UNL     1      -6.683  20.326  65.215  1.00  0.00    -0.330 Cl 
HETATM    2  C   UNL     1      -7.467  19.101  66.134  1.00  0.00    -0.274 A  
HETATM    3  C   UNL     1      -8.567  19.429  66.922  1.00  0.00    -0.325 A  
HETATM    4  C   UNL     1      -9.177  18.442  67.699  1.00  0.00    -0.274 A  
HETATM    5  C   UNL     1      -8.702  17.120  67.691  1.00  0.00    -0.213 A  
HETATM    6  C   UNL     1      -7.607  16.804  66.877  1.00  0.00    -0.252 A  
HETATM    7  C   UNL     1      -6.991  17.793  66.103  1.00  0.00    -0.338 A  
ENDROOT
BRANCH   5   8
HETATM    8  C   UNL     1      -9.312  16.081  68.608  1.00  0.00    -0.214 C  
BRANCH   8   9
HETATM    9  C   UNL     1     -10.569  16.571  69.329  1.00  0.00    -0.327 C  
BRANCH   9  10
HETATM   10  C   UNL     1     -11.673  15.505  69.503  1.00  0.00    -0.365 C  
BRANCH  10  11
HETATM   11  S   UNL     1     -12.141  14.793  67.871  1.00  0.00     0.008 SA 
BRANCH  11  12
HETATM   12  C   UNL     1     -11.509  13.117  67.614  1.00  0.00    -0.324 A  
HETATM   13 CL   UNL     1     -12.008  11.921  70.115  1.00  0.00    -0.424 Cl 
HETATM   14  C   UNL     1     -10.483  10.575  66.772  1.00  0.00    -0.302 A  
HETATM   15  C   UNL     1     -11.511  11.990  68.466  1.00  0.00    -0.293 A  
HETATM   16  C   UNL     1     -11.025  10.737  68.032  1.00  0.00    -0.336 A  
HETATM   17  C   UNL     1     -10.401  11.669  65.933  1.00  0.00    -0.289 A  
HETATM   18  C   UNL     1     -10.897  12.918  66.340  1.00  0.00    -0.274 A  
HETATM   19 CL   UNL     1     -10.672  14.188  65.162  1.00  0.00    -0.371 Cl 
ENDBRANCH  11  12
ENDBRANCH  10  11
BRANCH  10  20
HETATM   20  C   UNL     1     -12.900  15.784  70.401  1.00  0.00    -0.061 C  
BRANCH  20  21
HETATM   21  N   UNL     1     -12.735  15.395  71.796  1.00  0.00    -0.364 NA 
HETATM   22  C   UNL     1     -13.292  14.297  72.393  1.00  0.00    -0.474 A  
HETATM   23  N   UNL     1     -12.971  14.228  73.663  1.00  0.00    -0.308 NA 
HETATM   24  C   UNL     1     -12.088  16.107  72.766  1.00  0.00    -0.553 A  
HETATM   25  C   UNL     1     -12.217  15.348  73.907  1.00  0.00    -0.618 A  
ENDBRANCH  20  21
ENDBRANCH  10  20
ENDBRANCH   9  10
ENDBRANCH   8   9
ENDBRANCH   5   8
TORSDOF 7
ENDMDL
MODEL      102
REMARK 921   NORMALIZED FREE ENERGY PREDICTED BY IDOCK:   -5.67 KCAL/MOL
REMARK 922        TOTAL FREE ENERGY PREDICTED BY IDOCK:   -8.87 KCAL/MOL
REMARK 923 INTER-LIGAND FREE ENERGY PREDICTED BY IDOCK:   -7.63 KCAL/MOL
REMARK 924 INTRA-LIGAND FREE ENERGY PREDICTED BY IDOCK:   -1.24 KCAL/MOL
REMARK 927      BINDING AFFINITY PREDICTED BY RF-SCORE:    0.00 PKD
ROOT
HETATM    1 CL   UNL     1     -11.482  14.472  64.716  1.00  0.00    -0.396 Cl 
HETATM    2  C   UNL     1     -11.668  13.753  66.268  1.00  0.00    -0.376 A  
HETATM    3  C   UNL     1     -11.770  14.563  67.395  1.00  0.00    -0.425 A  
HETATM    4  C   UNL     1     -11.879  13.978  68.658  1.00  0.00    -0.396 A  
HETATM    5  C   UNL     1     -11.896  12.581  68.807  1.00  0.00    -0.347 A  
HETATM    6  C   UNL     1     -11.813  11.781  67.661  1.00  0.00    -0.241 A  
HETATM    7  C   UNL     1     -11.698  12.367  66.395  1.00  0.00    -0.453 A  
ENDROOT
BRANCH   5   8
HETATM    8  C   UNL     1     -11.920  11.959  70.187  1.00  0.00    -0.413 C  
BRANCH   8   9
HETATM    9  C   UNL     1     -12.153  10.447  70.167  1.00  0.00    -0.334 C  
BRANCH   9  10
HETATM   10  C   UNL     1     -11.470   9.671  71.314  1.00  0.00    -0.392 C  
BRANCH  10  11
HETATM   11  S   UNL     1      -9.882   8.938  70.736  1.00  0.00    -0.244 SA 
BRANCH  11  12
HETATM   12  C   UNL     1      -9.804   8.726  68.941  1.00  0.00    -0.178 A  
HETATM   13 CL   UNL     1     -11.177   6.291  68.586  1.00  0.00    -0.413 Cl 
HETATM   14  C   UNL     1      -9.530   8.813  66.088  1.00  0.00    -0.315 A  
HETATM   15  C   UNL     1     -10.356   7.728  68.105  1.00  0.00    -0.200 A  
HETATM   16  C   UNL     1     -10.235   7.795  66.700  1.00  0.00    -0.288 A  
HETATM   17  C   UNL     1      -8.918   9.770  66.873  1.00  0.00    -0.154 A  
HETATM   18  C   UNL     1      -9.044   9.730  68.271  1.00  0.00    -0.122 A  
HETATM   19 CL   UNL     1      -8.171  10.998  69.097  1.00  0.00    -0.100 Cl 
ENDBRANCH  11  12
ENDBRANCH  10  11
BRANCH  10  20
HETATM   20  C   UNL     1     -12.283   8.699  72.199  1.00  0.00    -0.386 C  
BRANCH  20  21
HETATM   21  N   UNL     1     -11.565   7.497  72.604  1.00  0.00    -0.307 NA 
HETATM   22  C   UNL     1     -11.828   6.225  72.175  1.00  0.00    -0.315 A  
HETATM   23  N   UNL     1     -11.019   5.355  72.732  1.00  0.00    -0.259 NA 
HETATM   24  C   UNL     1     -10.584   7.418  73.550  1.00  0.00    -0.338 A  
HETATM   25  C   UNL     1     -10.236   6.087  73.589  1.00  0.00    -0.232 A  
ENDBRANCH  20  21
ENDBRANCH  10  20
ENDBRANCH   9  10
ENDBRANCH   8   9
ENDBRANCH   5   8
TORSDOF 7
ENDMDL
MODEL      103
REMARK 921   NORMALIZED FREE ENERGY PREDICTED BY IDOCK:   -5.66 KCAL/MOL
REMARK 922        TOTAL FREE ENERGY PREDICTED BY IDOCK:   -8.85 KCAL/MOL
REMARK 923 INTER-LIGAND FREE ENERGY PREDICTED BY IDOCK:   -7.55 KCAL/MOL
REMARK 924 INTRA-LIGAND FREE ENERGY PREDICTED BY IDOCK:   -1.31 KCAL/MOL
REMARK 927      BINDING AFFINITY PREDICTED BY RF-SCORE:    0.00 PKD
ROOT
HETATM    1 CL   UNL     1     -12.795  14.754  73.167  1.00  0.00    -0.583 Cl 
HETATM    2  C   UNL     1     -12.373  14.633  71.504  1.00  0.00    -0.351 A  
HETATM    3  C   UNL     1     -12.084  15.786  70.780  1.00  0.00    -0.448 A  
HETATM    4  C   UNL     1     -11.782  15.690  69.421  1.00  0.00    -0.395 A  
HETATM    5  C   UNL     1     -11.759  14.443  68.772  1.00  0.00    -0.372 A  
HETATM    6  C   UNL     1     -12.032  13.291  69.520  1.00  0.00    -0.366 A  
HETATM    7  C   UNL     1     -12.340  13.388  70.882  1.00  0.00    -0.436 A  
ENDROOT
BRANCH   5   8
HETATM    8  C   UNL     1     -11.523  14.361  67.279  1.00  0.00    -0.377 C  
BRANCH   8   9
HETATM    9  C   UNL     1     -10.211  13.664  66.910  1.00  0.00    -0.261 C  
BRANCH   9  10
HETATM   10  C   UNL     1      -8.977  14.147  67.702  1.00  0.00    -0.192 C  
BRANCH  10  11
HETATM   11  S   UNL     1      -8.193  15.584  66.858  1.00  0.00    -0.246 SA 
BRANCH  11  12
HETATM   12  C   UNL     1      -9.037  17.152  67.184  1.00  0.00    -0.228 A  
HETATM   13 CL   UNL     1     -10.954  17.216  65.119  1.00  0.00    -0.132 Cl 
HETATM   14  C   UNL     1     -10.149  19.634  68.089  1.00  0.00    -0.556 A  
HETATM   15  C   UNL     1     -10.144  17.754  66.543  1.00  0.00    -0.358 A  
HETATM   16  C   UNL     1     -10.698  18.964  67.013  1.00  0.00    -0.477 A  
HETATM   17  C   UNL     1      -9.026  19.113  68.701  1.00  0.00    -0.411 A  
HETATM   18  C   UNL     1      -8.473  17.900  68.259  1.00  0.00    -0.278 A  
HETATM   19 CL   UNL     1      -7.036  17.420  69.127  1.00  0.00    -0.233 Cl 
ENDBRANCH  11  12
ENDBRANCH  10  11
BRANCH  10  20
HETATM   20  C   UNL     1      -7.937  13.133  68.232  1.00  0.00    -0.148 C  
BRANCH  20  21
HETATM   21  N   UNL     1      -8.247  11.737  67.949  1.00  0.00    -0.139 NA 
HETATM   22  C   UNL     1      -7.961  11.073  66.787  1.00  0.00    -0.152 A  
HETATM   23  N   UNL     1      -8.381   9.831  66.830  1.00  0.00    -0.120 NA 
HETATM   24  C   UNL     1      -8.962  10.887  68.743  1.00  0.00    -0.164 A  
HETATM   25  C   UNL     1      -9.003   9.701  68.046  1.00  0.00    -0.122 A  
ENDBRANCH  20  21
ENDBRANCH  10  20
ENDBRANCH   9  10
ENDBRANCH   8   9
ENDBRANCH   5   8
TORSDOF 7
ENDMDL
MODEL      104
REMARK 921   NORMALIZED FREE ENERGY PREDICTED BY IDOCK:   -5.65 KCAL/MOL
REMARK 922        TOTAL FREE ENERGY PREDICTED BY IDOCK:   -8.85 KCAL/MOL
REMARK 923 INTER-LIGAND FREE ENERGY PREDICTED BY IDOCK:   -7.08 KCAL/MOL
REMARK 924 INTRA-LIGAND FREE ENERGY PREDICTED BY IDOCK:   -1.77 KCAL/MOL
REMARK 927      BINDING AFFINITY PREDICTED BY RF-SCORE:    0.00 PKD
ROOT
HETATM    1 CL   UNL     1     -12.101  14.802  64.284  1.00  0.00    -0.472 Cl 
HETATM    2  C   UNL     1     -11.928  14.047  65.820  1.00  0.00    -0.404 A  
HETATM    3  C   UNL     1     -12.004  12.661  65.920  1.00  0.00    -0.497 A  
HETATM    4  C   UNL     1     -11.904  12.053  67.173  1.00  0.00    -0.251 A  
HETATM    5  C   UNL     1     -11.720  12.820  68.335  1.00  0.00    -0.380 A  
HETATM    6  C   UNL     1     -11.625  14.212  68.214  1.00  0.00    -0.356 A  
HETATM    7  C   UNL     1     -11.731  14.823  66.960  1.00  0.00    -0.330 A  
ENDROOT
BRANCH   5   8
HETATM    8  C   UNL     1     -11.707  12.158  69.697  1.00  0.00    -0.396 C  
BRANCH   8   9
HETATM    9  C   UNL     1     -11.687  10.629  69.628  1.00  0.00    -0.368 C  
BRANCH   9  10
HETATM   10  C   UNL     1     -10.665   9.952  70.567  1.00  0.00    -0.317 C  
BRANCH  10  11
HETATM   11  S   UNL     1      -9.325   9.153  69.589  1.00  0.00    -0.182 SA 
BRANCH  11  12
HETATM   12  C   UNL     1      -9.135   9.853  67.931  1.00  0.00    -0.131 A  
HETATM   13 CL   UNL     1      -7.903  12.326  68.485  1.00  0.00    -0.130 Cl 
HETATM   14  C   UNL     1      -8.950  10.553  65.157  1.00  0.00    -0.214 A  
HETATM   15  C   UNL     1      -8.532  11.057  67.502  1.00  0.00    -0.127 A  
HETATM   16  C   UNL     1      -8.426  11.379  66.131  1.00  0.00    -0.105 A  
HETATM   17  C   UNL     1      -9.607   9.400  65.539  1.00  0.00    -0.328 A  
HETATM   18  C   UNL     1      -9.705   9.053  66.896  1.00  0.00    -0.200 A  
HETATM   19 CL   UNL     1     -10.602   7.583  67.188  1.00  0.00    -0.405 Cl 
ENDBRANCH  11  12
ENDBRANCH  10  11
BRANCH  10  20
HETATM   20  C   UNL     1     -11.143   9.073  71.746  1.00  0.00    -0.374 C  
BRANCH  20  21
HETATM   21  N   UNL     1     -10.946   7.642  71.557  1.00  0.00    -0.231 NA 
HETATM   22  C   UNL     1     -11.633   6.847  70.680  1.00  0.00    -0.353 A  
HETATM   23  N   UNL     1     -11.238   5.598  70.756  1.00  0.00    -0.135 NA 
HETATM   24  C   UNL     1     -10.124   6.832  72.288  1.00  0.00    -0.173 A  
HETATM   25  C   UNL     1     -10.295   5.577  71.752  1.00  0.00    -0.216 A  
ENDBRANCH  20  21
ENDBRANCH  10  20
ENDBRANCH   9  10
ENDBRANCH   8   9
ENDBRANCH   5   8
TORSDOF 7
ENDMDL
MODEL      105
REMARK 921   NORMALIZED FREE ENERGY PREDICTED BY IDOCK:   -5.64 KCAL/MOL
REMARK 922        TOTAL FREE ENERGY PREDICTED BY IDOCK:   -8.82 KCAL/MOL
REMARK 923 INTER-LIGAND FREE ENERGY PREDICTED BY IDOCK:   -7.90 KCAL/MOL
REMARK 924 INTRA-LIGAND FREE ENERGY PREDICTED BY IDOCK:   -0.92 KCAL/MOL
REMARK 927      BINDING AFFINITY PREDICTED BY RF-SCORE:    0.00 PKD
ROOT
HETATM    1 CL   UNL     1     -12.521  15.602  74.514  1.00  0.00    -0.781 Cl 
HETATM    2  C   UNL     1     -12.502  15.134  72.858  1.00  0.00    -0.405 A  
HETATM    3  C   UNL     1     -13.000  13.888  72.489  1.00  0.00    -0.452 A  
HETATM    4  C   UNL     1     -12.946  13.493  71.151  1.00  0.00    -0.338 A  
HETATM    5  C   UNL     1     -12.403  14.339  70.169  1.00  0.00    -0.413 A  
HETATM    6  C   UNL     1     -11.925  15.597  70.556  1.00  0.00    -0.417 A  
HETATM    7  C   UNL     1     -11.973  15.991  71.898  1.00  0.00    -0.606 A  
ENDROOT
BRANCH   5   8
HETATM    8  C   UNL     1     -12.264  13.863  68.739  1.00  0.00    -0.232 C  
BRANCH   8   9
HETATM    9  C   UNL     1     -11.673  12.457  68.622  1.00  0.00    -0.372 C  
BRANCH   9  10
HETATM   10  C   UNL     1     -10.429  12.351  67.713  1.00  0.00    -0.218 C  
BRANCH  10  11
HETATM   11  S   UNL     1     -10.305  10.662  66.988  1.00  0.00    -0.242 SA 
BRANCH  11  12
HETATM   12  C   UNL     1      -9.873  10.669  65.230  1.00  0.00    -0.275 A  
HETATM   13 CL   UNL     1     -11.274  12.929  64.299  1.00  0.00    -0.381 Cl 
HETATM   14  C   UNL     1      -8.884  10.367  62.556  1.00  0.00    -0.268 A  
HETATM   15  C   UNL     1     -10.204  11.582  64.203  1.00  0.00    -0.325 A  
HETATM   16  C   UNL     1      -9.690  11.435  62.895  1.00  0.00    -0.344 A  
HETATM   17  C   UNL     1      -8.592   9.417  63.515  1.00  0.00    -0.215 A  
HETATM   18  C   UNL     1      -9.078   9.556  64.825  1.00  0.00    -0.218 A  
HETATM   19 CL   UNL     1      -8.639   8.240  65.886  1.00  0.00    -0.155 Cl 
ENDBRANCH  11  12
ENDBRANCH  10  11
BRANCH  10  20
HETATM   20  C   UNL     1      -9.061  12.893  68.186  1.00  0.00    -0.207 C  
BRANCH  20  21
HETATM   21  N   UNL     1      -8.951  14.346  68.193  1.00  0.00    -0.178 NA 
HETATM   22  C   UNL     1      -9.087  15.165  67.105  1.00  0.00    -0.211 A  
HETATM   23  N   UNL     1      -8.916  16.425  67.430  1.00  0.00    -0.190 NA 
HETATM   24  C   UNL     1      -8.592  15.128  69.254  1.00  0.00    -0.211 A  
HETATM   25  C   UNL     1      -8.611  16.415  68.767  1.00  0.00    -0.250 A  
ENDBRANCH  20  21
ENDBRANCH  10  20
ENDBRANCH   9  10
ENDBRANCH   8   9
ENDBRANCH   5   8
TORSDOF 7
ENDMDL
MODEL      106
REMARK 921   NORMALIZED FREE ENERGY PREDICTED BY IDOCK:   -5.63 KCAL/MOL
REMARK 922        TOTAL FREE ENERGY PREDICTED BY IDOCK:   -8.81 KCAL/MOL
REMARK 923 INTER-LIGAND FREE ENERGY PREDICTED BY IDOCK:   -7.71 KCAL/MOL
REMARK 924 INTRA-LIGAND FREE ENERGY PREDICTED BY IDOCK:   -1.10 KCAL/MOL
REMARK 927      BINDING AFFINITY PREDICTED BY RF-SCORE:    0.00 PKD
ROOT
HETATM    1 CL   UNL     1     -13.700  15.484  72.723  1.00  0.00    -0.630 Cl 
HETATM    2  C   UNL     1     -13.137  14.265  71.646  1.00  0.00    -0.346 A  
HETATM    3  C   UNL     1     -13.233  12.926  72.011  1.00  0.00    -0.549 A  
HETATM    4  C   UNL     1     -12.739  11.940  71.154  1.00  0.00    -0.384 A  
HETATM    5  C   UNL     1     -12.153  12.281  69.924  1.00  0.00    -0.319 A  
HETATM    6  C   UNL     1     -12.084  13.633  69.563  1.00  0.00    -0.368 A  
HETATM    7  C   UNL     1     -12.574  14.621  70.424  1.00  0.00    -0.399 A  
ENDROOT
BRANCH   5   8
HETATM    8  C   UNL     1     -11.537  11.212  69.046  1.00  0.00    -0.392 C  
BRANCH   8   9
HETATM    9  C   UNL     1     -10.010  11.277  68.991  1.00  0.00    -0.124 C  
BRANCH   9  10
HETATM   10  C   UNL     1      -9.329  10.022  68.404  1.00  0.00    -0.138 C  
BRANCH  10  11
HETATM   11  S   UNL     1     -10.315   9.355  66.999  1.00  0.00    -0.238 SA 
BRANCH  11  12
HETATM   12  C   UNL     1     -10.052  10.255  65.450  1.00  0.00    -0.284 A  
HETATM   13 CL   UNL     1     -11.863  12.397  65.713  1.00  0.00    -0.475 Cl 
HETATM   14  C   UNL     1      -9.279  11.413  62.944  1.00  0.00    -0.313 A  
HETATM   15  C   UNL     1     -10.612  11.464  64.981  1.00  0.00    -0.299 A  
HETATM   16  C   UNL     1     -10.205  12.037  63.756  1.00  0.00    -0.447 A  
HETATM   17  C   UNL     1      -8.758  10.195  63.336  1.00  0.00    -0.216 A  
HETATM   18  C   UNL     1      -9.136   9.620  64.559  1.00  0.00    -0.236 A  
HETATM   19 CL   UNL     1      -8.404   8.064  64.866  1.00  0.00    -0.138 Cl 
ENDBRANCH  11  12
ENDBRANCH  10  11
BRANCH  10  20
HETATM   20  C   UNL     1      -8.796   8.908  69.334  1.00  0.00    -0.143 C  
BRANCH  20  21
HETATM   21  N   UNL     1      -9.700   8.531  70.413  1.00  0.00    -0.172 NA 
HETATM   22  C   UNL     1      -9.559   8.868  71.732  1.00  0.00    -0.282 A  
HETATM   23  N   UNL     1     -10.527   8.364  72.461  1.00  0.00    -0.329 NA 
HETATM   24  C   UNL     1     -10.778   7.697  70.315  1.00  0.00    -0.239 A  
HETATM   25  C   UNL     1     -11.295   7.635  71.589  1.00  0.00    -0.251 A  
ENDBRANCH  20  21
ENDBRANCH  10  20
ENDBRANCH   9  10
ENDBRANCH   8   9
ENDBRANCH   5   8
TORSDOF 7
ENDMDL
MODEL      107
REMARK 921   NORMALIZED FREE ENERGY PREDICTED BY IDOCK:   -5.62 KCAL/MOL
REMARK 922        TOTAL FREE ENERGY PREDICTED BY IDOCK:   -8.80 KCAL/MOL
REMARK 923 INTER-LIGAND FREE ENERGY PREDICTED BY IDOCK:   -7.91 KCAL/MOL
REMARK 924 INTRA-LIGAND FREE ENERGY PREDICTED BY IDOCK:   -0.89 KCAL/MOL
REMARK 927      BINDING AFFINITY PREDICTED BY RF-SCORE:    0.00 PKD
ROOT
HETATM    1 CL   UNL     1     -13.579  15.943  73.313  1.00  0.00    -0.605 Cl 
HETATM    2  C   UNL     1     -13.069  14.825  72.109  1.00  0.00    -0.341 A  
HETATM    3  C   UNL     1     -12.540  15.296  70.911  1.00  0.00    -0.471 A  
HETATM    4  C   UNL     1     -12.164  14.389  69.918  1.00  0.00    -0.394 A  
HETATM    5  C   UNL     1     -12.305  13.005  70.114  1.00  0.00    -0.270 A  
HETATM    6  C   UNL     1     -12.819  12.548  71.334  1.00  0.00    -0.359 A  
HETATM    7  C   UNL     1     -13.202  13.456  72.326  1.00  0.00    -0.570 A  
ENDROOT
BRANCH   5   8
HETATM    8  C   UNL     1     -11.982  12.036  68.997  1.00  0.00    -0.321 C  
BRANCH   8   9
HETATM    9  C   UNL     1     -11.722  12.722  67.654  1.00  0.00    -0.422 C  
BRANCH   9  10
HETATM   10  C   UNL     1     -10.781  11.950  66.704  1.00  0.00    -0.256 C  
BRANCH  10  11
HETATM   11  S   UNL     1      -9.460  11.096  67.661  1.00  0.00    -0.168 SA 
BRANCH  11  12
HETATM   12  C   UNL     1      -9.254   9.358  67.201  1.00  0.00    -0.134 A  
HETATM   13 CL   UNL     1      -8.441   9.565  64.511  1.00  0.00    -0.172 Cl 
HETATM   14  C   UNL     1      -8.970   6.519  66.911  1.00  0.00    -0.128 A  
HETATM   15  C   UNL     1      -8.804   8.770  65.997  1.00  0.00    -0.175 A  
HETATM   16  C   UNL     1      -8.645   7.372  65.874  1.00  0.00    -0.165 A  
HETATM   17  C   UNL     1      -9.477   7.050  68.081  1.00  0.00    -0.123 A  
HETATM   18  C   UNL     1      -9.624   8.439  68.228  1.00  0.00    -0.144 A  
HETATM   19 CL   UNL     1     -10.315   8.920  69.758  1.00  0.00    -0.204 Cl 
ENDBRANCH  11  12
ENDBRANCH  10  11
BRANCH  10  20
HETATM   20  C   UNL     1     -10.242  12.618  65.418  1.00  0.00    -0.284 C  
BRANCH  20  21
HETATM   21  N   UNL     1     -10.987  13.793  64.983  1.00  0.00    -0.337 NA 
HETATM   22  C   UNL     1     -12.134  13.783  64.236  1.00  0.00    -0.440 A  
HETATM   23  N   UNL     1     -12.556  15.001  63.992  1.00  0.00    -0.754 NA 
HETATM   24  C   UNL     1     -10.617  15.097  65.152  1.00  0.00    -0.424 A  
HETATM   25  C   UNL     1     -11.621  15.829  64.561  1.00  0.00    -0.247 A  
ENDBRANCH  20  21
ENDBRANCH  10  20
ENDBRANCH   9  10
ENDBRANCH   8   9
ENDBRANCH   5   8
TORSDOF 7
ENDMDL
MODEL      108
REMARK 921   NORMALIZED FREE ENERGY PREDICTED BY IDOCK:   -5.62 KCAL/MOL
REMARK 922        TOTAL FREE ENERGY PREDICTED BY IDOCK:   -8.80 KCAL/MOL
REMARK 923 INTER-LIGAND FREE ENERGY PREDICTED BY IDOCK:   -7.72 KCAL/MOL
REMARK 924 INTRA-LIGAND FREE ENERGY PREDICTED BY IDOCK:   -1.08 KCAL/MOL
REMARK 927      BINDING AFFINITY PREDICTED BY RF-SCORE:    0.00 PKD
ROOT
HETATM    1 CL   UNL     1      -9.873   2.907  64.436  1.00  0.00    -0.137 Cl 
HETATM    2  C   UNL     1      -9.658   4.408  65.248  1.00  0.00    -0.182 A  
HETATM    3  C   UNL     1     -10.633   4.859  66.132  1.00  0.00    -0.322 A  
HETATM    4  C   UNL     1     -10.477   6.097  66.760  1.00  0.00    -0.316 A  
HETATM    5  C   UNL     1      -9.344   6.891  66.518  1.00  0.00    -0.197 A  
HETATM    6  C   UNL     1      -8.362   6.412  65.641  1.00  0.00    -0.147 A  
HETATM    7  C   UNL     1      -8.521   5.175  65.007  1.00  0.00    -0.148 A  
ENDROOT
BRANCH   5   8
HETATM    8  C   UNL     1      -9.229   8.271  67.131  1.00  0.00    -0.175 C  
BRANCH   8   9
HETATM    9  C   UNL     1     -10.514   9.094  67.016  1.00  0.00    -0.311 C  
BRANCH   9  10
HETATM   10  C   UNL     1     -10.361  10.586  67.382  1.00  0.00    -0.224 C  
BRANCH  10  11
HETATM   11  S   UNL     1      -9.935  10.770  69.164  1.00  0.00    -0.148 SA 
BRANCH  11  12
HETATM   12  C   UNL     1     -11.222  10.149  70.275  1.00  0.00    -0.318 A  
HETATM   13 CL   UNL     1     -10.771   7.369  70.186  1.00  0.00    -0.246 Cl 
HETATM   14  C   UNL     1     -13.320   9.597  72.149  1.00  0.00    -0.545 A  
HETATM   15  C   UNL     1     -11.507   8.836  70.713  1.00  0.00    -0.270 A  
HETATM   16  C   UNL     1     -12.527   8.580  71.655  1.00  0.00    -0.370 A  
HETATM   17  C   UNL     1     -13.117  10.885  71.695  1.00  0.00    -0.538 A  
HETATM   18  C   UNL     1     -12.095  11.162  70.773  1.00  0.00    -0.357 A  
HETATM   19 CL   UNL     1     -12.016  12.837  70.286  1.00  0.00    -0.402 Cl 
ENDBRANCH  11  12
ENDBRANCH  10  11
BRANCH  10  20
HETATM   20  C   UNL     1     -11.410  11.621  66.914  1.00  0.00    -0.295 C  
BRANCH  20  21
HETATM   21  N   UNL     1     -11.311  11.997  65.510  1.00  0.00    -0.341 NA 
HETATM   22  C   UNL     1     -12.328  12.496  64.741  1.00  0.00    -0.474 A  
HETATM   23  N   UNL     1     -11.931  12.721  63.511  1.00  0.00    -0.526 NA 
HETATM   24  C   UNL     1     -10.228  11.821  64.696  1.00  0.00    -0.284 A  
HETATM   25  C   UNL     1     -10.623  12.309  63.471  1.00  0.00    -0.448 A  
ENDBRANCH  20  21
ENDBRANCH  10  20
ENDBRANCH   9  10
ENDBRANCH   8   9
ENDBRANCH   5   8
TORSDOF 7
ENDMDL
MODEL      109
REMARK 921   NORMALIZED FREE ENERGY PREDICTED BY IDOCK:   -5.61 KCAL/MOL
REMARK 922        TOTAL FREE ENERGY PREDICTED BY IDOCK:   -8.79 KCAL/MOL
REMARK 923 INTER-LIGAND FREE ENERGY PREDICTED BY IDOCK:   -7.27 KCAL/MOL
REMARK 924 INTRA-LIGAND FREE ENERGY PREDICTED BY IDOCK:   -1.52 KCAL/MOL
REMARK 927      BINDING AFFINITY PREDICTED BY RF-SCORE:    0.00 PKD
ROOT
HETATM    1 CL   UNL     1     -10.461   4.816  72.866  1.00  0.00    -0.240 Cl 
HETATM    2  C   UNL     1     -10.873   6.415  72.384  1.00  0.00    -0.236 A  
HETATM    3  C   UNL     1     -12.051   6.640  71.679  1.00  0.00    -0.404 A  
HETATM    4  C   UNL     1     -12.364   7.932  71.253  1.00  0.00    -0.300 A  
HETATM    5  C   UNL     1     -11.510   9.012  71.533  1.00  0.00    -0.407 A  
HETATM    6  C   UNL     1     -10.338   8.771  72.261  1.00  0.00    -0.320 A  
HETATM    7  C   UNL     1     -10.021   7.475  72.684  1.00  0.00    -0.259 A  
ENDROOT
BRANCH   5   8
HETATM    8  C   UNL     1     -11.812  10.391  70.986  1.00  0.00    -0.458 C  
BRANCH   8   9
HETATM    9  C   UNL     1     -11.861  10.440  69.458  1.00  0.00    -0.218 C  
BRANCH   9  10
HETATM   10  C   UNL     1     -10.530  10.090  68.756  1.00  0.00    -0.208 C  
BRANCH  10  11
HETATM   11  S   UNL     1      -9.840  11.575  67.913  1.00  0.00    -0.190 SA 
BRANCH  11  12
HETATM   12  C   UNL     1     -10.734  12.020  66.403  1.00  0.00    -0.259 A  
HETATM   13 CL   UNL     1      -9.551  10.306  64.504  1.00  0.00    -0.353 Cl 
HETATM   14  C   UNL     1     -12.424  12.955  64.284  1.00  0.00    -0.424 A  
HETATM   15  C   UNL     1     -10.659  11.487  65.096  1.00  0.00    -0.293 A  
HETATM   16  C   UNL     1     -11.514  11.939  64.067  1.00  0.00    -0.480 A  
HETATM   17  C   UNL     1     -12.481  13.548  65.529  1.00  0.00    -0.538 A  
HETATM   18  C   UNL     1     -11.652  13.099  66.570  1.00  0.00    -0.356 A  
HETATM   19 CL   UNL     1     -11.837  13.994  68.059  1.00  0.00    -0.392 Cl 
ENDBRANCH  11  12
ENDBRANCH  10  11
BRANCH  10  20
HETATM   20  C   UNL     1     -10.407   8.811  67.897  1.00  0.00    -0.224 C  
BRANCH  20  21
HETATM   21  N   UNL     1      -9.778   7.683  68.571  1.00  0.00    -0.155 NA 
HETATM   22  C   UNL     1      -8.592   7.717  69.253  1.00  0.00    -0.136 A  
HETATM   23  N   UNL     1      -8.283   6.536  69.735  1.00  0.00    -0.125 NA 
HETATM   24  C   UNL     1     -10.204   6.385  68.552  1.00  0.00    -0.175 A  
HETATM   25  C   UNL     1      -9.282   5.699  69.308  1.00  0.00    -0.116 A  
ENDBRANCH  20  21
ENDBRANCH  10  20
ENDBRANCH   9  10
ENDBRANCH   8   9
ENDBRANCH   5   8
TORSDOF 7
ENDMDL
MODEL      110
REMARK 921   NORMALIZED FREE ENERGY PREDICTED BY IDOCK:   -5.59 KCAL/MOL
REMARK 922        TOTAL FREE ENERGY PREDICTED BY IDOCK:   -8.75 KCAL/MOL
REMARK 923 INTER-LIGAND FREE ENERGY PREDICTED BY IDOCK:   -7.77 KCAL/MOL
REMARK 924 INTRA-LIGAND FREE ENERGY PREDICTED BY IDOCK:   -0.98 KCAL/MOL
REMARK 927      BINDING AFFINITY PREDICTED BY RF-SCORE:    0.00 PKD
ROOT
HETATM    1 CL   UNL     1     -14.154  15.697  72.582  1.00  0.00    -0.617 Cl 
HETATM    2  C   UNL     1     -13.257  14.788  71.430  1.00  0.00    -0.371 A  
HETATM    3  C   UNL     1     -13.135  13.410  71.584  1.00  0.00    -0.463 A  
HETATM    4  C   UNL     1     -12.372  12.679  70.671  1.00  0.00    -0.375 A  
HETATM    5  C   UNL     1     -11.732  13.313  69.593  1.00  0.00    -0.369 A  
HETATM    6  C   UNL     1     -11.883  14.697  69.442  1.00  0.00    -0.368 A  
HETATM    7  C   UNL     1     -12.642  15.431  70.359  1.00  0.00    -0.433 A  
ENDROOT
BRANCH   5   8
HETATM    8  C   UNL     1     -10.833  12.525  68.665  1.00  0.00    -0.280 C  
BRANCH   8   9
HETATM    9  C   UNL     1     -11.602  11.686  67.642  1.00  0.00    -0.349 C  
BRANCH   9  10
HETATM   10  C   UNL     1     -10.978  11.656  66.229  1.00  0.00    -0.289 C  
BRANCH  10  11
HETATM   11  S   UNL     1     -10.150  10.039  65.928  1.00  0.00    -0.214 SA 
BRANCH  11  12
HETATM   12  C   UNL     1      -8.364  10.187  65.673  1.00  0.00    -0.152 A  
HETATM   13 CL   UNL     1      -7.477  10.958  68.234  1.00  0.00    -0.089 Cl 
HETATM   14  C   UNL     1      -5.611  10.222  64.873  1.00  0.00    -0.126 A  
HETATM   15  C   UNL     1      -7.325  10.488  66.583  1.00  0.00    -0.120 A  
HETATM   16  C   UNL     1      -5.971  10.478  66.182  1.00  0.00    -0.101 A  
HETATM   17  C   UNL     1      -6.602   9.990  63.940  1.00  0.00    -0.130 A  
HETATM   18  C   UNL     1      -7.952   9.976  64.324  1.00  0.00    -0.152 A  
HETATM   19 CL   UNL     1      -9.061   9.705  63.002  1.00  0.00    -0.272 Cl 
ENDBRANCH  11  12
ENDBRANCH  10  11
BRANCH  10  20
HETATM   20  C   UNL     1     -10.148  12.852  65.711  1.00  0.00    -0.287 C  
BRANCH  20  21
HETATM   21  N   UNL     1     -10.933  13.934  65.132  1.00  0.00    -0.332 NA 
HETATM   22  C   UNL     1     -12.075  13.789  64.391  1.00  0.00    -0.436 A  
HETATM   23  N   UNL     1     -12.541  14.950  63.998  1.00  0.00    -0.786 NA 
HETATM   24  C   UNL     1     -10.615  15.263  65.140  1.00  0.00    -0.430 A  
HETATM   25  C   UNL     1     -11.643  15.877  64.461  1.00  0.00    -0.232 A  
ENDBRANCH  20  21
ENDBRANCH  10  20
ENDBRANCH   9  10
ENDBRANCH   8   9
ENDBRANCH   5   8
TORSDOF 7
ENDMDL
MODEL      111
REMARK 921   NORMALIZED FREE ENERGY PREDICTED BY IDOCK:   -5.59 KCAL/MOL
REMARK 922        TOTAL FREE ENERGY PREDICTED BY IDOCK:   -8.75 KCAL/MOL
REMARK 923 INTER-LIGAND FREE ENERGY PREDICTED BY IDOCK:   -7.72 KCAL/MOL
REMARK 924 INTRA-LIGAND FREE ENERGY PREDICTED BY IDOCK:   -1.03 KCAL/MOL
REMARK 927      BINDING AFFINITY PREDICTED BY RF-SCORE:    0.00 PKD
ROOT
HETATM    1 CL   UNL     1     -11.812  15.657  64.289  1.00  0.00    -0.285 Cl 
HETATM    2  C   UNL     1     -11.418  14.440  65.440  1.00  0.00    -0.344 A  
HETATM    3  C   UNL     1     -10.258  14.560  66.199  1.00  0.00    -0.317 A  
HETATM    4  C   UNL     1      -9.918  13.551  67.103  1.00  0.00    -0.246 A  
HETATM    5  C   UNL     1     -10.735  12.419  67.263  1.00  0.00    -0.259 A  
HETATM    6  C   UNL     1     -11.909  12.325  66.505  1.00  0.00    -0.378 A  
HETATM    7  C   UNL     1     -12.247  13.332  65.595  1.00  0.00    -0.514 A  
ENDROOT
BRANCH   5   8
HETATM    8  C   UNL     1     -10.308  11.289  68.176  1.00  0.00    -0.205 C  
BRANCH   8   9
HETATM    9  C   UNL     1     -11.476  10.630  68.912  1.00  0.00    -0.334 C  
BRANCH   9  10
HETATM   10  C   UNL     1     -11.480  10.842  70.442  1.00  0.00    -0.307 C  
BRANCH  10  11
HETATM   11  S   UNL     1     -10.609   9.454  71.284  1.00  0.00    -0.286 SA 
BRANCH  11  12
HETATM   12  C   UNL     1     -10.218   8.078  70.175  1.00  0.00    -0.203 A  
HETATM   13 CL   UNL     1      -7.899   9.020  68.880  1.00  0.00    -0.094 Cl 
HETATM   14  C   UNL     1      -9.908   5.669  68.650  1.00  0.00    -0.190 A  
HETATM   15  C   UNL     1      -9.135   7.889  69.286  1.00  0.00    -0.148 A  
HETATM   16  C   UNL     1      -8.980   6.688  68.559  1.00  0.00    -0.120 A  
HETATM   17  C   UNL     1     -11.016   5.843  69.456  1.00  0.00    -0.438 A  
HETATM   18  C   UNL     1     -11.176   7.022  70.202  1.00  0.00    -0.284 A  
HETATM   19 CL   UNL     1     -12.655   7.076  71.131  1.00  0.00    -0.418 Cl 
ENDBRANCH  11  12
ENDBRANCH  10  11
BRANCH  10  20
HETATM   20  C   UNL     1     -12.775  11.259  71.174  1.00  0.00    -0.390 C  
BRANCH  20  21
HETATM   21  N   UNL     1     -12.968  12.698  71.300  1.00  0.00    -0.283 NA 
HETATM   22  C   UNL     1     -12.392  13.656  70.509  1.00  0.00    -0.355 A  
HETATM   23  N   UNL     1     -12.748  14.862  70.883  1.00  0.00    -0.336 NA 
HETATM   24  C   UNL     1     -13.665  13.342  72.283  1.00  0.00    -0.589 A  
HETATM   25  C   UNL     1     -13.544  14.679  71.985  1.00  0.00    -0.400 A  
ENDBRANCH  20  21
ENDBRANCH  10  20
ENDBRANCH   9  10
ENDBRANCH   8   9
ENDBRANCH   5   8
TORSDOF 7
ENDMDL
MODEL      112
REMARK 921   NORMALIZED FREE ENERGY PREDICTED BY IDOCK:   -5.59 KCAL/MOL
REMARK 922        TOTAL FREE ENERGY PREDICTED BY IDOCK:   -8.75 KCAL/MOL
REMARK 923 INTER-LIGAND FREE ENERGY PREDICTED BY IDOCK:   -7.80 KCAL/MOL
REMARK 924 INTRA-LIGAND FREE ENERGY PREDICTED BY IDOCK:   -0.95 KCAL/MOL
REMARK 927      BINDING AFFINITY PREDICTED BY RF-SCORE:    0.00 PKD
ROOT
HETATM    1 CL   UNL     1      -9.415  21.024  67.108  1.00  0.00    -0.366 Cl 
HETATM    2  C   UNL     1      -9.497  19.408  67.694  1.00  0.00    -0.313 A  
HETATM    3  C   UNL     1     -10.690  18.699  67.594  1.00  0.00    -0.428 A  
HETATM    4  C   UNL     1     -10.767  17.403  68.107  1.00  0.00    -0.343 A  
HETATM    5  C   UNL     1      -9.654  16.799  68.715  1.00  0.00    -0.260 A  
HETATM    6  C   UNL     1      -8.455  17.520  68.789  1.00  0.00    -0.213 A  
HETATM    7  C   UNL     1      -8.379  18.821  68.281  1.00  0.00    -0.360 A  
ENDROOT
BRANCH   5   8
HETATM    8  C   UNL     1      -9.776  15.430  69.350  1.00  0.00    -0.273 C  
BRANCH   8   9
HETATM    9  C   UNL     1      -9.256  14.300  68.460  1.00  0.00    -0.197 C  
BRANCH   9  10
HETATM   10  C   UNL     1     -10.220  13.867  67.334  1.00  0.00    -0.252 C  
BRANCH  10  11
HETATM   11  S   UNL     1     -11.185  12.386  67.851  1.00  0.00    -0.287 SA 
BRANCH  11  12
HETATM   12  C   UNL     1     -10.185  11.142  68.703  1.00  0.00    -0.205 A  
HETATM   13 CL   UNL     1      -7.897  11.017  67.064  1.00  0.00    -0.131 Cl 
HETATM   14  C   UNL     1      -8.897   9.212  70.388  1.00  0.00    -0.253 A  
HETATM   15  C   UNL     1      -8.886  10.655  68.427  1.00  0.00    -0.145 A  
HETATM   16  C   UNL     1      -8.253   9.723  69.279  1.00  0.00    -0.132 A  
HETATM   17  C   UNL     1     -10.192   9.611  70.655  1.00  0.00    -0.346 A  
HETATM   18  C   UNL     1     -10.830  10.552  69.831  1.00  0.00    -0.276 A  
HETATM   19 CL   UNL     1     -12.475  10.904  70.301  1.00  0.00    -0.388 Cl 
ENDBRANCH  11  12
ENDBRANCH  10  11
BRANCH  10  20
HETATM   20  C   UNL     1      -9.729  13.773  65.872  1.00  0.00    -0.196 C  
BRANCH  20  21
HETATM   21  N   UNL     1     -10.790  13.664  64.878  1.00  0.00    -0.353 NA 
HETATM   22  C   UNL     1     -11.807  14.560  64.691  1.00  0.00    -0.453 A  
HETATM   23  N   UNL     1     -12.613  14.175  63.731  1.00  0.00    -0.788 NA 
HETATM   24  C   UNL     1     -11.013  12.608  64.041  1.00  0.00    -0.406 A  
HETATM   25  C   UNL     1     -12.127  12.962  63.314  1.00  0.00    -0.440 A  
ENDBRANCH  20  21
ENDBRANCH  10  20
ENDBRANCH   9  10
ENDBRANCH   8   9
ENDBRANCH   5   8
TORSDOF 7
ENDMDL
MODEL      113
REMARK 921   NORMALIZED FREE ENERGY PREDICTED BY IDOCK:   -5.58 KCAL/MOL
REMARK 922        TOTAL FREE ENERGY PREDICTED BY IDOCK:   -8.75 KCAL/MOL
REMARK 923 INTER-LIGAND FREE ENERGY PREDICTED BY IDOCK:   -7.93 KCAL/MOL
REMARK 924 INTRA-LIGAND FREE ENERGY PREDICTED BY IDOCK:   -0.82 KCAL/MOL
REMARK 927      BINDING AFFINITY PREDICTED BY RF-SCORE:    0.00 PKD
ROOT
HETATM    1 CL   UNL     1     -10.285   4.506  71.867  1.00  0.00    -0.261 Cl 
HETATM    2  C   UNL     1     -10.609   6.170  71.570  1.00  0.00    -0.239 A  
HETATM    3  C   UNL     1     -10.405   7.103  72.583  1.00  0.00    -0.246 A  
HETATM    4  C   UNL     1     -10.707   8.447  72.353  1.00  0.00    -0.405 A  
HETATM    5  C   UNL     1     -11.208   8.873  71.112  1.00  0.00    -0.352 A  
HETATM    6  C   UNL     1     -11.388   7.923  70.098  1.00  0.00    -0.099 A  
HETATM    7  C   UNL     1     -11.091   6.576  70.329  1.00  0.00    -0.392 A  
ENDROOT
BRANCH   5   8
HETATM    8  C   UNL     1     -11.619  10.315  70.905  1.00  0.00    -0.454 C  
BRANCH   8   9
HETATM    9  C   UNL     1     -12.143  10.601  69.497  1.00  0.00    -0.285 C  
BRANCH   9  10
HETATM   10  C   UNL     1     -11.884  12.036  68.988  1.00  0.00    -0.315 C  
BRANCH  10  11
HETATM   11  S   UNL     1     -10.946  11.997  67.404  1.00  0.00    -0.278 SA 
BRANCH  11  12
HETATM   12  C   UNL     1     -10.222  13.596  66.962  1.00  0.00    -0.250 A  
HETATM   13 CL   UNL     1      -7.795  13.548  68.393  1.00  0.00    -0.139 Cl 
HETATM   14  C   UNL     1      -9.402  16.151  65.953  1.00  0.00    -0.316 A  
HETATM   15  C   UNL     1      -8.975  14.169  67.301  1.00  0.00    -0.214 A  
HETATM   16  C   UNL     1      -8.573  15.418  66.778  1.00  0.00    -0.308 A  
HETATM   17  C   UNL     1     -10.656  15.656  65.652  1.00  0.00    -0.393 A  
HETATM   18  C   UNL     1     -11.066  14.408  66.147  1.00  0.00    -0.330 A  
HETATM   19 CL   UNL     1     -12.693  13.966  65.693  1.00  0.00    -0.560 Cl 
ENDBRANCH  11  12
ENDBRANCH  10  11
BRANCH  10  20
HETATM   20  C   UNL     1     -11.373  13.131  69.952  1.00  0.00     0.015 C  
BRANCH  20  21
HETATM   21  N   UNL     1     -12.420  13.881  70.633  1.00  0.00    -0.355 NA 
HETATM   22  C   UNL     1     -12.814  15.158  70.335  1.00  0.00    -0.304 A  
HETATM   23  N   UNL     1     -13.769  15.563  71.138  1.00  0.00    -0.568 NA 
HETATM   24  C   UNL     1     -13.112  13.486  71.742  1.00  0.00    -0.387 A  
HETATM   25  C   UNL     1     -13.966  14.529  72.017  1.00  0.00    -0.495 A  
ENDBRANCH  20  21
ENDBRANCH  10  20
ENDBRANCH   9  10
ENDBRANCH   8   9
ENDBRANCH   5   8
TORSDOF 7
ENDMDL
MODEL      114
REMARK 921   NORMALIZED FREE ENERGY PREDICTED BY IDOCK:   -5.57 KCAL/MOL
REMARK 922        TOTAL FREE ENERGY PREDICTED BY IDOCK:   -8.74 KCAL/MOL
REMARK 923 INTER-LIGAND FREE ENERGY PREDICTED BY IDOCK:   -7.46 KCAL/MOL
REMARK 924 INTRA-LIGAND FREE ENERGY PREDICTED BY IDOCK:   -1.28 KCAL/MOL
REMARK 927      BINDING AFFINITY PREDICTED BY RF-SCORE:    0.00 PKD
ROOT
HETATM    1 CL   UNL     1     -12.146  13.034  62.959  1.00  0.00    -0.343 Cl 
HETATM    2  C   UNL     1     -11.794  12.961  64.641  1.00  0.00    -0.372 A  
HETATM    3  C   UNL     1     -12.708  13.471  65.559  1.00  0.00    -0.493 A  
HETATM    4  C   UNL     1     -12.404  13.448  66.921  1.00  0.00    -0.262 A  
HETATM    5  C   UNL     1     -11.190  12.911  67.381  1.00  0.00    -0.331 A  
HETATM    6  C   UNL     1     -10.290  12.384  66.445  1.00  0.00    -0.255 A  
HETATM    7  C   UNL     1     -10.593  12.412  65.080  1.00  0.00    -0.330 A  
ENDROOT
BRANCH   5   8
HETATM    8  C   UNL     1     -10.830  12.977  68.850  1.00  0.00    -0.244 C  
BRANCH   8   9
HETATM    9  C   UNL     1      -9.691  13.952  69.153  1.00  0.00     0.206 C  
BRANCH   9  10
HETATM   10  C   UNL     1     -10.017  15.435  68.872  1.00  0.00    -0.219 C  
BRANCH  10  11
HETATM   11  S   UNL     1      -8.706  16.192  67.821  1.00  0.00    -0.172 SA 
BRANCH  11  12
HETATM   12  C   UNL     1      -9.052  17.912  67.376  1.00  0.00    -0.245 A  
HETATM   13 CL   UNL     1      -7.506  19.320  69.263  1.00  0.00    -0.314 Cl 
HETATM   14  C   UNL     1      -9.792  20.465  66.301  1.00  0.00    -0.365 A  
HETATM   15  C   UNL     1      -8.541  19.121  67.900  1.00  0.00    -0.305 A  
HETATM   16  C   UNL     1      -8.894  20.371  67.346  1.00  0.00    -0.430 A  
HETATM   17  C   UNL     1     -10.366  19.311  65.805  1.00  0.00    -0.391 A  
HETATM   18  C   UNL     1     -10.011  18.058  66.330  1.00  0.00    -0.337 A  
HETATM   19 CL   UNL     1     -10.867  16.719  65.605  1.00  0.00    -0.191 Cl 
ENDBRANCH  11  12
ENDBRANCH  10  11
BRANCH  10  20
HETATM   20  C   UNL     1     -10.473  16.371  70.014  1.00  0.00    -0.131 C  
BRANCH  20  21
HETATM   21  N   UNL     1     -11.570  15.856  70.823  1.00  0.00    -0.381 NA 
HETATM   22  C   UNL     1     -12.789  15.449  70.352  1.00  0.00    -0.311 A  
HETATM   23  N   UNL     1     -13.571  15.052  71.328  1.00  0.00    -0.434 NA 
HETATM   24  C   UNL     1     -11.613  15.788  72.186  1.00  0.00    -0.436 A  
HETATM   25  C   UNL     1     -12.848  15.255  72.476  1.00  0.00    -0.374 A  
ENDBRANCH  20  21
ENDBRANCH  10  20
ENDBRANCH   9  10
ENDBRANCH   8   9
ENDBRANCH   5   8
TORSDOF 7
ENDMDL
MODEL      115
REMARK 921   NORMALIZED FREE ENERGY PREDICTED BY IDOCK:   -5.57 KCAL/MOL
REMARK 922        TOTAL FREE ENERGY PREDICTED BY IDOCK:   -8.73 KCAL/MOL
REMARK 923 INTER-LIGAND FREE ENERGY PREDICTED BY IDOCK:   -7.18 KCAL/MOL
REMARK 924 INTRA-LIGAND FREE ENERGY PREDICTED BY IDOCK:   -1.55 KCAL/MOL
REMARK 927      BINDING AFFINITY PREDICTED BY RF-SCORE:    0.00 PKD
ROOT
HETATM    1 CL   UNL     1     -13.211  11.618  63.362  1.00  0.00    -0.036 Cl 
HETATM    2  C   UNL     1     -12.138  12.823  63.959  1.00  0.00    -0.457 A  
HETATM    3  C   UNL     1     -10.779  12.544  64.065  1.00  0.00    -0.449 A  
HETATM    4  C   UNL     1      -9.915  13.509  64.587  1.00  0.00    -0.112 A  
HETATM    5  C   UNL     1     -10.397  14.762  65.000  1.00  0.00    -0.420 A  
HETATM    6  C   UNL     1     -11.764  15.033  64.867  1.00  0.00    -0.336 A  
HETATM    7  C   UNL     1     -12.631  14.065  64.349  1.00  0.00    -0.204 A  
ENDROOT
BRANCH   5   8
HETATM    8  C   UNL     1      -9.467  15.764  65.651  1.00  0.00    -0.252 C  
BRANCH   8   9
HETATM    9  C   UNL     1     -10.159  16.649  66.689  1.00  0.00    -0.305 C  
BRANCH   9  10
HETATM   10  C   UNL     1      -9.218  17.264  67.747  1.00  0.00    -0.239 C  
BRANCH  10  11
HETATM   11  S   UNL     1      -8.870  16.045  69.083  1.00  0.00    -0.224 SA 
BRANCH  11  12
HETATM   12  C   UNL     1      -9.686  14.450  68.827  1.00  0.00    -0.190 A  
HETATM   13 CL   UNL     1      -7.704  13.002  67.443  1.00  0.00    -0.169 Cl 
HETATM   14  C   UNL     1     -11.291  12.077  68.706  1.00  0.00    -0.331 A  
HETATM   15  C   UNL     1      -9.211  13.255  68.241  1.00  0.00    -0.197 A  
HETATM   16  C   UNL     1     -10.002  12.086  68.210  1.00  0.00    -0.203 A  
HETATM   17  C   UNL     1     -11.816  13.244  69.225  1.00  0.00    -0.383 A  
HETATM   18  C   UNL     1     -11.037  14.411  69.282  1.00  0.00    -0.271 A  
HETATM   19 CL   UNL     1     -11.882  15.794  69.934  1.00  0.00    -0.359 Cl 
ENDBRANCH  11  12
ENDBRANCH  10  11
BRANCH  10  20
HETATM   20  C   UNL     1      -9.473  18.686  68.295  1.00  0.00    -0.336 C  
BRANCH  20  21
HETATM   21  N   UNL     1      -8.322  19.579  68.236  1.00  0.00    -0.334 NA 
HETATM   22  C   UNL     1      -8.065  20.490  67.248  1.00  0.00    -0.309 A  
HETATM   23  N   UNL     1      -6.943  21.132  67.470  1.00  0.00    -0.460 NA 
HETATM   24  C   UNL     1      -7.258  19.589  69.092  1.00  0.00    -0.347 A  
HETATM   25  C   UNL     1      -6.432  20.582  68.618  1.00  0.00    -0.260 A  
ENDBRANCH  20  21
ENDBRANCH  10  20
ENDBRANCH   9  10
ENDBRANCH   8   9
ENDBRANCH   5   8
TORSDOF 7
ENDMDL
MODEL      116
REMARK 921   NORMALIZED FREE ENERGY PREDICTED BY IDOCK:   -5.57 KCAL/MOL
REMARK 922        TOTAL FREE ENERGY PREDICTED BY IDOCK:   -8.73 KCAL/MOL
REMARK 923 INTER-LIGAND FREE ENERGY PREDICTED BY IDOCK:   -7.40 KCAL/MOL
REMARK 924 INTRA-LIGAND FREE ENERGY PREDICTED BY IDOCK:   -1.33 KCAL/MOL
REMARK 927      BINDING AFFINITY PREDICTED BY RF-SCORE:    0.00 PKD
ROOT
HETATM    1 CL   UNL     1     -14.399   8.048  72.098  1.00  0.00    -0.454 Cl 
HETATM    2  C   UNL     1     -13.017   8.755  71.354  1.00  0.00    -0.268 A  
HETATM    3  C   UNL     1     -11.884   7.979  71.130  1.00  0.00    -0.307 A  
HETATM    4  C   UNL     1     -10.749   8.564  70.564  1.00  0.00    -0.246 A  
HETATM    5  C   UNL     1     -10.738   9.923  70.209  1.00  0.00    -0.367 A  
HETATM    6  C   UNL     1     -11.894  10.684  70.423  1.00  0.00    -0.441 A  
HETATM    7  C   UNL     1     -13.030  10.100  70.996  1.00  0.00    -0.473 A  
ENDROOT
BRANCH   5   8
HETATM    8  C   UNL     1      -9.473  10.568  69.684  1.00  0.00    -0.029 C  
BRANCH   8   9
HETATM    9  C   UNL     1      -8.666   9.655  68.758  1.00  0.00    -0.126 C  
BRANCH   9  10
HETATM   10  C   UNL     1      -9.010   9.785  67.259  1.00  0.00    -0.135 C  
BRANCH  10  11
HETATM   11  S   UNL     1      -9.029  11.556  66.756  1.00  0.00    -0.185 SA 
BRANCH  11  12
HETATM   12  C   UNL     1     -10.236  11.918  65.456  1.00  0.00    -0.254 A  
HETATM   13 CL   UNL     1      -8.800  11.241  63.128  1.00  0.00    -0.117 Cl 
HETATM   14  C   UNL     1     -12.445  12.531  63.733  1.00  0.00    -0.552 A  
HETATM   15  C   UNL     1     -10.164  11.741  64.056  1.00  0.00    -0.348 A  
HETATM   16  C   UNL     1     -11.267  12.023  63.220  1.00  0.00    -0.403 A  
HETATM   17  C   UNL     1     -12.531  12.782  65.088  1.00  0.00    -0.565 A  
HETATM   18  C   UNL     1     -11.452  12.488  65.937  1.00  0.00    -0.373 A  
HETATM   19 CL   UNL     1     -11.732  12.908  67.609  1.00  0.00    -0.409 Cl 
ENDBRANCH  11  12
ENDBRANCH  10  11
BRANCH  10  20
HETATM   20  C   UNL     1     -10.184   8.984  66.649  1.00  0.00    -0.263 C  
BRANCH  20  21
HETATM   21  N   UNL     1     -10.068   7.537  66.781  1.00  0.00    -0.249 NA 
HETATM   22  C   UNL     1     -10.999   6.708  67.346  1.00  0.00    -0.360 A  
HETATM   23  N   UNL     1     -10.598   5.459  67.331  1.00  0.00    -0.195 NA 
HETATM   24  C   UNL     1      -8.979   6.777  66.463  1.00  0.00    -0.149 A  
HETATM   25  C   UNL     1      -9.342   5.488  66.780  1.00  0.00    -0.132 A  
ENDBRANCH  20  21
ENDBRANCH  10  20
ENDBRANCH   9  10
ENDBRANCH   8   9
ENDBRANCH   5   8
TORSDOF 7
ENDMDL
MODEL      117
REMARK 921   NORMALIZED FREE ENERGY PREDICTED BY IDOCK:   -5.56 KCAL/MOL
REMARK 922        TOTAL FREE ENERGY PREDICTED BY IDOCK:   -8.71 KCAL/MOL
REMARK 923 INTER-LIGAND FREE ENERGY PREDICTED BY IDOCK:   -7.86 KCAL/MOL
REMARK 924 INTRA-LIGAND FREE ENERGY PREDICTED BY IDOCK:   -0.86 KCAL/MOL
REMARK 927      BINDING AFFINITY PREDICTED BY RF-SCORE:    0.00 PKD
ROOT
HETATM    1 CL   UNL     1     -10.993   7.063  73.262  1.00  0.00    -0.319 Cl 
HETATM    2  C   UNL     1     -11.263   8.402  72.215  1.00  0.00    -0.376 A  
HETATM    3  C   UNL     1     -12.482   9.073  72.254  1.00  0.00    -0.427 A  
HETATM    4  C   UNL     1     -12.714  10.133  71.375  1.00  0.00    -0.530 A  
HETATM    5  C   UNL     1     -11.731  10.539  70.457  1.00  0.00    -0.443 A  
HETATM    6  C   UNL     1     -10.503   9.866  70.446  1.00  0.00    -0.347 A  
HETATM    7  C   UNL     1     -10.271   8.800  71.322  1.00  0.00    -0.332 A  
ENDROOT
BRANCH   5   8
HETATM    8  C   UNL     1     -12.028  11.627  69.448  1.00  0.00    -0.381 C  
BRANCH   8   9
HETATM    9  C   UNL     1     -11.732  13.035  69.968  1.00  0.00    -0.285 C  
BRANCH   9  10
HETATM   10  C   UNL     1     -12.023  14.171  68.964  1.00  0.00    -0.340 C  
BRANCH  10  11
HETATM   11  S   UNL     1     -10.819  14.121  67.571  1.00  0.00    -0.279 SA 
BRANCH  11  12
HETATM   12  C   UNL     1      -9.099  14.301  68.106  1.00  0.00    -0.193 A  
HETATM   13 CL   UNL     1      -8.338  11.620  68.520  1.00  0.00    -0.154 Cl 
HETATM   14  C   UNL     1      -6.417  15.016  68.825  1.00  0.00    -0.082 A  
HETATM   15  C   UNL     1      -8.123  13.327  68.418  1.00  0.00    -0.134 A  
HETATM   16  C   UNL     1      -6.799  13.691  68.747  1.00  0.00    -0.107 A  
HETATM   17  C   UNL     1      -7.358  15.999  68.593  1.00  0.00    -0.159 A  
HETATM   18  C   UNL     1      -8.675  15.656  68.245  1.00  0.00    -0.174 A  
HETATM   19 CL   UNL     1      -9.731  17.031  68.029  1.00  0.00    -0.253 Cl 
ENDBRANCH  11  12
ENDBRANCH  10  11
BRANCH  10  20
HETATM   20  C   UNL     1     -12.293  15.610  69.460  1.00  0.00    -0.113 C  
BRANCH  20  21
HETATM   21  N   UNL     1     -12.769  15.701  70.835  1.00  0.00    -0.463 NA 
HETATM   22  C   UNL     1     -12.035  16.122  71.910  1.00  0.00    -0.507 A  
HETATM   23  N   UNL     1     -12.738  16.077  73.017  1.00  0.00    -0.470 NA 
HETATM   24  C   UNL     1     -13.984  15.288  71.303  1.00  0.00    -0.457 A  
HETATM   25  C   UNL     1     -13.956  15.562  72.651  1.00  0.00    -0.528 A  
ENDBRANCH  20  21
ENDBRANCH  10  20
ENDBRANCH   9  10
ENDBRANCH   8   9
ENDBRANCH   5   8
TORSDOF 7
ENDMDL
MODEL      118
REMARK 921   NORMALIZED FREE ENERGY PREDICTED BY IDOCK:   -5.55 KCAL/MOL
REMARK 922        TOTAL FREE ENERGY PREDICTED BY IDOCK:   -8.70 KCAL/MOL
REMARK 923 INTER-LIGAND FREE ENERGY PREDICTED BY IDOCK:   -7.78 KCAL/MOL
REMARK 924 INTRA-LIGAND FREE ENERGY PREDICTED BY IDOCK:   -0.93 KCAL/MOL
REMARK 927      BINDING AFFINITY PREDICTED BY RF-SCORE:    0.00 PKD
ROOT
HETATM    1 CL   UNL     1     -10.099  18.769  68.211  1.00  0.00    -0.409 Cl 
HETATM    2  C   UNL     1     -10.489  17.115  68.481  1.00  0.00    -0.377 A  
HETATM    3  C   UNL     1     -10.609  16.249  67.399  1.00  0.00    -0.307 A  
HETATM    4  C   UNL     1     -10.966  14.917  67.617  1.00  0.00    -0.300 A  
HETATM    5  C   UNL     1     -11.199  14.435  68.916  1.00  0.00    -0.284 A  
HETATM    6  C   UNL     1     -11.053  15.315  69.996  1.00  0.00    -0.303 A  
HETATM    7  C   UNL     1     -10.701  16.652  69.777  1.00  0.00    -0.254 A  
ENDROOT
BRANCH   5   8
HETATM    8  C   UNL     1     -11.676  13.015  69.133  1.00  0.00    -0.378 C  
BRANCH   8   9
HETATM    9  C   UNL     1     -11.811  12.215  67.836  1.00  0.00    -0.338 C  
BRANCH   9  10
HETATM   10  C   UNL     1     -10.639  11.253  67.542  1.00  0.00    -0.218 C  
BRANCH  10  11
HETATM   11  S   UNL     1     -10.064  10.450  69.097  1.00  0.00    -0.231 SA 
BRANCH  11  12
HETATM   12  C   UNL     1     -10.529   8.705  69.214  1.00  0.00    -0.217 A  
HETATM   13 CL   UNL     1     -10.024   7.795  66.595  1.00  0.00    -0.313 Cl 
HETATM   14  C   UNL     1     -11.282   6.011  69.843  1.00  0.00    -0.438 A  
HETATM   15  C   UNL     1     -10.458   7.665  68.258  1.00  0.00    -0.174 A  
HETATM   16  C   UNL     1     -10.809   6.338  68.588  1.00  0.00    -0.401 A  
HETATM   17  C   UNL     1     -11.429   7.010  70.785  1.00  0.00    -0.360 A  
HETATM   18  C   UNL     1     -11.067   8.332  70.481  1.00  0.00    -0.249 A  
HETATM   19 CL   UNL     1     -11.360   9.462  71.781  1.00  0.00    -0.445 Cl 
ENDBRANCH  11  12
ENDBRANCH  10  11
BRANCH  10  20
HETATM   20  C   UNL     1      -9.468  11.695  66.635  1.00  0.00    -0.201 C  
BRANCH  20  21
HETATM   21  N   UNL     1      -9.768  11.696  65.209  1.00  0.00    -0.237 NA 
HETATM   22  C   UNL     1     -10.416  12.690  64.528  1.00  0.00    -0.355 A  
HETATM   23  N   UNL     1     -10.550  12.391  63.258  1.00  0.00    -0.337 NA 
HETATM   24  C   UNL     1      -9.550  10.671  64.333  1.00  0.00    -0.295 A  
HETATM   25  C   UNL     1     -10.010  11.137  63.123  1.00  0.00    -0.356 A  
ENDBRANCH  20  21
ENDBRANCH  10  20
ENDBRANCH   9  10
ENDBRANCH   8   9
ENDBRANCH   5   8
TORSDOF 7
ENDMDL
MODEL      119
REMARK 921   NORMALIZED FREE ENERGY PREDICTED BY IDOCK:   -5.55 KCAL/MOL
REMARK 922        TOTAL FREE ENERGY PREDICTED BY IDOCK:   -8.70 KCAL/MOL
REMARK 923 INTER-LIGAND FREE ENERGY PREDICTED BY IDOCK:   -7.51 KCAL/MOL
REMARK 924 INTRA-LIGAND FREE ENERGY PREDICTED BY IDOCK:   -1.19 KCAL/MOL
REMARK 927      BINDING AFFINITY PREDICTED BY RF-SCORE:    0.00 PKD
ROOT
HETATM    1 CL   UNL     1     -14.163   7.449  71.896  1.00  0.00    -0.479 Cl 
HETATM    2  C   UNL     1     -12.747   8.167  71.233  1.00  0.00    -0.206 A  
HETATM    3  C   UNL     1     -11.729   7.357  70.741  1.00  0.00    -0.305 A  
HETATM    4  C   UNL     1     -10.564   7.940  70.240  1.00  0.00    -0.231 A  
HETATM    5  C   UNL     1     -10.406   9.336  70.220  1.00  0.00    -0.272 A  
HETATM    6  C   UNL     1     -11.450  10.137  70.701  1.00  0.00    -0.432 A  
HETATM    7  C   UNL     1     -12.615   9.553  71.208  1.00  0.00    -0.425 A  
ENDROOT
BRANCH   5   8
HETATM    8  C   UNL     1      -9.102   9.954  69.763  1.00  0.00    -0.249 C  
BRANCH   8   9
HETATM    9  C   UNL     1      -8.372   9.119  68.709  1.00  0.00    -0.121 C  
BRANCH   9  10
HETATM   10  C   UNL     1      -8.839   9.356  67.256  1.00  0.00    -0.128 C  
BRANCH  10  11
HETATM   11  S   UNL     1      -8.820  11.155  66.862  1.00  0.00    -0.161 SA 
BRANCH  11  12
HETATM   12  C   UNL     1     -10.239  11.685  65.870  1.00  0.00    -0.238 A  
HETATM   13 CL   UNL     1     -11.983  12.682  67.845  1.00  0.00    -0.377 Cl 
HETATM   14  C   UNL     1     -12.218  12.458  63.946  1.00  0.00    -0.603 A  
HETATM   15  C   UNL     1     -11.439  12.329  66.249  1.00  0.00    -0.380 A  
HETATM   16  C   UNL     1     -12.395  12.726  65.289  1.00  0.00    -0.546 A  
HETATM   17  C   UNL     1     -11.090  11.771  63.543  1.00  0.00    -0.503 A  
HETATM   18  C   UNL     1     -10.119  11.385  64.481  1.00  0.00    -0.287 A  
HETATM   19 CL   UNL     1      -8.784  10.494  63.792  1.00  0.00    -0.186 Cl 
ENDBRANCH  11  12
ENDBRANCH  10  11
BRANCH  10  20
HETATM   20  C   UNL     1     -10.097   8.644  66.709  1.00  0.00    -0.296 C  
BRANCH  20  21
HETATM   21  N   UNL     1      -9.991   7.193  66.634  1.00  0.00    -0.191 NA 
HETATM   22  C   UNL     1      -8.940   6.492  66.107  1.00  0.00    -0.146 A  
HETATM   23  N   UNL     1      -9.148   5.198  66.169  1.00  0.00    -0.139 NA 
HETATM   24  C   UNL     1     -10.957   6.289  66.977  1.00  0.00    -0.364 A  
HETATM   25  C   UNL     1     -10.400   5.059  66.713  1.00  0.00    -0.244 A  
ENDBRANCH  20  21
ENDBRANCH  10  20
ENDBRANCH   9  10
ENDBRANCH   8   9
ENDBRANCH   5   8
TORSDOF 7
ENDMDL
MODEL      120
REMARK 921   NORMALIZED FREE ENERGY PREDICTED BY IDOCK:   -5.54 KCAL/MOL
REMARK 922        TOTAL FREE ENERGY PREDICTED BY IDOCK:   -8.69 KCAL/MOL
REMARK 923 INTER-LIGAND FREE ENERGY PREDICTED BY IDOCK:   -7.93 KCAL/MOL
REMARK 924 INTRA-LIGAND FREE ENERGY PREDICTED BY IDOCK:   -0.77 KCAL/MOL
REMARK 927      BINDING AFFINITY PREDICTED BY RF-SCORE:    0.00 PKD
ROOT
HETATM    1 CL   UNL     1     -10.218  18.557  68.648  1.00  0.00    -0.400 Cl 
HETATM    2  C   UNL     1     -10.647  16.902  68.836  1.00  0.00    -0.353 A  
HETATM    3  C   UNL     1     -10.604  16.050  67.736  1.00  0.00    -0.309 A  
HETATM    4  C   UNL     1     -10.992  14.717  67.880  1.00  0.00    -0.283 A  
HETATM    5  C   UNL     1     -11.417  14.219  69.123  1.00  0.00    -0.330 A  
HETATM    6  C   UNL     1     -11.434  15.085  70.224  1.00  0.00    -0.308 A  
HETATM    7  C   UNL     1     -11.052  16.423  70.079  1.00  0.00    -0.300 A  
ENDROOT
BRANCH   5   8
HETATM    8  C   UNL     1     -11.923  12.797  69.247  1.00  0.00    -0.300 C  
BRANCH   8   9
HETATM    9  C   UNL     1     -11.855  12.012  67.935  1.00  0.00    -0.320 C  
BRANCH   9  10
HETATM   10  C   UNL     1     -10.725  10.962  67.868  1.00  0.00    -0.231 C  
BRANCH  10  11
HETATM   11  S   UNL     1     -10.167  10.509  69.564  1.00  0.00    -0.159 SA 
BRANCH  11  12
HETATM   12  C   UNL     1     -11.290   9.365  70.404  1.00  0.00    -0.248 A  
HETATM   13 CL   UNL     1     -12.969  11.135  71.814  1.00  0.00    -0.562 Cl 
HETATM   14  C   UNL     1     -12.889   7.237  71.471  1.00  0.00    -0.430 A  
HETATM   15  C   UNL     1     -12.410   9.613  71.230  1.00  0.00    -0.360 A  
HETATM   16  C   UNL     1     -13.204   8.557  71.730  1.00  0.00    -0.392 A  
HETATM   17  C   UNL     1     -11.763   6.952  70.724  1.00  0.00    -0.417 A  
HETATM   18  C   UNL     1     -10.973   7.989  70.203  1.00  0.00    -0.226 A  
HETATM   19 CL   UNL     1      -9.572   7.436  69.319  1.00  0.00    -0.154 Cl 
ENDBRANCH  11  12
ENDBRANCH  10  11
BRANCH  10  20
HETATM   20  C   UNL     1      -9.546  11.137  66.884  1.00  0.00    -0.186 C  
BRANCH  20  21
HETATM   21  N   UNL     1      -9.936  11.397  65.504  1.00  0.00    -0.228 NA 
HETATM   22  C   UNL     1      -9.899  10.492  64.478  1.00  0.00    -0.337 A  
HETATM   23  N   UNL     1     -10.298  11.031  63.350  1.00  0.00    -0.351 NA 
HETATM   24  C   UNL     1     -10.304  12.602  64.977  1.00  0.00    -0.299 A  
HETATM   25  C   UNL     1     -10.557  12.345  63.649  1.00  0.00    -0.445 A  
ENDBRANCH  20  21
ENDBRANCH  10  20
ENDBRANCH   9  10
ENDBRANCH   8   9
ENDBRANCH   5   8
TORSDOF 7
ENDMDL
MODEL      121
REMARK 921   NORMALIZED FREE ENERGY PREDICTED BY IDOCK:   -5.53 KCAL/MOL
REMARK 922        TOTAL FREE ENERGY PREDICTED BY IDOCK:   -8.68 KCAL/MOL
REMARK 923 INTER-LIGAND FREE ENERGY PREDICTED BY IDOCK:   -7.94 KCAL/MOL
REMARK 924 INTRA-LIGAND FREE ENERGY PREDICTED BY IDOCK:   -0.74 KCAL/MOL
REMARK 927      BINDING AFFINITY PREDICTED BY RF-SCORE:    0.00 PKD
ROOT
HETATM    1 CL   UNL     1     -10.259   6.547  72.654  1.00  0.00    -0.194 Cl 
HETATM    2  C   UNL     1     -10.754   7.936  71.768  1.00  0.00    -0.232 A  
HETATM    3  C   UNL     1      -9.849   8.574  70.925  1.00  0.00    -0.234 A  
HETATM    4  C   UNL     1     -10.240   9.725  70.238  1.00  0.00    -0.346 A  
HETATM    5  C   UNL     1     -11.537  10.246  70.380  1.00  0.00    -0.411 A  
HETATM    6  C   UNL     1     -12.441   9.579  71.217  1.00  0.00    -0.432 A  
HETATM    7  C   UNL     1     -12.049   8.429  71.910  1.00  0.00    -0.398 A  
ENDROOT
BRANCH   5   8
HETATM    8  C   UNL     1     -11.920  11.546  69.705  1.00  0.00    -0.407 C  
BRANCH   8   9
HETATM    9  C   UNL     1     -11.558  11.587  68.219  1.00  0.00    -0.378 C  
BRANCH   9  10
HETATM   10  C   UNL     1     -11.287  12.999  67.657  1.00  0.00    -0.300 C  
BRANCH  10  11
HETATM   11  S   UNL     1     -10.610  14.095  68.974  1.00  0.00    -0.169 SA 
BRANCH  11  12
HETATM   12  C   UNL     1     -10.285  15.781  68.403  1.00  0.00    -0.223 A  
HETATM   13 CL   UNL     1      -9.099  15.321  65.888  1.00  0.00    -0.259 Cl 
HETATM   14  C   UNL     1     -10.023  18.582  67.846  1.00  0.00    -0.374 A  
HETATM   15  C   UNL     1      -9.751  16.255  67.183  1.00  0.00    -0.238 A  
HETATM   16  C   UNL     1      -9.650  17.637  66.911  1.00  0.00    -0.286 A  
HETATM   17  C   UNL     1     -10.486  18.159  69.077  1.00  0.00     0.004 A  
HETATM   18  C   UNL     1     -10.612  16.789  69.358  1.00  0.00    -0.318 A  
HETATM   19 CL   UNL     1     -11.176  16.448  70.975  1.00  0.00    -0.258 Cl 
ENDBRANCH  11  12
ENDBRANCH  10  11
BRANCH  10  20
HETATM   20  C   UNL     1     -12.340  13.711  66.778  1.00  0.00    -0.305 C  
BRANCH  20  21
HETATM   21  N   UNL     1     -12.242  13.421  65.353  1.00  0.00    -0.423 NA 
HETATM   22  C   UNL     1     -12.471  14.309  64.337  1.00  0.00    -0.300 A  
HETATM   23  N   UNL     1     -12.318  13.744  63.164  1.00  0.00    -0.650 NA 
HETATM   24  C   UNL     1     -12.009  12.200  64.787  1.00  0.00    -0.307 A  
HETATM   25  C   UNL     1     -12.026  12.430  63.431  1.00  0.00    -0.504 A  
ENDBRANCH  20  21
ENDBRANCH  10  20
ENDBRANCH   9  10
ENDBRANCH   8   9
ENDBRANCH   5   8
TORSDOF 7
ENDMDL
MODEL      122
REMARK 921   NORMALIZED FREE ENERGY PREDICTED BY IDOCK:   -5.52 KCAL/MOL
REMARK 922        TOTAL FREE ENERGY PREDICTED BY IDOCK:   -8.66 KCAL/MOL
REMARK 923 INTER-LIGAND FREE ENERGY PREDICTED BY IDOCK:   -7.57 KCAL/MOL
REMARK 924 INTRA-LIGAND FREE ENERGY PREDICTED BY IDOCK:   -1.10 KCAL/MOL
REMARK 927      BINDING AFFINITY PREDICTED BY RF-SCORE:    0.00 PKD
ROOT
HETATM    1 CL   UNL     1     -10.143   9.016  66.300  1.00  0.00    -0.356 Cl 
HETATM    2  C   UNL     1      -9.951  10.714  66.500  1.00  0.00    -0.215 A  
HETATM    3  C   UNL     1     -10.495  11.584  65.561  1.00  0.00    -0.327 A  
HETATM    4  C   UNL     1     -10.303  12.960  65.703  1.00  0.00    -0.295 A  
HETATM    5  C   UNL     1      -9.575  13.480  66.786  1.00  0.00    -0.268 A  
HETATM    6  C   UNL     1      -9.052  12.590  67.733  1.00  0.00    -0.191 A  
HETATM    7  C   UNL     1      -9.238  11.211  67.588  1.00  0.00    -0.151 A  
ENDROOT
BRANCH   5   8
HETATM    8  C   UNL     1      -9.294  14.964  66.879  1.00  0.00    -0.258 C  
BRANCH   8   9
HETATM    9  C   UNL     1     -10.561  15.817  66.978  1.00  0.00    -0.316 C  
BRANCH   9  10
HETATM   10  C   UNL     1     -10.967  16.210  68.414  1.00  0.00    -0.341 C  
BRANCH  10  11
HETATM   11  S   UNL     1     -10.269  17.858  68.850  1.00  0.00    -0.231 SA 
BRANCH  11  12
HETATM   12  C   UNL     1      -8.990  18.420  67.699  1.00  0.00    -0.274 A  
HETATM   13 CL   UNL     1     -10.499  19.892  65.830  1.00  0.00    -0.607 Cl 
HETATM   14  C   UNL     1      -6.671  19.162  66.184  1.00  0.00    -0.243 A  
HETATM   15  C   UNL     1      -9.075  19.255  66.562  1.00  0.00    -0.350 A  
HETATM   16  C   UNL     1      -7.922  19.633  65.839  1.00  0.00    -0.265 A  
HETATM   17  C   UNL     1      -6.555  18.289  67.249  1.00  0.00    -0.199 A  
HETATM   18  C   UNL     1      -7.687  17.918  67.991  1.00  0.00    -0.245 A  
HETATM   19 CL   UNL     1      -7.351  16.779  69.273  1.00  0.00    -0.213 Cl 
ENDBRANCH  11  12
ENDBRANCH  10  11
BRANCH  10  20
HETATM   20  C   UNL     1     -10.847  15.193  69.572  1.00  0.00    -0.263 C  
BRANCH  20  21
HETATM   21  N   UNL     1     -11.854  15.335  70.615  1.00  0.00    -0.305 NA 
HETATM   22  C   UNL     1     -13.171  14.978  70.511  1.00  0.00    -0.215 A  
HETATM   23  N   UNL     1     -13.828  15.246  71.615  1.00  0.00    -0.483 NA 
HETATM   24  C   UNL     1     -11.686  15.939  71.829  1.00  0.00    -0.491 A  
HETATM   25  C   UNL     1     -12.913  15.841  72.445  1.00  0.00    -0.465 A  
ENDBRANCH  20  21
ENDBRANCH  10  20
ENDBRANCH   9  10
ENDBRANCH   8   9
ENDBRANCH   5   8
TORSDOF 7
ENDMDL
MODEL      123
REMARK 921   NORMALIZED FREE ENERGY PREDICTED BY IDOCK:   -5.51 KCAL/MOL
REMARK 922        TOTAL FREE ENERGY PREDICTED BY IDOCK:   -8.65 KCAL/MOL
REMARK 923 INTER-LIGAND FREE ENERGY PREDICTED BY IDOCK:   -6.76 KCAL/MOL
REMARK 924 INTRA-LIGAND FREE ENERGY PREDICTED BY IDOCK:   -1.89 KCAL/MOL
REMARK 927      BINDING AFFINITY PREDICTED BY RF-SCORE:    0.00 PKD
ROOT
HETATM    1 CL   UNL     1     -10.594  18.727  66.586  1.00  0.00    -0.461 Cl 
HETATM    2  C   UNL     1      -9.885  17.250  67.110  1.00  0.00    -0.269 A  
HETATM    3  C   UNL     1      -9.345  16.374  66.173  1.00  0.00    -0.360 A  
HETATM    4  C   UNL     1      -8.806  15.157  66.597  1.00  0.00    -0.321 A  
HETATM    5  C   UNL     1      -8.794  14.807  67.957  1.00  0.00    -0.169 A  
HETATM    6  C   UNL     1      -9.323  15.710  68.888  1.00  0.00    -0.223 A  
HETATM    7  C   UNL     1      -9.868  16.926  68.464  1.00  0.00    -0.267 A  
ENDROOT
BRANCH   5   8
HETATM    8  C   UNL     1      -8.293  13.447  68.394  1.00  0.00    -0.137 C  
BRANCH   8   9
HETATM    9  C   UNL     1      -8.497  12.357  67.339  1.00  0.00    -0.179 C  
BRANCH   9  10
HETATM   10  C   UNL     1      -9.204  11.084  67.852  1.00  0.00    -0.155 C  
BRANCH  10  11
HETATM   11  S   UNL     1     -11.013  11.175  67.513  1.00  0.00    -0.293 SA 
BRANCH  11  12
HETATM   12  C   UNL     1     -11.427  12.261  66.126  1.00  0.00    -0.374 A  
HETATM   13 CL   UNL     1     -10.375  10.830  63.938  1.00  0.00    -0.390 Cl 
HETATM   14  C   UNL     1     -12.337  14.204  64.224  1.00  0.00    -0.398 A  
HETATM   15  C   UNL     1     -11.229  12.097  64.736  1.00  0.00    -0.323 A  
HETATM   16  C   UNL     1     -11.704  13.050  63.808  1.00  0.00    -0.547 A  
HETATM   17  C   UNL     1     -12.489  14.433  65.577  1.00  0.00    -0.356 A  
HETATM   18  C   UNL     1     -12.042  13.488  66.514  1.00  0.00    -0.408 A  
HETATM   19 CL   UNL     1     -12.285  13.968  68.176  1.00  0.00    -0.295 Cl 
ENDBRANCH  11  12
ENDBRANCH  10  11
BRANCH  10  20
HETATM   20  C   UNL     1      -8.893  10.523  69.258  1.00  0.00    -0.122 C  
BRANCH  20  21
HETATM   21  N   UNL     1      -8.954   9.071  69.362  1.00  0.00    -0.142 NA 
HETATM   22  C   UNL     1      -9.128   8.357  70.516  1.00  0.00    -0.150 A  
HETATM   23  N   UNL     1      -9.124   7.066  70.286  1.00  0.00    -0.156 NA 
HETATM   24  C   UNL     1      -8.747   8.175  68.352  1.00  0.00    -0.134 A  
HETATM   25  C   UNL     1      -8.891   6.939  68.940  1.00  0.00    -0.129 A  
ENDBRANCH  20  21
ENDBRANCH  10  20
ENDBRANCH   9  10
ENDBRANCH   8   9
ENDBRANCH   5   8
TORSDOF 7
ENDMDL
MODEL      124
REMARK 921   NORMALIZED FREE ENERGY PREDICTED BY IDOCK:   -5.51 KCAL/MOL
REMARK 922        TOTAL FREE ENERGY PREDICTED BY IDOCK:   -8.64 KCAL/MOL
REMARK 923 INTER-LIGAND FREE ENERGY PREDICTED BY IDOCK:   -6.42 KCAL/MOL
REMARK 924 INTRA-LIGAND FREE ENERGY PREDICTED BY IDOCK:   -2.22 KCAL/MOL
REMARK 927      BINDING AFFINITY PREDICTED BY RF-SCORE:    0.00 PKD
ROOT
HETATM    1 CL   UNL     1      -6.920  19.173  68.627  1.00  0.00    -0.319 Cl 
HETATM    2  C   UNL     1      -7.184  17.509  68.277  1.00  0.00    -0.217 A  
HETATM    3  C   UNL     1      -7.126  17.064  66.959  1.00  0.00    -0.228 A  
HETATM    4  C   UNL     1      -7.381  15.722  66.672  1.00  0.00     0.084 A  
HETATM    5  C   UNL     1      -7.688  14.810  67.696  1.00  0.00    -0.199 A  
HETATM    6  C   UNL     1      -7.722  15.270  69.018  1.00  0.00    -0.183 A  
HETATM    7  C   UNL     1      -7.472  16.617  69.306  1.00  0.00    -0.165 A  
ENDROOT
BRANCH   5   8
HETATM    8  C   UNL     1      -8.054  13.379  67.364  1.00  0.00    -0.178 C  
BRANCH   8   9
HETATM    9  C   UNL     1      -9.093  12.782  68.315  1.00  0.00    -0.180 C  
BRANCH   9  10
HETATM   10  C   UNL     1     -10.480  12.532  67.685  1.00  0.00    -0.217 C  
BRANCH  10  11
HETATM   11  S   UNL     1     -11.637  13.899  68.115  1.00  0.00    -0.355 SA 
BRANCH  11  12
HETATM   12  C   UNL     1     -11.148  15.495  67.415  1.00  0.00    -0.285 A  
HETATM   13 CL   UNL     1     -10.740  14.837  64.706  1.00  0.00    -0.418 Cl 
HETATM   14  C   UNL     1     -10.504  18.196  66.699  1.00  0.00    -0.354 A  
HETATM   15  C   UNL     1     -10.857  15.867  66.082  1.00  0.00    -0.208 A  
HETATM   16  C   UNL     1     -10.565  17.205  65.739  1.00  0.00    -0.201 A  
HETATM   17  C   UNL     1     -10.717  17.860  68.022  1.00  0.00    -0.307 A  
HETATM   18  C   UNL     1     -11.027  16.539  68.380  1.00  0.00    -0.348 A  
HETATM   19 CL   UNL     1     -11.224  16.298  70.099  1.00  0.00    -0.367 Cl 
ENDBRANCH  11  12
ENDBRANCH  10  11
BRANCH  10  20
HETATM   20  C   UNL     1     -11.148  11.141  67.780  1.00  0.00    -0.285 C  
BRANCH  20  21
HETATM   21  N   UNL     1     -11.145  10.553  69.114  1.00  0.00    -0.233 NA 
HETATM   22  C   UNL     1     -11.972  10.905  70.145  1.00  0.00    -0.352 A  
HETATM   23  N   UNL     1     -11.715  10.205  71.225  1.00  0.00    -0.365 NA 
HETATM   24  C   UNL     1     -10.258   9.632  69.593  1.00  0.00    -0.222 A  
HETATM   25  C   UNL     1     -10.651   9.405  70.892  1.00  0.00    -0.320 A  
ENDBRANCH  20  21
ENDBRANCH  10  20
ENDBRANCH   9  10
ENDBRANCH   8   9
ENDBRANCH   5   8
TORSDOF 7
ENDMDL
MODEL      125
REMARK 921   NORMALIZED FREE ENERGY PREDICTED BY IDOCK:   -5.51 KCAL/MOL
REMARK 922        TOTAL FREE ENERGY PREDICTED BY IDOCK:   -8.64 KCAL/MOL
REMARK 923 INTER-LIGAND FREE ENERGY PREDICTED BY IDOCK:   -7.58 KCAL/MOL
REMARK 924 INTRA-LIGAND FREE ENERGY PREDICTED BY IDOCK:   -1.06 KCAL/MOL
REMARK 927      BINDING AFFINITY PREDICTED BY RF-SCORE:    0.00 PKD
ROOT
HETATM    1 CL   UNL     1     -14.028  13.176  72.404  1.00  0.00    -0.600 Cl 
HETATM    2  C   UNL     1     -12.756  13.944  71.538  1.00  0.00    -0.357 A  
HETATM    3  C   UNL     1     -12.331  15.213  71.918  1.00  0.00    -0.423 A  
HETATM    4  C   UNL     1     -11.327  15.852  71.189  1.00  0.00    -0.435 A  
HETATM    5  C   UNL     1     -10.732  15.228  70.079  1.00  0.00    -0.297 A  
HETATM    6  C   UNL     1     -11.157  13.942  69.723  1.00  0.00    -0.063 A  
HETATM    7  C   UNL     1     -12.168  13.304  70.450  1.00  0.00    -0.404 A  
ENDROOT
BRANCH   5   8
HETATM    8  C   UNL     1      -9.711  15.967  69.241  1.00  0.00    -0.257 C  
BRANCH   8   9
HETATM    9  C   UNL     1      -8.519  15.100  68.831  1.00  0.00    -0.199 C  
BRANCH   9  10
HETATM   10  C   UNL     1      -8.322  14.947  67.307  1.00  0.00    -0.210 C  
BRANCH  10  11
HETATM   11  S   UNL     1      -7.602  16.486  66.596  1.00  0.00    -0.266 SA 
BRANCH  11  12
HETATM   12  C   UNL     1      -8.655  17.940  66.825  1.00  0.00    -0.254 A  
HETATM   13 CL   UNL     1     -10.896  17.286  65.247  1.00  0.00    -0.155 Cl 
HETATM   14  C   UNL     1     -10.035  20.358  67.513  1.00  0.00    -0.537 A  
HETATM   15  C   UNL     1      -9.955  18.222  66.347  1.00  0.00    -0.380 A  
HETATM   16  C   UNL     1     -10.634  19.405  66.713  1.00  0.00    -0.574 A  
HETATM   17  C   UNL     1      -8.740  20.151  67.945  1.00  0.00    -0.274 A  
HETATM   18  C   UNL     1      -8.056  18.972  67.608  1.00  0.00    -0.269 A  
HETATM   19 CL   UNL     1      -6.419  18.905  68.211  1.00  0.00    -0.235 Cl 
ENDBRANCH  11  12
ENDBRANCH  10  11
BRANCH  10  20
HETATM   20  C   UNL     1      -9.445  14.357  66.424  1.00  0.00    -0.285 C  
BRANCH  20  21
HETATM   21  N   UNL     1      -9.619  12.915  66.543  1.00  0.00    -0.256 NA 
HETATM   22  C   UNL     1     -10.815  12.250  66.547  1.00  0.00    -0.259 A  
HETATM   23  N   UNL     1     -10.644  10.957  66.685  1.00  0.00    -0.254 NA 
HETATM   24  C   UNL     1      -8.637  11.994  66.775  1.00  0.00    -0.177 A  
HETATM   25  C   UNL     1      -9.290  10.784  66.824  1.00  0.00    -0.161 A  
ENDBRANCH  20  21
ENDBRANCH  10  20
ENDBRANCH   9  10
ENDBRANCH   8   9
ENDBRANCH   5   8
TORSDOF 7
ENDMDL
MODEL      126
REMARK 921   NORMALIZED FREE ENERGY PREDICTED BY IDOCK:   -5.50 KCAL/MOL
REMARK 922        TOTAL FREE ENERGY PREDICTED BY IDOCK:   -8.63 KCAL/MOL
REMARK 923 INTER-LIGAND FREE ENERGY PREDICTED BY IDOCK:   -7.69 KCAL/MOL
REMARK 924 INTRA-LIGAND FREE ENERGY PREDICTED BY IDOCK:   -0.95 KCAL/MOL
REMARK 927      BINDING AFFINITY PREDICTED BY RF-SCORE:    0.00 PKD
ROOT
HETATM    1 CL   UNL     1      -9.515   2.915  64.432  1.00  0.00    -0.143 Cl 
HETATM    2  C   UNL     1      -9.565   4.370  65.351  1.00  0.00    -0.184 A  
HETATM    3  C   UNL     1      -8.438   5.183  65.414  1.00  0.00    -0.141 A  
HETATM    4  C   UNL     1      -8.466   6.342  66.192  1.00  0.00    -0.138 A  
HETATM    5  C   UNL     1      -9.620   6.703  66.908  1.00  0.00    -0.194 A  
HETATM    6  C   UNL     1     -10.752   5.884  66.816  1.00  0.00    -0.371 A  
HETATM    7  C   UNL     1     -10.722   4.719  66.041  1.00  0.00    -0.211 A  
ENDROOT
BRANCH   5   8
HETATM    8  C   UNL     1      -9.609   7.910  67.821  1.00  0.00    -0.174 C  
BRANCH   8   9
HETATM    9  C   UNL     1     -10.710   8.923  67.503  1.00  0.00    -0.223 C  
BRANCH   9  10
HETATM   10  C   UNL     1     -10.772  10.135  68.458  1.00  0.00    -0.230 C  
BRANCH  10  11
HETATM   11  S   UNL     1     -10.074  11.631  67.643  1.00  0.00    -0.191 SA 
BRANCH  11  12
HETATM   12  C   UNL     1     -10.812  11.974  66.026  1.00  0.00    -0.289 A  
HETATM   13 CL   UNL     1      -9.518  10.082  64.387  1.00  0.00    -0.352 Cl 
HETATM   14  C   UNL     1     -12.271  12.774  63.691  1.00  0.00    -0.597 A  
HETATM   15  C   UNL     1     -10.636  11.334  64.778  1.00  0.00    -0.312 A  
HETATM   16  C   UNL     1     -11.379  11.722  63.641  1.00  0.00    -0.525 A  
HETATM   17  C   UNL     1     -12.422  13.469  64.875  1.00  0.00    -0.429 A  
HETATM   18  C   UNL     1     -11.707  13.085  66.021  1.00  0.00    -0.393 A  
HETATM   19 CL   UNL     1     -11.997  14.103  67.411  1.00  0.00    -0.446 Cl 
ENDBRANCH  11  12
ENDBRANCH  10  11
BRANCH  10  20
HETATM   20  C   UNL     1     -10.322   9.999  69.931  1.00  0.00    -0.272 C  
BRANCH  20  21
HETATM   21  N   UNL     1     -11.394   9.700  70.871  1.00  0.00    -0.329 NA 
HETATM   22  C   UNL     1     -12.509  10.465  71.085  1.00  0.00    -0.404 A  
HETATM   23  N   UNL     1     -13.281   9.939  72.006  1.00  0.00    -0.451 NA 
HETATM   24  C   UNL     1     -11.424   8.671  71.768  1.00  0.00    -0.324 A  
HETATM   25  C   UNL     1     -12.618   8.818  72.437  1.00  0.00    -0.363 A  
ENDBRANCH  20  21
ENDBRANCH  10  20
ENDBRANCH   9  10
ENDBRANCH   8   9
ENDBRANCH   5   8
TORSDOF 7
ENDMDL
MODEL      127
REMARK 921   NORMALIZED FREE ENERGY PREDICTED BY IDOCK:   -5.50 KCAL/MOL
REMARK 922        TOTAL FREE ENERGY PREDICTED BY IDOCK:   -8.63 KCAL/MOL
REMARK 923 INTER-LIGAND FREE ENERGY PREDICTED BY IDOCK:   -7.59 KCAL/MOL
REMARK 924 INTRA-LIGAND FREE ENERGY PREDICTED BY IDOCK:   -1.04 KCAL/MOL
REMARK 927      BINDING AFFINITY PREDICTED BY RF-SCORE:    0.00 PKD
ROOT
HETATM    1 CL   UNL     1     -12.381  15.462  63.991  1.00  0.00    -0.151 Cl 
HETATM    2  C   UNL     1     -11.776  14.150  64.924  1.00  0.00    -0.392 A  
HETATM    3  C   UNL     1     -12.380  13.830  66.137  1.00  0.00    -0.496 A  
HETATM    4  C   UNL     1     -11.862  12.791  66.912  1.00  0.00    -0.440 A  
HETATM    5  C   UNL     1     -10.744  12.057  66.483  1.00  0.00    -0.293 A  
HETATM    6  C   UNL     1     -10.162  12.378  65.251  1.00  0.00    -0.306 A  
HETATM    7  C   UNL     1     -10.676  13.423  64.476  1.00  0.00    -0.434 A  
ENDROOT
BRANCH   5   8
HETATM    8  C   UNL     1     -10.136  10.995  67.375  1.00  0.00    -0.216 C  
BRANCH   8   9
HETATM    9  C   UNL     1     -11.170  10.239  68.210  1.00  0.00    -0.295 C  
BRANCH   9  10
HETATM   10  C   UNL     1     -11.188  10.609  69.709  1.00  0.00    -0.297 C  
BRANCH  10  11
HETATM   11  S   UNL     1      -9.976   9.580  70.639  1.00  0.00    -0.239 SA 
BRANCH  11  12
HETATM   12  C   UNL     1      -9.935   7.855  70.093  1.00  0.00    -0.190 A  
HETATM   13 CL   UNL     1     -12.323   6.843  71.193  1.00  0.00    -0.426 Cl 
HETATM   14  C   UNL     1      -9.528   5.251  68.964  1.00  0.00    -0.182 A  
HETATM   15  C   UNL     1     -10.874   6.812  70.261  1.00  0.00    -0.270 A  
HETATM   16  C   UNL     1     -10.673   5.541  69.679  1.00  0.00    -0.349 A  
HETATM   17  C   UNL     1      -8.555   6.223  68.834  1.00  0.00    -0.125 A  
HETATM   18  C   UNL     1      -8.746   7.499  69.389  1.00  0.00    -0.137 A  
HETATM   19 CL   UNL     1      -7.395   8.581  69.157  1.00  0.00    -0.077 Cl 
ENDBRANCH  11  12
ENDBRANCH  10  11
BRANCH  10  20
HETATM   20  C   UNL     1     -12.527  10.772  70.463  1.00  0.00    -0.360 C  
BRANCH  20  21
HETATM   21  N   UNL     1     -12.737  12.087  71.056  1.00  0.00    -0.304 NA 
HETATM   22  C   UNL     1     -13.461  12.349  72.188  1.00  0.00    -0.378 A  
HETATM   23  N   UNL     1     -13.479  13.633  72.458  1.00  0.00    -0.567 NA 
HETATM   24  C   UNL     1     -12.340  13.285  70.535  1.00  0.00    -0.316 A  
HETATM   25  C   UNL     1     -12.780  14.227  71.438  1.00  0.00    -0.352 A  
ENDBRANCH  20  21
ENDBRANCH  10  20
ENDBRANCH   9  10
ENDBRANCH   8   9
ENDBRANCH   5   8
TORSDOF 7
ENDMDL
MODEL      128
REMARK 921   NORMALIZED FREE ENERGY PREDICTED BY IDOCK:   -5.49 KCAL/MOL
REMARK 922        TOTAL FREE ENERGY PREDICTED BY IDOCK:   -8.62 KCAL/MOL
REMARK 923 INTER-LIGAND FREE ENERGY PREDICTED BY IDOCK:   -7.48 KCAL/MOL
REMARK 924 INTRA-LIGAND FREE ENERGY PREDICTED BY IDOCK:   -1.14 KCAL/MOL
REMARK 927      BINDING AFFINITY PREDICTED BY RF-SCORE:    0.00 PKD
ROOT
HETATM    1 CL   UNL     1     -12.018  13.162  63.359  1.00  0.00    -0.594 Cl 
HETATM    2  C   UNL     1     -11.801  12.737  65.012  1.00  0.00    -0.382 A  
HETATM    3  C   UNL     1     -12.248  13.598  66.009  1.00  0.00    -0.492 A  
HETATM    4  C   UNL     1     -12.034  13.271  67.350  1.00  0.00    -0.383 A  
HETATM    5  C   UNL     1     -11.381  12.080  67.707  1.00  0.00    -0.370 A  
HETATM    6  C   UNL     1     -10.956  11.214  66.691  1.00  0.00    -0.289 A  
HETATM    7  C   UNL     1     -11.165  11.544  65.347  1.00  0.00    -0.207 A  
ENDROOT
BRANCH   5   8
HETATM    8  C   UNL     1     -11.072  11.781  69.159  1.00  0.00    -0.294 C  
BRANCH   8   9
HETATM    9  C   UNL     1     -11.281  10.312  69.534  1.00  0.00    -0.314 C  
BRANCH   9  10
HETATM   10  C   UNL     1     -10.307   9.771  70.603  1.00  0.00    -0.261 C  
BRANCH  10  11
HETATM   11  S   UNL     1      -8.920   8.860  69.804  1.00  0.00    -0.156 SA 
BRANCH  11  12
HETATM   12  C   UNL     1      -9.132   7.062  69.840  1.00  0.00    -0.141 A  
HETATM   13 CL   UNL     1      -7.606   6.345  72.098  1.00  0.00    -0.094 Cl 
HETATM   14  C   UNL     1      -9.786   4.282  69.586  1.00  0.00    -0.284 A  
HETATM   15  C   UNL     1      -8.668   6.097  70.763  1.00  0.00    -0.136 A  
HETATM   16  C   UNL     1      -9.017   4.734  70.641  1.00  0.00    -0.163 A  
HETATM   17  C   UNL     1     -10.202   5.183  68.626  1.00  0.00    -0.192 A  
HETATM   18  C   UNL     1      -9.881   6.545  68.742  1.00  0.00    -0.140 A  
HETATM   19 CL   UNL     1     -10.460   7.524  67.415  1.00  0.00    -0.343 Cl 
ENDBRANCH  11  12
ENDBRANCH  10  11
BRANCH  10  20
HETATM   20  C   UNL     1     -10.841   9.052  71.862  1.00  0.00    -0.343 C  
BRANCH  20  21
HETATM   21  N   UNL     1     -12.189   8.513  71.730  1.00  0.00    -0.313 NA 
HETATM   22  C   UNL     1     -13.343   9.140  72.115  1.00  0.00    -0.463 A  
HETATM   23  N   UNL     1     -14.395   8.392  71.881  1.00  0.00    -0.458 NA 
HETATM   24  C   UNL     1     -12.525   7.261  71.302  1.00  0.00    -0.366 A  
HETATM   25  C   UNL     1     -13.899   7.220  71.370  1.00  0.00    -0.304 A  
ENDBRANCH  20  21
ENDBRANCH  10  20
ENDBRANCH   9  10
ENDBRANCH   8   9
ENDBRANCH   5   8
TORSDOF 7
ENDMDL
MODEL      129
REMARK 921   NORMALIZED FREE ENERGY PREDICTED BY IDOCK:   -5.49 KCAL/MOL
REMARK 922        TOTAL FREE ENERGY PREDICTED BY IDOCK:   -8.62 KCAL/MOL
REMARK 923 INTER-LIGAND FREE ENERGY PREDICTED BY IDOCK:   -7.15 KCAL/MOL
REMARK 924 INTRA-LIGAND FREE ENERGY PREDICTED BY IDOCK:   -1.47 KCAL/MOL
REMARK 927      BINDING AFFINITY PREDICTED BY RF-SCORE:    0.00 PKD
ROOT
HETATM    1 CL   UNL     1     -13.932  12.919  72.413  1.00  0.00    -0.497 Cl 
HETATM    2  C   UNL     1     -12.914  13.974  71.512  1.00  0.00    -0.351 A  
HETATM    3  C   UNL     1     -12.295  13.511  70.355  1.00  0.00    -0.397 A  
HETATM    4  C   UNL     1     -11.436  14.355  69.647  1.00  0.00    -0.331 A  
HETATM    5  C   UNL     1     -11.194  15.669  70.083  1.00  0.00    -0.346 A  
HETATM    6  C   UNL     1     -11.842  16.124  71.238  1.00  0.00    -0.458 A  
HETATM    7  C   UNL     1     -12.697  15.277  71.951  1.00  0.00    -0.436 A  
ENDROOT
BRANCH   5   8
HETATM    8  C   UNL     1     -10.191  16.543  69.361  1.00  0.00    -0.264 C  
BRANCH   8   9
HETATM    9  C   UNL     1      -9.151  15.747  68.570  1.00  0.00    -0.194 C  
BRANCH   9  10
HETATM   10  C   UNL     1      -9.290  15.845  67.035  1.00  0.00    -0.215 C  
BRANCH  10  11
HETATM   11  S   UNL     1      -8.919  14.219  66.253  1.00  0.00     0.170 SA 
BRANCH  11  12
HETATM   12  C   UNL     1      -9.909  12.860  66.923  1.00  0.00    -0.235 A  
HETATM   13 CL   UNL     1     -12.368  13.228  65.595  1.00  0.00    -0.507 Cl 
HETATM   14  C   UNL     1     -11.091  10.557  68.155  1.00  0.00    -0.346 A  
HETATM   15  C   UNL     1     -11.227  12.445  66.623  1.00  0.00    -0.315 A  
HETATM   16  C   UNL     1     -11.789  11.294  67.219  1.00  0.00     0.146 A  
HETATM   17  C   UNL     1      -9.826  10.969  68.524  1.00  0.00    -0.194 A  
HETATM   18  C   UNL     1      -9.243  12.099  67.929  1.00  0.00    -0.188 A  
HETATM   19 CL   UNL     1      -7.658  12.488  68.549  1.00  0.00    -0.127 Cl 
ENDBRANCH  11  12
ENDBRANCH  10  11
BRANCH  10  20
HETATM   20  C   UNL     1      -8.667  17.029  66.263  1.00  0.00    -0.250 C  
BRANCH  20  21
HETATM   21  N   UNL     1      -9.224  18.334  66.595  1.00  0.00    -0.288 NA 
HETATM   22  C   UNL     1     -10.470  18.784  66.251  1.00  0.00    -0.435 A  
HETATM   23  N   UNL     1     -10.673  20.007  66.681  1.00  0.00    -0.361 NA 
HETATM   24  C   UNL     1      -8.570  19.364  67.209  1.00  0.00    -0.296 A  
HETATM   25  C   UNL     1      -9.498  20.378  67.283  1.00  0.00    -0.431 A  
ENDBRANCH  20  21
ENDBRANCH  10  20
ENDBRANCH   9  10
ENDBRANCH   8   9
ENDBRANCH   5   8
TORSDOF 7
ENDMDL
MODEL      130
REMARK 921   NORMALIZED FREE ENERGY PREDICTED BY IDOCK:   -5.47 KCAL/MOL
REMARK 922        TOTAL FREE ENERGY PREDICTED BY IDOCK:   -8.60 KCAL/MOL
REMARK 923 INTER-LIGAND FREE ENERGY PREDICTED BY IDOCK:   -7.63 KCAL/MOL
REMARK 924 INTRA-LIGAND FREE ENERGY PREDICTED BY IDOCK:   -0.97 KCAL/MOL
REMARK 927      BINDING AFFINITY PREDICTED BY RF-SCORE:    0.00 PKD
ROOT
HETATM    1 CL   UNL     1      -8.343   2.168  69.254  1.00  0.00    -0.069 Cl 
HETATM    2  C   UNL     1      -9.084   3.617  68.696  1.00  0.00    -0.142 A  
HETATM    3  C   UNL     1      -9.636   4.506  69.614  1.00  0.00    -0.270 A  
HETATM    4  C   UNL     1     -10.273   5.662  69.157  1.00  0.00    -0.305 A  
HETATM    5  C   UNL     1     -10.359   5.944  67.784  1.00  0.00    -0.262 A  
HETATM    6  C   UNL     1      -9.781   5.049  66.876  1.00  0.00    -0.182 A  
HETATM    7  C   UNL     1      -9.147   3.888  67.332  1.00  0.00    -0.178 A  
ENDROOT
BRANCH   5   8
HETATM    8  C   UNL     1     -11.133   7.151  67.297  1.00  0.00    -0.229 C  
BRANCH   8   9
HETATM    9  C   UNL     1     -10.237   8.318  66.877  1.00  0.00    -0.388 C  
BRANCH   9  10
HETATM   10  C   UNL     1     -10.326   9.562  67.787  1.00  0.00    -0.239 C  
BRANCH  10  11
HETATM   11  S   UNL     1      -9.526  11.009  66.974  1.00  0.00    -0.174 SA 
BRANCH  11  12
HETATM   12  C   UNL     1     -10.640  11.916  65.873  1.00  0.00    -0.266 A  
HETATM   13 CL   UNL     1     -12.025  13.570  67.686  1.00  0.00    -0.389 Cl 
HETATM   14  C   UNL     1     -12.161  13.177  63.795  1.00  0.00    -0.563 A  
HETATM   15  C   UNL     1     -11.567  12.949  66.145  1.00  0.00    -0.372 A  
HETATM   16  C   UNL     1     -12.292  13.578  65.110  1.00  0.00    -0.488 A  
HETATM   17  C   UNL     1     -11.315  12.127  63.496  1.00  0.00    -0.535 A  
HETATM   18  C   UNL     1     -10.572  11.502  64.510  1.00  0.00    -0.329 A  
HETATM   19 CL   UNL     1      -9.589  10.171  63.949  1.00  0.00    -0.342 Cl 
ENDBRANCH  11  12
ENDBRANCH  10  11
BRANCH  10  20
HETATM   20  C   UNL     1      -9.982   9.463  69.290  1.00  0.00    -0.181 C  
BRANCH  20  21
HETATM   21  N   UNL     1     -11.078   9.798  70.190  1.00  0.00    -0.267 NA 
HETATM   22  C   UNL     1     -11.700   8.935  71.051  1.00  0.00    -0.289 A  
HETATM   23  N   UNL     1     -12.661   9.531  71.715  1.00  0.00    -0.373 NA 
HETATM   24  C   UNL     1     -11.740  10.991  70.255  1.00  0.00    -0.355 A  
HETATM   25  C   UNL     1     -12.694  10.814  71.231  1.00  0.00    -0.441 A  
ENDBRANCH  20  21
ENDBRANCH  10  20
ENDBRANCH   9  10
ENDBRANCH   8   9
ENDBRANCH   5   8
TORSDOF 7
ENDMDL
MODEL      131
REMARK 921   NORMALIZED FREE ENERGY PREDICTED BY IDOCK:   -5.47 KCAL/MOL
REMARK 922        TOTAL FREE ENERGY PREDICTED BY IDOCK:   -8.60 KCAL/MOL
REMARK 923 INTER-LIGAND FREE ENERGY PREDICTED BY IDOCK:   -7.81 KCAL/MOL
REMARK 924 INTRA-LIGAND FREE ENERGY PREDICTED BY IDOCK:   -0.79 KCAL/MOL
REMARK 927      BINDING AFFINITY PREDICTED BY RF-SCORE:    0.00 PKD
ROOT
HETATM    1 CL   UNL     1      -9.127   4.711  71.416  1.00  0.00    -0.163 Cl 
HETATM    2  C   UNL     1      -9.825   6.279  71.301  1.00  0.00    -0.175 A  
HETATM    3  C   UNL     1     -11.068   6.438  70.696  1.00  0.00    -0.376 A  
HETATM    4  C   UNL     1     -11.614   7.716  70.567  1.00  0.00    -0.195 A  
HETATM    5  C   UNL     1     -10.930   8.846  71.045  1.00  0.00    -0.341 A  
HETATM    6  C   UNL     1      -9.689   8.666  71.669  1.00  0.00    -0.348 A  
HETATM    7  C   UNL     1      -9.138   7.386  71.794  1.00  0.00    -0.143 A  
ENDROOT
BRANCH   5   8
HETATM    8  C   UNL     1     -11.488  10.234  70.816  1.00  0.00    -0.438 C  
BRANCH   8   9
HETATM    9  C   UNL     1     -11.391  10.695  69.360  1.00  0.00    -0.348 C  
BRANCH   9  10
HETATM   10  C   UNL     1     -10.710  12.066  69.158  1.00  0.00    -0.075 C  
BRANCH  10  11
HETATM   11  S   UNL     1     -11.975  13.401  69.056  1.00  0.00    -0.274 SA 
BRANCH  11  12
HETATM   12  C   UNL     1     -12.217  14.278  70.620  1.00  0.00    -0.357 A  
HETATM   13 CL   UNL     1     -13.643  12.378  72.134  1.00  0.00    -0.531 Cl 
HETATM   14  C   UNL     1     -12.307  15.968  72.935  1.00  0.00    -0.609 A  
HETATM   15  C   UNL     1     -12.814  13.858  71.831  1.00  0.00    -0.322 A  
HETATM   16  C   UNL     1     -12.830  14.690  72.971  1.00  0.00    -0.572 A  
HETATM   17  C   UNL     1     -11.775  16.441  71.752  1.00  0.00    -0.395 A  
HETATM   18  C   UNL     1     -11.732  15.620  70.613  1.00  0.00    -0.369 A  
HETATM   19 CL   UNL     1     -11.061  16.402  69.203  1.00  0.00    -0.316 Cl 
ENDBRANCH  11  12
ENDBRANCH  10  11
BRANCH  10  20
HETATM   20  C   UNL     1      -9.582  12.238  68.116  1.00  0.00    -0.213 C  
BRANCH  20  21
HETATM   21  N   UNL     1      -9.881  11.692  66.798  1.00  0.00    -0.198 NA 
HETATM   22  C   UNL     1      -9.409  10.510  66.295  1.00  0.00    -0.170 A  
HETATM   23  N   UNL     1      -9.844  10.302  65.075  1.00  0.00    -0.310 NA 
HETATM   24  C   UNL     1     -10.591  12.307  65.806  1.00  0.00    -0.254 A  
HETATM   25  C   UNL     1     -10.585  11.413  64.760  1.00  0.00    -0.316 A  
ENDBRANCH  20  21
ENDBRANCH  10  20
ENDBRANCH   9  10
ENDBRANCH   8   9
ENDBRANCH   5   8
TORSDOF 7
ENDMDL
MODEL      132
REMARK 921   NORMALIZED FREE ENERGY PREDICTED BY IDOCK:   -5.47 KCAL/MOL
REMARK 922        TOTAL FREE ENERGY PREDICTED BY IDOCK:   -8.59 KCAL/MOL
REMARK 923 INTER-LIGAND FREE ENERGY PREDICTED BY IDOCK:   -7.72 KCAL/MOL
REMARK 924 INTRA-LIGAND FREE ENERGY PREDICTED BY IDOCK:   -0.88 KCAL/MOL
REMARK 927      BINDING AFFINITY PREDICTED BY RF-SCORE:    0.00 PKD
ROOT
HETATM    1 CL   UNL     1     -14.157  15.659  72.566  1.00  0.00    -0.628 Cl 
HETATM    2  C   UNL     1     -13.235  14.792  71.400  1.00  0.00    -0.371 A  
HETATM    3  C   UNL     1     -13.080  13.415  71.530  1.00  0.00    -0.427 A  
HETATM    4  C   UNL     1     -12.297  12.719  70.606  1.00  0.00    -0.381 A  
HETATM    5  C   UNL     1     -11.670  13.388  69.542  1.00  0.00    -0.385 A  
HETATM    6  C   UNL     1     -11.854  14.771  69.415  1.00  0.00    -0.360 A  
HETATM    7  C   UNL     1     -12.633  15.470  70.344  1.00  0.00    -0.421 A  
ENDROOT
BRANCH   5   8
HETATM    8  C   UNL     1     -10.750  12.639  68.602  1.00  0.00    -0.269 C  
BRANCH   8   9
HETATM    9  C   UNL     1     -11.456  11.535  67.812  1.00  0.00    -0.357 C  
BRANCH   9  10
HETATM   10  C   UNL     1     -10.999  10.100  68.155  1.00  0.00    -0.259 C  
BRANCH  10  11
HETATM   11  S   UNL     1      -9.766  10.129  69.523  1.00  0.00    -0.211 SA 
BRANCH  11  12
HETATM   12  C   UNL     1     -10.279   9.166  70.968  1.00  0.00    -0.302 A  
HETATM   13 CL   UNL     1     -13.063   9.596  70.990  1.00  0.00    -0.350 Cl 
HETATM   14  C   UNL     1     -10.673   7.475  73.250  1.00  0.00    -0.437 A  
HETATM   15  C   UNL     1     -11.564   8.916  71.500  1.00  0.00    -0.318 A  
HETATM   16  C   UNL     1     -11.748   8.061  72.609  1.00  0.00    -0.418 A  
HETATM   17  C   UNL     1      -9.396   7.749  72.802  1.00  0.00    -0.263 A  
HETATM   18  C   UNL     1      -9.196   8.581  71.688  1.00  0.00    -0.236 A  
HETATM   19 CL   UNL     1      -7.514   8.842  71.294  1.00  0.00    -0.115 Cl 
ENDBRANCH  11  12
ENDBRANCH  10  11
BRANCH  10  20
HETATM   20  C   UNL     1     -10.616   9.108  67.034  1.00  0.00    -0.195 C  
BRANCH  20  21
HETATM   21  N   UNL     1      -9.726   9.652  66.016  1.00  0.00    -0.245 NA 
HETATM   22  C   UNL     1      -8.358   9.651  66.065  1.00  0.00    -0.120 A  
HETATM   23  N   UNL     1      -7.841  10.228  65.006  1.00  0.00    -0.141 NA 
HETATM   24  C   UNL     1     -10.097  10.343  64.898  1.00  0.00    -0.312 A  
HETATM   25  C   UNL     1      -8.915  10.661  64.269  1.00  0.00    -0.198 A  
ENDBRANCH  20  21
ENDBRANCH  10  20
ENDBRANCH   9  10
ENDBRANCH   8   9
ENDBRANCH   5   8
TORSDOF 7
ENDMDL
MODEL      133
REMARK 921   NORMALIZED FREE ENERGY PREDICTED BY IDOCK:   -5.47 KCAL/MOL
REMARK 922        TOTAL FREE ENERGY PREDICTED BY IDOCK:   -8.59 KCAL/MOL
REMARK 923 INTER-LIGAND FREE ENERGY PREDICTED BY IDOCK:   -6.33 KCAL/MOL
REMARK 924 INTRA-LIGAND FREE ENERGY PREDICTED BY IDOCK:   -2.26 KCAL/MOL
REMARK 927      BINDING AFFINITY PREDICTED BY RF-SCORE:    0.00 PKD
ROOT
HETATM    1 CL   UNL     1     -10.882   5.029  73.898  1.00  0.00    -0.353 Cl 
HETATM    2  C   UNL     1     -10.967   6.442  72.920  1.00  0.00    -0.250 A  
HETATM    3  C   UNL     1     -10.145   7.528  73.207  1.00  0.00    -0.386 A  
HETATM    4  C   UNL     1     -10.244   8.689  72.437  1.00  0.00    -0.319 A  
HETATM    5  C   UNL     1     -11.156   8.775  71.372  1.00  0.00    -0.361 A  
HETATM    6  C   UNL     1     -11.961   7.665  71.086  1.00  0.00    -0.319 A  
HETATM    7  C   UNL     1     -11.866   6.503  71.860  1.00  0.00    -0.381 A  
ENDROOT
BRANCH   5   8
HETATM    8  C   UNL     1     -11.320  10.070  70.606  1.00  0.00    -0.425 C  
BRANCH   8   9
HETATM    9  C   UNL     1     -11.630   9.862  69.122  1.00  0.00     0.064 C  
BRANCH   9  10
HETATM   10  C   UNL     1     -10.772  10.708  68.157  1.00  0.00    -0.225 C  
BRANCH  10  11
HETATM   11  S   UNL     1      -9.301   9.750  67.598  1.00  0.00    -0.141 SA 
BRANCH  11  12
HETATM   12  C   UNL     1      -9.117   8.163  68.448  1.00  0.00    -0.136 A  
HETATM   13 CL   UNL     1     -11.009   6.564  67.104  1.00  0.00    -0.467 Cl 
HETATM   14  C   UNL     1      -8.458   5.831  69.980  1.00  0.00    -0.124 A  
HETATM   15  C   UNL     1      -9.739   6.915  68.216  1.00  0.00    -0.132 A  
HETATM   16  C   UNL     1      -9.388   5.768  68.962  1.00  0.00    -0.144 A  
HETATM   17  C   UNL     1      -7.877   7.047  70.282  1.00  0.00    -0.105 A  
HETATM   18  C   UNL     1      -8.198   8.194  69.539  1.00  0.00    -0.121 A  
HETATM   19 CL   UNL     1      -7.395   9.643  70.090  1.00  0.00    -0.121 Cl 
ENDBRANCH  11  12
ENDBRANCH  10  11
BRANCH  10  20
HETATM   20  C   UNL     1     -10.429  12.177  68.491  1.00  0.00    -0.233 C  
BRANCH  20  21
HETATM   21  N   UNL     1     -10.950  13.156  67.546  1.00  0.00    -0.257 NA 
HETATM   22  C   UNL     1     -10.698  14.501  67.564  1.00  0.00    -0.276 A  
HETATM   23  N   UNL     1     -11.325  15.119  66.591  1.00  0.00    -0.286 NA 
HETATM   24  C   UNL     1     -11.855  12.921  66.550  1.00  0.00    -0.407 A  
HETATM   25  C   UNL     1     -12.046  14.144  65.949  1.00  0.00    -0.426 A  
ENDBRANCH  20  21
ENDBRANCH  10  20
ENDBRANCH   9  10
ENDBRANCH   8   9
ENDBRANCH   5   8
TORSDOF 7
ENDMDL
MODEL      134
REMARK 921   NORMALIZED FREE ENERGY PREDICTED BY IDOCK:   -5.47 KCAL/MOL
REMARK 922        TOTAL FREE ENERGY PREDICTED BY IDOCK:   -8.59 KCAL/MOL
REMARK 923 INTER-LIGAND FREE ENERGY PREDICTED BY IDOCK:   -7.76 KCAL/MOL
REMARK 924 INTRA-LIGAND FREE ENERGY PREDICTED BY IDOCK:   -0.82 KCAL/MOL
REMARK 927      BINDING AFFINITY PREDICTED BY RF-SCORE:    0.00 PKD
ROOT
HETATM    1 CL   UNL     1      -9.989   4.860  67.195  1.00  0.00    -0.216 Cl 
HETATM    2  C   UNL     1      -9.612   6.539  67.192  1.00  0.00    -0.136 A  
HETATM    3  C   UNL     1      -8.337   6.959  67.559  1.00  0.00    -0.123 A  
HETATM    4  C   UNL     1      -8.044   8.323  67.595  1.00  0.00    -0.126 A  
HETATM    5  C   UNL     1      -9.017   9.280  67.260  1.00  0.00    -0.136 A  
HETATM    6  C   UNL     1     -10.289   8.838  66.874  1.00  0.00    -0.344 A  
HETATM    7  C   UNL     1     -10.584   7.471  66.842  1.00  0.00    -0.367 A  
ENDROOT
BRANCH   5   8
HETATM    8  C   UNL     1      -8.717  10.758  67.394  1.00  0.00    -0.126 C  
BRANCH   8   9
HETATM    9  C   UNL     1      -9.778  11.524  68.185  1.00  0.00    -0.192 C  
BRANCH   9  10
HETATM   10  C   UNL     1     -10.076  12.945  67.662  1.00  0.00    -0.221 C  
BRANCH  10  11
HETATM   11  S   UNL     1     -11.797  13.441  68.094  1.00  0.00    -0.341 SA 
BRANCH  11  12
HETATM   12  C   UNL     1     -11.933  14.194  69.734  1.00  0.00    -0.339 A  
HETATM   13 CL   UNL     1     -12.979  12.068  71.260  1.00  0.00    -0.389 Cl 
HETATM   14  C   UNL     1     -11.909  15.724  72.159  1.00  0.00    -0.593 A  
HETATM   15  C   UNL     1     -12.338  13.642  70.971  1.00  0.00    -0.354 A  
HETATM   16  C   UNL     1     -12.298  14.399  72.163  1.00  0.00    -0.298 A  
HETATM   17  C   UNL     1     -11.570  16.319  70.960  1.00  0.00    -0.343 A  
HETATM   18  C   UNL     1     -11.585  15.577  69.768  1.00  0.00    -0.334 A  
HETATM   19 CL   UNL     1     -11.166  16.506  68.350  1.00  0.00    -0.337 Cl 
ENDBRANCH  11  12
ENDBRANCH  10  11
BRANCH  10  20
HETATM   20  C   UNL     1      -9.688  13.351  66.222  1.00  0.00    -0.272 C  
BRANCH  20  21
HETATM   21  N   UNL     1     -10.708  13.082  65.216  1.00  0.00    -0.292 NA 
HETATM   22  C   UNL     1     -11.506  14.017  64.615  1.00  0.00    -0.383 A  
HETATM   23  N   UNL     1     -12.337  13.462  63.766  1.00  0.00    -0.704 NA 
HETATM   24  C   UNL     1     -11.114  11.853  64.779  1.00  0.00    -0.311 A  
HETATM   25  C   UNL     1     -12.100  12.114  63.856  1.00  0.00    -0.488 A  
ENDBRANCH  20  21
ENDBRANCH  10  20
ENDBRANCH   9  10
ENDBRANCH   8   9
ENDBRANCH   5   8
TORSDOF 7
ENDMDL
MODEL      135
REMARK 921   NORMALIZED FREE ENERGY PREDICTED BY IDOCK:   -5.44 KCAL/MOL
REMARK 922        TOTAL FREE ENERGY PREDICTED BY IDOCK:   -8.55 KCAL/MOL
REMARK 923 INTER-LIGAND FREE ENERGY PREDICTED BY IDOCK:   -7.60 KCAL/MOL
REMARK 924 INTRA-LIGAND FREE ENERGY PREDICTED BY IDOCK:   -0.95 KCAL/MOL
REMARK 927      BINDING AFFINITY PREDICTED BY RF-SCORE:    0.00 PKD
ROOT
HETATM    1 CL   UNL     1      -9.299   2.709  64.755  1.00  0.00    -0.146 Cl 
HETATM    2  C   UNL     1      -9.333   4.239  65.542  1.00  0.00    -0.162 A  
HETATM    3  C   UNL     1      -8.163   4.984  65.650  1.00  0.00    -0.117 A  
HETATM    4  C   UNL     1      -8.183   6.207  66.324  1.00  0.00    -0.116 A  
HETATM    5  C   UNL     1      -9.371   6.700  66.889  1.00  0.00    -0.171 A  
HETATM    6  C   UNL     1     -10.544   5.947  66.753  1.00  0.00    -0.368 A  
HETATM    7  C   UNL     1     -10.523   4.719  66.082  1.00  0.00    -0.332 A  
ENDROOT
BRANCH   5   8
HETATM    8  C   UNL     1      -9.362   7.980  67.697  1.00  0.00    -0.162 C  
BRANCH   8   9
HETATM    9  C   UNL     1     -10.635   8.812  67.533  1.00  0.00    -0.298 C  
BRANCH   9  10
HETATM   10  C   UNL     1     -10.588  10.206  68.194  1.00  0.00    -0.223 C  
BRANCH  10  11
HETATM   11  S   UNL     1      -9.685  11.397  67.118  1.00  0.00    -0.183 SA 
BRANCH  11  12
HETATM   12  C   UNL     1     -10.734  12.156  65.853  1.00  0.00    -0.266 A  
HETATM   13 CL   UNL     1     -12.105  14.118  67.339  1.00  0.00    -0.427 Cl 
HETATM   14  C   UNL     1     -12.149  13.123  63.554  1.00  0.00    -0.585 A  
HETATM   15  C   UNL     1     -11.628  13.247  65.930  1.00  0.00    -0.347 A  
HETATM   16  C   UNL     1     -12.301  13.730  64.786  1.00  0.00    -0.420 A  
HETATM   17  C   UNL     1     -11.336  12.011  63.452  1.00  0.00    -0.484 A  
HETATM   18  C   UNL     1     -10.644  11.529  64.575  1.00  0.00    -0.329 A  
HETATM   19 CL   UNL     1      -9.697  10.095  64.261  1.00  0.00    -0.367 Cl 
ENDBRANCH  11  12
ENDBRANCH  10  11
BRANCH  10  20
HETATM   20  C   UNL     1     -10.216  10.357  69.687  1.00  0.00    -0.209 C  
BRANCH  20  21
HETATM   21  N   UNL     1     -11.306  10.094  70.617  1.00  0.00    -0.331 NA 
HETATM   22  C   UNL     1     -11.471   8.955  71.358  1.00  0.00    -0.311 A  
HETATM   23  N   UNL     1     -12.558   9.013  72.089  1.00  0.00    -0.383 NA 
HETATM   24  C   UNL     1     -12.398  10.886  70.832  1.00  0.00    -0.400 A  
HETATM   25  C   UNL     1     -13.143  10.213  71.773  1.00  0.00    -0.463 A  
ENDBRANCH  20  21
ENDBRANCH  10  20
ENDBRANCH   9  10
ENDBRANCH   8   9
ENDBRANCH   5   8
TORSDOF 7
ENDMDL
MODEL      136
REMARK 921   NORMALIZED FREE ENERGY PREDICTED BY IDOCK:   -5.43 KCAL/MOL
REMARK 922        TOTAL FREE ENERGY PREDICTED BY IDOCK:   -8.54 KCAL/MOL
REMARK 923 INTER-LIGAND FREE ENERGY PREDICTED BY IDOCK:   -7.54 KCAL/MOL
REMARK 924 INTRA-LIGAND FREE ENERGY PREDICTED BY IDOCK:   -1.00 KCAL/MOL
REMARK 927      BINDING AFFINITY PREDICTED BY RF-SCORE:    0.00 PKD
ROOT
HETATM    1 CL   UNL     1      -9.518  20.468  67.553  1.00  0.00    -0.537 Cl 
HETATM    2  C   UNL     1     -10.044  18.834  67.434  1.00  0.00    -0.354 A  
HETATM    3  C   UNL     1     -10.275  18.274  66.181  1.00  0.00    -0.393 A  
HETATM    4  C   UNL     1     -10.741  16.961  66.087  1.00  0.00    -0.109 A  
HETATM    5  C   UNL     1     -10.973  16.194  67.241  1.00  0.00    -0.175 A  
HETATM    6  C   UNL     1     -10.716  16.766  68.493  1.00  0.00    -0.358 A  
HETATM    7  C   UNL     1     -10.254  18.084  68.587  1.00  0.00    -0.385 A  
ENDROOT
BRANCH   5   8
HETATM    8  C   UNL     1     -11.566  14.805  67.131  1.00  0.00    -0.373 C  
BRANCH   8   9
HETATM    9  C   UNL     1     -11.552  14.032  68.451  1.00  0.00    -0.366 C  
BRANCH   9  10
HETATM   10  C   UNL     1     -10.722  12.730  68.430  1.00  0.00    -0.250 C  
BRANCH  10  11
HETATM   11  S   UNL     1      -9.311  12.887  67.256  1.00  0.00    -0.220 SA 
BRANCH  11  12
HETATM   12  C   UNL     1      -9.436  11.773  65.835  1.00  0.00    -0.223 A  
HETATM   13 CL   UNL     1     -11.260  13.146  64.183  1.00  0.00    -0.417 Cl 
HETATM   14  C   UNL     1      -9.283   9.794  63.766  1.00  0.00    -0.237 A  
HETATM   15  C   UNL     1     -10.148  11.904  64.621  1.00  0.00    -0.269 A  
HETATM   16  C   UNL     1     -10.045  10.934  63.600  1.00  0.00    -0.414 A  
HETATM   17  C   UNL     1      -8.626   9.597  64.965  1.00  0.00    -0.180 A  
HETATM   18  C   UNL     1      -8.701  10.560  65.984  1.00  0.00    -0.164 A  
HETATM   19 CL   UNL     1      -7.838  10.120  67.438  1.00  0.00    -0.102 Cl 
ENDBRANCH  11  12
ENDBRANCH  10  11
BRANCH  10  20
HETATM   20  C   UNL     1     -11.419  11.354  68.336  1.00  0.00    -0.299 C  
BRANCH  20  21
HETATM   21  N   UNL     1     -11.627  10.688  69.615  1.00  0.00    -0.275 NA 
HETATM   22  C   UNL     1     -12.518  11.069  70.582  1.00  0.00    -0.373 A  
HETATM   23  N   UNL     1     -12.458  10.277  71.626  1.00  0.00    -0.405 NA 
HETATM   24  C   UNL     1     -10.905   9.640  70.111  1.00  0.00    -0.280 A  
HETATM   25  C   UNL     1     -11.460   9.380  71.343  1.00  0.00    -0.379 A  
ENDBRANCH  20  21
ENDBRANCH  10  20
ENDBRANCH   9  10
ENDBRANCH   8   9
ENDBRANCH   5   8
TORSDOF 7
ENDMDL
MODEL      137
REMARK 921   NORMALIZED FREE ENERGY PREDICTED BY IDOCK:   -5.42 KCAL/MOL
REMARK 922        TOTAL FREE ENERGY PREDICTED BY IDOCK:   -8.52 KCAL/MOL
REMARK 923 INTER-LIGAND FREE ENERGY PREDICTED BY IDOCK:   -7.52 KCAL/MOL
REMARK 924 INTRA-LIGAND FREE ENERGY PREDICTED BY IDOCK:   -1.01 KCAL/MOL
REMARK 927      BINDING AFFINITY PREDICTED BY RF-SCORE:    0.00 PKD
ROOT
HETATM    1 CL   UNL     1     -12.382  14.619  64.093  1.00  0.00    -0.434 Cl 
HETATM    2  C   UNL     1     -11.710  13.141  64.665  1.00  0.00    -0.361 A  
HETATM    3  C   UNL     1     -11.794  12.824  66.017  1.00  0.00    -0.495 A  
HETATM    4  C   UNL     1     -11.213  11.645  66.487  1.00  0.00    -0.356 A  
HETATM    5  C   UNL     1     -10.551  10.768  65.611  1.00  0.00    -0.199 A  
HETATM    6  C   UNL     1     -10.494  11.093  64.250  1.00  0.00    -0.427 A  
HETATM    7  C   UNL     1     -11.071  12.278  63.780  1.00  0.00    -0.507 A  
ENDROOT
BRANCH   5   8
HETATM    8  C   UNL     1      -9.845   9.540  66.146  1.00  0.00    -0.343 C  
BRANCH   8   9
HETATM    9  C   UNL     1     -10.656   8.783  67.198  1.00  0.00    -0.303 C  
BRANCH   9  10
HETATM   10  C   UNL     1      -9.819   8.156  68.335  1.00  0.00    -0.171 C  
BRANCH  10  11
HETATM   11  S   UNL     1      -9.606   9.359  69.713  1.00  0.00    -0.215 SA 
BRANCH  11  12
HETATM   12  C   UNL     1     -11.109   9.597  70.693  1.00  0.00    -0.319 A  
HETATM   13 CL   UNL     1     -11.842  12.227  69.996  1.00  0.00    -0.398 Cl 
HETATM   14  C   UNL     1     -13.467   9.533  72.323  1.00  0.00    -0.521 A  
HETATM   15  C   UNL     1     -12.005  10.689  70.756  1.00  0.00    -0.374 A  
HETATM   16  C   UNL     1     -13.176  10.636  71.544  1.00  0.00    -0.460 A  
HETATM   17  C   UNL     1     -12.583   8.473  72.340  1.00  0.00    -0.409 A  
HETATM   18  C   UNL     1     -11.424   8.500  71.548  1.00  0.00    -0.287 A  
HETATM   19 CL   UNL     1     -10.409   7.090  71.731  1.00  0.00    -0.210 Cl 
ENDBRANCH  11  12
ENDBRANCH  10  11
BRANCH  10  20
HETATM   20  C   UNL     1      -8.519   7.382  68.019  1.00  0.00    -0.123 C  
BRANCH  20  21
HETATM   21  N   UNL     1      -8.642   5.931  68.087  1.00  0.00    -0.113 NA 
HETATM   22  C   UNL     1      -7.798   5.028  67.501  1.00  0.00    -0.095 A  
HETATM   23  N   UNL     1      -8.183   3.795  67.730  1.00  0.00    -0.088 NA 
HETATM   24  C   UNL     1      -9.668   5.229  68.652  1.00  0.00    -0.145 A  
HETATM   25  C   UNL     1      -9.345   3.906  68.450  1.00  0.00    -0.163 A  
ENDBRANCH  20  21
ENDBRANCH  10  20
ENDBRANCH   9  10
ENDBRANCH   8   9
ENDBRANCH   5   8
TORSDOF 7
ENDMDL
MODEL      138
REMARK 921   NORMALIZED FREE ENERGY PREDICTED BY IDOCK:   -5.41 KCAL/MOL
REMARK 922        TOTAL FREE ENERGY PREDICTED BY IDOCK:   -8.51 KCAL/MOL
REMARK 923 INTER-LIGAND FREE ENERGY PREDICTED BY IDOCK:   -7.42 KCAL/MOL
REMARK 924 INTRA-LIGAND FREE ENERGY PREDICTED BY IDOCK:   -1.09 KCAL/MOL
REMARK 927      BINDING AFFINITY PREDICTED BY RF-SCORE:    0.00 PKD
ROOT
HETATM    1 CL   UNL     1     -14.002  15.758  72.887  1.00  0.00    -0.596 Cl 
HETATM    2  C   UNL     1     -13.310  14.497  71.943  1.00  0.00    -0.365 A  
HETATM    3  C   UNL     1     -12.507  14.815  70.852  1.00  0.00    -0.396 A  
HETATM    4  C   UNL     1     -11.980  13.792  70.062  1.00  0.00    -0.407 A  
HETATM    5  C   UNL     1     -12.241  12.443  70.357  1.00  0.00    -0.370 A  
HETATM    6  C   UNL     1     -13.034  12.141  71.471  1.00  0.00    -0.398 A  
HETATM    7  C   UNL     1     -13.568  13.166  72.260  1.00  0.00    -0.677 A  
ENDROOT
BRANCH   5   8
HETATM    8  C   UNL     1     -11.742  11.347  69.441  1.00  0.00    -0.406 C  
BRANCH   8   9
HETATM    9  C   UNL     1     -11.334  11.852  68.056  1.00  0.00    -0.352 C  
BRANCH   9  10
HETATM   10  C   UNL     1      -9.941  11.384  67.580  1.00  0.00    -0.182 C  
BRANCH  10  11
HETATM   11  S   UNL     1      -8.891  12.834  67.144  1.00  0.00    -0.202 SA 
BRANCH  11  12
HETATM   12  C   UNL     1      -9.780  14.106  66.213  1.00  0.00    -0.297 A  
HETATM   13 CL   UNL     1     -10.742  12.641  64.007  1.00  0.00    -0.423 Cl 
HETATM   14  C   UNL     1     -11.132  16.378  65.102  1.00  0.00    -0.176 A  
HETATM   15  C   UNL     1     -10.544  14.016  65.027  1.00  0.00    -0.410 A  
HETATM   16  C   UNL     1     -11.225  15.137  64.503  1.00  0.00    -0.283 A  
HETATM   17  C   UNL     1     -10.340  16.522  66.225  1.00  0.00    -0.327 A  
HETATM   18  C   UNL     1      -9.671  15.414  66.771  1.00  0.00    -0.240 A  
HETATM   19 CL   UNL     1      -8.690  15.797  68.164  1.00  0.00    -0.171 Cl 
ENDBRANCH  11  12
ENDBRANCH  10  11
BRANCH  10  20
HETATM   20  C   UNL     1      -9.806  10.229  66.562  1.00  0.00    -0.212 C  
BRANCH  20  21
HETATM   21  N   UNL     1      -8.798   9.232  66.902  1.00  0.00    -0.126 NA 
HETATM   22  C   UNL     1      -8.292   8.999  68.152  1.00  0.00    -0.121 A  
HETATM   23  N   UNL     1      -7.387   8.049  68.133  1.00  0.00    -0.093 NA 
HETATM   24  C   UNL     1      -8.114   8.437  66.027  1.00  0.00    -0.104 A  
HETATM   25  C   UNL     1      -7.270   7.688  66.815  1.00  0.00    -0.088 A  
ENDBRANCH  20  21
ENDBRANCH  10  20
ENDBRANCH   9  10
ENDBRANCH   8   9
ENDBRANCH   5   8
TORSDOF 7
ENDMDL
MODEL      139
REMARK 921   NORMALIZED FREE ENERGY PREDICTED BY IDOCK:   -5.40 KCAL/MOL
REMARK 922        TOTAL FREE ENERGY PREDICTED BY IDOCK:   -8.50 KCAL/MOL
REMARK 923 INTER-LIGAND FREE ENERGY PREDICTED BY IDOCK:   -7.43 KCAL/MOL
REMARK 924 INTRA-LIGAND FREE ENERGY PREDICTED BY IDOCK:   -1.07 KCAL/MOL
REMARK 927      BINDING AFFINITY PREDICTED BY RF-SCORE:    0.00 PKD
ROOT
HETATM    1 CL   UNL     1     -12.161  15.565  69.896  1.00  0.00    -0.378 Cl 
HETATM    2  C   UNL     1     -12.480  13.992  70.515  1.00  0.00    -0.359 A  
HETATM    3  C   UNL     1     -13.289  13.845  71.638  1.00  0.00    -0.437 A  
HETATM    4  C   UNL     1     -13.514  12.571  72.164  1.00  0.00    -0.523 A  
HETATM    5  C   UNL     1     -12.943  11.433  71.571  1.00  0.00    -0.505 A  
HETATM    6  C   UNL     1     -12.149  11.598  70.429  1.00  0.00    -0.462 A  
HETATM    7  C   UNL     1     -11.918  12.874  69.905  1.00  0.00    -0.377 A  
ENDROOT
BRANCH   5   8
HETATM    8  C   UNL     1     -13.117  10.069  72.204  1.00  0.00    -0.482 C  
BRANCH   8   9
HETATM    9  C   UNL     1     -12.944   8.915  71.215  1.00  0.00    -0.255 C  
BRANCH   9  10
HETATM   10  C   UNL     1     -11.637   8.110  71.381  1.00  0.00    -0.278 C  
BRANCH  10  11
HETATM   11  S   UNL     1     -11.599   6.697  70.200  1.00  0.00    -0.339 SA 
BRANCH  11  12
HETATM   12  C   UNL     1     -10.288   6.838  68.959  1.00  0.00    -0.195 A  
HETATM   13 CL   UNL     1     -10.750   9.417  67.921  1.00  0.00    -0.293 Cl 
HETATM   14  C   UNL     1      -8.046   6.687  67.178  1.00  0.00    -0.113 A  
HETATM   15  C   UNL     1      -9.927   7.915  68.118  1.00  0.00    -0.180 A  
HETATM   16  C   UNL     1      -8.806   7.837  67.263  1.00  0.00    -0.130 A  
HETATM   17  C   UNL     1      -8.407   5.589  67.934  1.00  0.00    -0.099 A  
HETATM   18  C   UNL     1      -9.507   5.655  68.805  1.00  0.00    -0.126 A  
HETATM   19 CL   UNL     1      -9.833   4.160  69.647  1.00  0.00    -0.269 Cl 
ENDBRANCH  11  12
ENDBRANCH  10  11
BRANCH  10  20
HETATM   20  C   UNL     1     -11.127   7.720  72.787  1.00  0.00    -0.398 C  
BRANCH  20  21
HETATM   21  N   UNL     1      -9.711   7.977  73.015  1.00  0.00    -0.278 NA 
HETATM   22  C   UNL     1      -8.842   8.532  72.114  1.00  0.00    -0.216 A  
HETATM   23  N   UNL     1      -7.631   8.620  72.609  1.00  0.00    -0.353 NA 
HETATM   24  C   UNL     1      -8.987   7.619  74.116  1.00  0.00    -0.198 A  
HETATM   25  C   UNL     1      -7.709   8.058  73.858  1.00  0.00    -0.183 A  
ENDBRANCH  20  21
ENDBRANCH  10  20
ENDBRANCH   9  10
ENDBRANCH   8   9
ENDBRANCH   5   8
TORSDOF 7
ENDMDL
MODEL      140
REMARK 921   NORMALIZED FREE ENERGY PREDICTED BY IDOCK:   -5.39 KCAL/MOL
REMARK 922        TOTAL FREE ENERGY PREDICTED BY IDOCK:   -8.48 KCAL/MOL
REMARK 923 INTER-LIGAND FREE ENERGY PREDICTED BY IDOCK:   -7.51 KCAL/MOL
REMARK 924 INTRA-LIGAND FREE ENERGY PREDICTED BY IDOCK:   -0.97 KCAL/MOL
REMARK 927      BINDING AFFINITY PREDICTED BY RF-SCORE:    0.00 PKD
ROOT
HETATM    1 CL   UNL     1     -10.306   6.739  72.732  1.00  0.00    -0.216 Cl 
HETATM    2  C   UNL     1     -10.698   8.142  71.817  1.00  0.00    -0.251 A  
HETATM    3  C   UNL     1      -9.758   8.676  70.940  1.00  0.00    -0.254 A  
HETATM    4  C   UNL     1     -10.062   9.838  70.228  1.00  0.00    -0.323 A  
HETATM    5  C   UNL     1     -11.307  10.472  70.378  1.00  0.00    -0.411 A  
HETATM    6  C   UNL     1     -12.248   9.909  71.249  1.00  0.00    -0.480 A  
HETATM    7  C   UNL     1     -11.942   8.748  71.967  1.00  0.00    -0.446 A  
ENDROOT
BRANCH   5   8
HETATM    8  C   UNL     1     -11.590  11.782  69.672  1.00  0.00    -0.393 C  
BRANCH   8   9
HETATM    9  C   UNL     1     -11.314  11.733  68.168  1.00  0.00    -0.348 C  
BRANCH   9  10
HETATM   10  C   UNL     1     -11.096  13.110  67.505  1.00  0.00    -0.271 C  
BRANCH  10  11
HETATM   11  S   UNL     1     -10.281  14.268  68.682  1.00  0.00    -0.239 SA 
BRANCH  11  12
HETATM   12  C   UNL     1      -8.499  14.429  68.408  1.00  0.00    -0.165 A  
HETATM   13 CL   UNL     1      -7.640  11.753  68.601  1.00  0.00    -0.126 Cl 
HETATM   14  C   UNL     1      -5.769  15.107  67.851  1.00  0.00    -0.149 A  
HETATM   15  C   UNL     1      -7.487  13.446  68.320  1.00  0.00    -0.129 A  
HETATM   16  C   UNL     1      -6.150  13.791  68.022  1.00  0.00    -0.140 A  
HETATM   17  C   UNL     1      -6.716  16.102  67.995  1.00  0.00    -0.143 A  
HETATM   18  C   UNL     1      -8.053  15.778  68.273  1.00  0.00    -0.142 A  
HETATM   19 CL   UNL     1      -9.095  17.167  68.458  1.00  0.00    -0.259 Cl 
ENDBRANCH  11  12
ENDBRANCH  10  11
BRANCH  10  20
HETATM   20  C   UNL     1     -12.232  13.785  66.702  1.00  0.00    -0.409 C  
BRANCH  20  21
HETATM   21  N   UNL     1     -12.220  13.500  65.273  1.00  0.00    -0.414 NA 
HETATM   22  C   UNL     1     -12.272  14.430  64.270  1.00  0.00    -0.423 A  
HETATM   23  N   UNL     1     -12.261  13.861  63.088  1.00  0.00    -0.487 NA 
HETATM   24  C   UNL     1     -12.261  12.265  64.690  1.00  0.00    -0.377 A  
HETATM   25  C   UNL     1     -12.250  12.512  63.336  1.00  0.00    -0.517 A  
ENDBRANCH  20  21
ENDBRANCH  10  20
ENDBRANCH   9  10
ENDBRANCH   8   9
ENDBRANCH   5   8
TORSDOF 7
ENDMDL
MODEL      141
REMARK 921   NORMALIZED FREE ENERGY PREDICTED BY IDOCK:   -5.38 KCAL/MOL
REMARK 922        TOTAL FREE ENERGY PREDICTED BY IDOCK:   -8.46 KCAL/MOL
REMARK 923 INTER-LIGAND FREE ENERGY PREDICTED BY IDOCK:   -6.68 KCAL/MOL
REMARK 924 INTRA-LIGAND FREE ENERGY PREDICTED BY IDOCK:   -1.79 KCAL/MOL
REMARK 927      BINDING AFFINITY PREDICTED BY RF-SCORE:    0.00 PKD
ROOT
HETATM    1 CL   UNL     1     -10.847  18.387  67.198  1.00  0.00    -0.355 Cl 
HETATM    2  C   UNL     1      -9.899  16.991  67.532  1.00  0.00    -0.258 A  
HETATM    3  C   UNL     1      -9.520  16.150  66.489  1.00  0.00    -0.289 A  
HETATM    4  C   UNL     1      -8.786  14.995  66.766  1.00  0.00    -0.293 A  
HETATM    5  C   UNL     1      -8.416  14.673  68.083  1.00  0.00    -0.156 A  
HETATM    6  C   UNL     1      -8.788  15.541  69.117  1.00  0.00    -0.253 A  
HETATM    7  C   UNL     1      -9.529  16.695  68.841  1.00  0.00    -0.251 A  
ENDROOT
BRANCH   5   8
HETATM    8  C   UNL     1      -7.701  13.372  68.382  1.00  0.00    -0.138 C  
BRANCH   8   9
HETATM    9  C   UNL     1      -7.794  12.354  67.244  1.00  0.00    -0.166 C  
BRANCH   9  10
HETATM   10  C   UNL     1      -8.455  11.012  67.629  1.00  0.00    -0.121 C  
BRANCH  10  11
HETATM   11  S   UNL     1      -9.720  10.538  66.377  1.00  0.00    -0.207 SA 
BRANCH  11  12
HETATM   12  C   UNL     1     -10.837  11.894  65.940  1.00  0.00    -0.297 A  
HETATM   13 CL   UNL     1     -11.930  12.571  68.447  1.00  0.00    -0.337 Cl 
HETATM   14  C   UNL     1     -12.406  14.031  64.847  1.00  0.00    -0.447 A  
HETATM   15  C   UNL     1     -11.649  12.717  66.753  1.00  0.00    -0.370 A  
HETATM   16  C   UNL     1     -12.398  13.782  66.206  1.00  0.00    -0.479 A  
HETATM   17  C   UNL     1     -11.678  13.206  64.012  1.00  0.00    -0.496 A  
HETATM   18  C   UNL     1     -10.912  12.155  64.540  1.00  0.00    -0.314 A  
HETATM   19 CL   UNL     1     -10.093  11.199  63.329  1.00  0.00    -0.410 Cl 
ENDBRANCH  11  12
ENDBRANCH  10  11
BRANCH  10  20
HETATM   20  C   UNL     1      -8.931  10.756  69.077  1.00  0.00    -0.132 C  
BRANCH  20  21
HETATM   21  N   UNL     1      -9.340   9.385  69.351  1.00  0.00    -0.161 NA 
HETATM   22  C   UNL     1      -8.544   8.276  69.253  1.00  0.00    -0.138 A  
HETATM   23  N   UNL     1      -9.206   7.183  69.549  1.00  0.00    -0.149 NA 
HETATM   24  C   UNL     1     -10.603   8.958  69.648  1.00  0.00    -0.226 A  
HETATM   25  C   UNL     1     -10.490   7.596  69.801  1.00  0.00    -0.232 A  
ENDBRANCH  20  21
ENDBRANCH  10  20
ENDBRANCH   9  10
ENDBRANCH   8   9
ENDBRANCH   5   8
TORSDOF 7
ENDMDL
MODEL      142
REMARK 921   NORMALIZED FREE ENERGY PREDICTED BY IDOCK:   -5.38 KCAL/MOL
REMARK 922        TOTAL FREE ENERGY PREDICTED BY IDOCK:   -8.46 KCAL/MOL
REMARK 923 INTER-LIGAND FREE ENERGY PREDICTED BY IDOCK:   -7.59 KCAL/MOL
REMARK 924 INTRA-LIGAND FREE ENERGY PREDICTED BY IDOCK:   -0.87 KCAL/MOL
REMARK 927      BINDING AFFINITY PREDICTED BY RF-SCORE:    0.00 PKD
ROOT
HETATM    1 CL   UNL     1     -10.817  16.483  65.115  1.00  0.00    -0.329 Cl 
HETATM    2  C   UNL     1     -10.770  14.930  65.855  1.00  0.00    -0.323 A  
HETATM    3  C   UNL     1      -9.553  14.407  66.281  1.00  0.00    -0.321 A  
HETATM    4  C   UNL     1      -9.511  13.130  66.844  1.00  0.00    -0.244 A  
HETATM    5  C   UNL     1     -10.681  12.368  66.994  1.00  0.00    -0.268 A  
HETATM    6  C   UNL     1     -11.900  12.919  66.579  1.00  0.00    -0.473 A  
HETATM    7  C   UNL     1     -11.942  14.196  66.009  1.00  0.00    -0.427 A  
ENDROOT
BRANCH   5   8
HETATM    8  C   UNL     1     -10.610  10.949  67.519  1.00  0.00    -0.271 C  
BRANCH   8   9
HETATM    9  C   UNL     1      -9.918  10.839  68.879  1.00  0.00    -0.213 C  
BRANCH   9  10
HETATM   10  C   UNL     1     -10.795  10.251  70.006  1.00  0.00    -0.307 C  
BRANCH  10  11
HETATM   11  S   UNL     1     -10.540   8.432  70.135  1.00  0.00    -0.234 SA 
BRANCH  11  12
HETATM   12  C   UNL     1      -9.901   7.912  71.747  1.00  0.00    -0.173 A  
HETATM   13 CL   UNL     1      -7.271   8.920  71.679  1.00  0.00    -0.093 Cl 
HETATM   14  C   UNL     1      -9.316   6.983  74.396  1.00  0.00    -0.233 A  
HETATM   15  C   UNL     1      -8.653   8.152  72.365  1.00  0.00    -0.185 A  
HETATM   16  C   UNL     1      -8.386   7.710  73.679  1.00  0.00    -0.230 A  
HETATM   17  C   UNL     1     -10.522   6.670  73.801  1.00  0.00    -0.357 A  
HETATM   18  C   UNL     1     -10.813   7.117  72.502  1.00  0.00    -0.264 A  
HETATM   19 CL   UNL     1     -12.368   6.591  71.904  1.00  0.00    -0.388 Cl 
ENDBRANCH  11  12
ENDBRANCH  10  11
BRANCH  10  20
HETATM   20  C   UNL     1     -12.283  10.650  70.134  1.00  0.00    -0.320 C  
BRANCH  20  21
HETATM   21  N   UNL     1     -12.519  11.909  70.829  1.00  0.00    -0.335 NA 
HETATM   22  C   UNL     1     -13.260  12.069  71.968  1.00  0.00    -0.375 A  
HETATM   23  N   UNL     1     -13.299  13.326  72.342  1.00  0.00    -0.540 NA 
HETATM   24  C   UNL     1     -12.133  13.151  70.412  1.00  0.00    -0.317 A  
HETATM   25  C   UNL     1     -12.597  14.010  71.382  1.00  0.00    -0.372 A  
ENDBRANCH  20  21
ENDBRANCH  10  20
ENDBRANCH   9  10
ENDBRANCH   8   9
ENDBRANCH   5   8
TORSDOF 7
ENDMDL
MODEL      143
REMARK 921   NORMALIZED FREE ENERGY PREDICTED BY IDOCK:   -5.37 KCAL/MOL
REMARK 922        TOTAL FREE ENERGY PREDICTED BY IDOCK:   -8.45 KCAL/MOL
REMARK 923 INTER-LIGAND FREE ENERGY PREDICTED BY IDOCK:   -7.54 KCAL/MOL
REMARK 924 INTRA-LIGAND FREE ENERGY PREDICTED BY IDOCK:   -0.91 KCAL/MOL
REMARK 927      BINDING AFFINITY PREDICTED BY RF-SCORE:    0.00 PKD
ROOT
HETATM    1 CL   UNL     1     -11.375   5.744  72.386  1.00  0.00    -0.343 Cl 
HETATM    2  C   UNL     1     -11.083   6.511  70.873  1.00  0.00    -0.292 A  
HETATM    3  C   UNL     1     -11.033   5.746  69.712  1.00  0.00    -0.397 A  
HETATM    4  C   UNL     1     -10.755   6.363  68.491  1.00  0.00    -0.347 A  
HETATM    5  C   UNL     1     -10.533   7.748  68.416  1.00  0.00    -0.207 A  
HETATM    6  C   UNL     1     -10.607   8.506  69.592  1.00  0.00    -0.221 A  
HETATM    7  C   UNL     1     -10.879   7.887  70.817  1.00  0.00    -0.238 A  
ENDROOT
BRANCH   5   8
HETATM    8  C   UNL     1     -10.140   8.392  67.103  1.00  0.00    -0.335 C  
BRANCH   8   9
HETATM    9  C   UNL     1     -10.617   9.840  66.970  1.00  0.00    -0.269 C  
BRANCH   9  10
HETATM   10  C   UNL     1      -9.504  10.861  66.651  1.00  0.00    -0.179 C  
BRANCH  10  11
HETATM   11  S   UNL     1      -9.107  11.866  68.142  1.00  0.00    -0.192 SA 
BRANCH  11  12
HETATM   12  C   UNL     1     -10.121  13.358  68.290  1.00  0.00    -0.247 A  
HETATM   13 CL   UNL     1      -8.689  15.190  66.699  1.00  0.00    -0.310 Cl 
HETATM   14  C   UNL     1     -12.033  15.453  68.714  1.00  0.00    -0.278 A  
HETATM   15  C   UNL     1      -9.987  14.628  67.683  1.00  0.00    -0.227 A  
HETATM   16  C   UNL     1     -10.948  15.643  67.881  1.00  0.00    -0.319 A  
HETATM   17  C   UNL     1     -12.163  14.249  69.378  1.00  0.00    -0.319 A  
HETATM   18  C   UNL     1     -11.228  13.221  69.179  1.00  0.00    -0.251 A  
HETATM   19 CL   UNL     1     -11.536  11.789  70.131  1.00  0.00    -0.334 Cl 
ENDBRANCH  11  12
ENDBRANCH  10  11
BRANCH  10  20
HETATM   20  C   UNL     1      -9.565  11.713  65.362  1.00  0.00    -0.205 C  
BRANCH  20  21
HETATM   21  N   UNL     1     -10.911  11.973  64.867  1.00  0.00    -0.291 NA 
HETATM   22  C   UNL     1     -11.353  11.744  63.592  1.00  0.00    -0.436 A  
HETATM   23  N   UNL     1     -12.609  12.096  63.451  1.00  0.00    -0.726 NA 
HETATM   24  C   UNL     1     -11.924  12.582  65.551  1.00  0.00    -0.442 A  
HETATM   25  C   UNL     1     -12.978  12.616  64.666  1.00  0.00    -0.136 A  
ENDBRANCH  20  21
ENDBRANCH  10  20
ENDBRANCH   9  10
ENDBRANCH   8   9
ENDBRANCH   5   8
TORSDOF 7
ENDMDL
MODEL      144
REMARK 921   NORMALIZED FREE ENERGY PREDICTED BY IDOCK:   -5.35 KCAL/MOL
REMARK 922        TOTAL FREE ENERGY PREDICTED BY IDOCK:   -8.42 KCAL/MOL
REMARK 923 INTER-LIGAND FREE ENERGY PREDICTED BY IDOCK:   -7.49 KCAL/MOL
REMARK 924 INTRA-LIGAND FREE ENERGY PREDICTED BY IDOCK:   -0.93 KCAL/MOL
REMARK 927      BINDING AFFINITY PREDICTED BY RF-SCORE:    0.00 PKD
ROOT
HETATM    1 CL   UNL     1      -8.044   8.118  66.201  1.00  0.00    -0.104 Cl 
HETATM    2  C   UNL     1      -9.028   9.304  66.967  1.00  0.00    -0.126 A  
HETATM    3  C   UNL     1     -10.284   9.599  66.444  1.00  0.00    -0.288 A  
HETATM    4  C   UNL     1     -11.064  10.591  67.043  1.00  0.00    -0.183 A  
HETATM    5  C   UNL     1     -10.602  11.291  68.170  1.00  0.00    -0.225 A  
HETATM    6  C   UNL     1      -9.345  10.967  68.694  1.00  0.00    -0.188 A  
HETATM    7  C   UNL     1      -8.560   9.977  68.092  1.00  0.00    -0.118 A  
ENDROOT
BRANCH   5   8
HETATM    8  C   UNL     1     -11.416  12.427  68.752  1.00  0.00    -0.350 C  
BRANCH   8   9
HETATM    9  C   UNL     1     -11.741  13.524  67.737  1.00  0.00    -0.394 C  
BRANCH   9  10
HETATM   10  C   UNL     1     -10.558  14.454  67.387  1.00  0.00    -0.270 C  
BRANCH  10  11
HETATM   11  S   UNL     1     -10.841  16.139  68.075  1.00  0.00    -0.328 SA 
BRANCH  11  12
HETATM   12  C   UNL     1      -9.515  17.305  67.677  1.00  0.00    -0.246 A  
HETATM   13 CL   UNL     1     -10.769  18.984  65.792  1.00  0.00    -0.474 Cl 
HETATM   14  C   UNL     1      -7.199  18.972  67.396  1.00  0.00    -0.228 A  
HETATM   15  C   UNL     1      -9.508  18.441  66.835  1.00  0.00    -0.291 A  
HETATM   16  C   UNL     1      -8.369  19.267  66.724  1.00  0.00    -0.311 A  
HETATM   17  C   UNL     1      -7.145  17.834  68.176  1.00  0.00    -0.219 A  
HETATM   18  C   UNL     1      -8.273  17.010  68.314  1.00  0.00    -0.227 A  
HETATM   19 CL   UNL     1      -8.003  15.599  69.306  1.00  0.00    -0.226 Cl 
ENDBRANCH  11  12
ENDBRANCH  10  11
BRANCH  10  20
HETATM   20  C   UNL     1      -9.983  14.489  65.953  1.00  0.00    -0.329 C  
BRANCH  20  21
HETATM   21  N   UNL     1     -10.929  14.120  64.908  1.00  0.00    -0.376 NA 
HETATM   22  C   UNL     1     -11.926  14.915  64.413  1.00  0.00    -0.394 A  
HETATM   23  N   UNL     1     -12.621  14.294  63.490  1.00  0.00    -0.705 NA 
HETATM   24  C   UNL     1     -11.050  12.894  64.318  1.00  0.00    -0.378 A  
HETATM   25  C   UNL     1     -12.082  13.034  63.419  1.00  0.00    -0.515 A  
ENDBRANCH  20  21
ENDBRANCH  10  20
ENDBRANCH   9  10
ENDBRANCH   8   9
ENDBRANCH   5   8
TORSDOF 7
ENDMDL
MODEL      145
REMARK 921   NORMALIZED FREE ENERGY PREDICTED BY IDOCK:   -5.35 KCAL/MOL
REMARK 922        TOTAL FREE ENERGY PREDICTED BY IDOCK:   -8.42 KCAL/MOL
REMARK 923 INTER-LIGAND FREE ENERGY PREDICTED BY IDOCK:   -7.55 KCAL/MOL
REMARK 924 INTRA-LIGAND FREE ENERGY PREDICTED BY IDOCK:   -0.87 KCAL/MOL
REMARK 927      BINDING AFFINITY PREDICTED BY RF-SCORE:    0.00 PKD
ROOT
HETATM    1 CL   UNL     1      -8.621   7.451  67.714  1.00  0.00    -0.120 Cl 
HETATM    2  C   UNL     1      -9.494   8.906  68.001  1.00  0.00    -0.143 A  
HETATM    3  C   UNL     1      -9.795   9.284  69.306  1.00  0.00    -0.172 A  
HETATM    4  C   UNL     1     -10.539  10.443  69.534  1.00  0.00    -0.274 A  
HETATM    5  C   UNL     1     -10.983  11.239  68.465  1.00  0.00    -0.266 A  
HETATM    6  C   UNL     1     -10.654  10.854  67.159  1.00  0.00    -0.302 A  
HETATM    7  C   UNL     1      -9.913   9.690  66.929  1.00  0.00    -0.272 A  
ENDROOT
BRANCH   5   8
HETATM    8  C   UNL     1     -11.867  12.441  68.720  1.00  0.00    -0.358 C  
BRANCH   8   9
HETATM    9  C   UNL     1     -11.146  13.585  69.435  1.00  0.00    -0.173 C  
BRANCH   9  10
HETATM   10  C   UNL     1     -11.510  14.997  68.929  1.00  0.00    -0.314 C  
BRANCH  10  11
HETATM   11  S   UNL     1     -10.434  15.468  67.510  1.00  0.00    -0.288 SA 
BRANCH  11  12
HETATM   12  C   UNL     1      -9.395  16.911  67.850  1.00  0.00    -0.238 A  
HETATM   13 CL   UNL     1     -10.601  18.883  66.238  1.00  0.00    -0.485 Cl 
HETATM   14  C   UNL     1      -7.575  18.949  68.719  1.00  0.00    -0.368 A  
HETATM   15  C   UNL     1      -9.497  18.247  67.399  1.00  0.00    -0.266 A  
HETATM   16  C   UNL     1      -8.609  19.247  67.853  1.00  0.00    -0.348 A  
HETATM   17  C   UNL     1      -7.400  17.642  69.129  1.00  0.00    -0.122 A  
HETATM   18  C   UNL     1      -8.285  16.638  68.704  1.00  0.00    -0.245 A  
HETATM   19 CL   UNL     1      -7.884  15.044  69.293  1.00  0.00    -0.188 Cl 
ENDBRANCH  11  12
ENDBRANCH  10  11
BRANCH  10  20
HETATM   20  C   UNL     1     -11.718  16.160  69.926  1.00  0.00    -0.184 C  
BRANCH  20  21
HETATM   21  N   UNL     1     -12.371  15.784  71.173  1.00  0.00    -0.420 NA 
HETATM   22  C   UNL     1     -13.639  15.285  71.295  1.00  0.00    -0.507 A  
HETATM   23  N   UNL     1     -13.946  15.060  72.551  1.00  0.00    -0.467 NA 
HETATM   24  C   UNL     1     -11.875  15.960  72.434  1.00  0.00    -0.513 A  
HETATM   25  C   UNL     1     -12.853  15.472  73.270  1.00  0.00    -0.517 A  
ENDBRANCH  20  21
ENDBRANCH  10  20
ENDBRANCH   9  10
ENDBRANCH   8   9
ENDBRANCH   5   8
TORSDOF 7
ENDMDL
MODEL      146
REMARK 921   NORMALIZED FREE ENERGY PREDICTED BY IDOCK:   -5.33 KCAL/MOL
REMARK 922        TOTAL FREE ENERGY PREDICTED BY IDOCK:   -8.40 KCAL/MOL
REMARK 923 INTER-LIGAND FREE ENERGY PREDICTED BY IDOCK:   -7.38 KCAL/MOL
REMARK 924 INTRA-LIGAND FREE ENERGY PREDICTED BY IDOCK:   -1.01 KCAL/MOL
REMARK 927      BINDING AFFINITY PREDICTED BY RF-SCORE:    0.00 PKD
ROOT
HETATM    1 CL   UNL     1     -12.578  16.027  71.035  1.00  0.00    -0.322 Cl 
HETATM    2  C   UNL     1     -12.730  14.319  71.179  1.00  0.00    -0.360 A  
HETATM    3  C   UNL     1     -13.609  13.782  72.114  1.00  0.00    -0.613 A  
HETATM    4  C   UNL     1     -13.701  12.396  72.258  1.00  0.00    -0.271 A  
HETATM    5  C   UNL     1     -12.924  11.534  71.465  1.00  0.00    -0.485 A  
HETATM    6  C   UNL     1     -12.060  12.092  70.515  1.00  0.00    -0.402 A  
HETATM    7  C   UNL     1     -11.963  13.480  70.374  1.00  0.00    -0.367 A  
ENDROOT
BRANCH   5   8
HETATM    8  C   UNL     1     -12.964  10.038  71.694  1.00  0.00    -0.554 C  
BRANCH   8   9
HETATM    9  C   UNL     1     -11.576   9.396  71.747  1.00  0.00    -0.433 C  
BRANCH   9  10
HETATM   10  C   UNL     1     -11.199   8.565  70.502  1.00  0.00    -0.242 C  
BRANCH  10  11
HETATM   11  S   UNL     1     -11.763   6.822  70.698  1.00  0.00    -0.375 SA 
BRANCH  11  12
HETATM   12  C   UNL     1     -10.633   5.618  69.957  1.00  0.00    -0.318 A  
HETATM   13 CL   UNL     1     -10.975   6.120  67.206  1.00  0.00    -0.427 Cl 
HETATM   14  C   UNL     1      -8.690   3.648  69.203  1.00  0.00    -0.137 A  
HETATM   15  C   UNL     1     -10.287   5.387  68.606  1.00  0.00    -0.158 A  
HETATM   16  C   UNL     1      -9.311   4.431  68.249  1.00  0.00    -0.199 A  
HETATM   17  C   UNL     1      -9.050   3.796  70.528  1.00  0.00    -0.189 A  
HETATM   18  C   UNL     1     -10.004   4.755  70.904  1.00  0.00    -0.213 A  
HETATM   19 CL   UNL     1     -10.357   4.770  72.614  1.00  0.00    -0.244 Cl 
ENDBRANCH  11  12
ENDBRANCH  10  11
BRANCH  10  20
HETATM   20  C   UNL     1      -9.783   8.663  69.890  1.00  0.00    -0.173 C  
BRANCH  20  21
HETATM   21  N   UNL     1      -9.752   9.041  68.483  1.00  0.00    -0.156 NA 
HETATM   22  C   UNL     1      -8.677   8.921  67.645  1.00  0.00    -0.124 A  
HETATM   23  N   UNL     1      -8.957   9.362  66.441  1.00  0.00    -0.146 NA 
HETATM   24  C   UNL     1     -10.747   9.669  67.788  1.00  0.00    -0.257 A  
HETATM   25  C   UNL     1     -10.245   9.827  66.517  1.00  0.00    -0.219 A  
ENDBRANCH  20  21
ENDBRANCH  10  20
ENDBRANCH   9  10
ENDBRANCH   8   9
ENDBRANCH   5   8
TORSDOF 7
ENDMDL
MODEL      147
REMARK 921   NORMALIZED FREE ENERGY PREDICTED BY IDOCK:   -5.33 KCAL/MOL
REMARK 922        TOTAL FREE ENERGY PREDICTED BY IDOCK:   -8.39 KCAL/MOL
REMARK 923 INTER-LIGAND FREE ENERGY PREDICTED BY IDOCK:   -7.33 KCAL/MOL
REMARK 924 INTRA-LIGAND FREE ENERGY PREDICTED BY IDOCK:   -1.06 KCAL/MOL
REMARK 927      BINDING AFFINITY PREDICTED BY RF-SCORE:    0.00 PKD
ROOT
HETATM    1 CL   UNL     1      -9.823   2.870  64.935  1.00  0.00    -0.015 Cl 
HETATM    2  C   UNL     1      -9.571   4.472  65.509  1.00  0.00    -0.185 A  
HETATM    3  C   UNL     1     -10.539   5.080  66.303  1.00  0.00    -0.332 A  
HETATM    4  C   UNL     1     -10.352   6.395  66.734  1.00  0.00    -0.279 A  
HETATM    5  C   UNL     1      -9.196   7.112  66.383  1.00  0.00    -0.196 A  
HETATM    6  C   UNL     1      -8.223   6.478  65.600  1.00  0.00    -0.137 A  
HETATM    7  C   UNL     1      -8.412   5.162  65.164  1.00  0.00    -0.147 A  
ENDROOT
BRANCH   5   8
HETATM    8  C   UNL     1      -9.047   8.566  66.777  1.00  0.00    -0.186 C  
BRANCH   8   9
HETATM    9  C   UNL     1     -10.315   9.390  66.548  1.00  0.00    -0.268 C  
BRANCH   9  10
HETATM   10  C   UNL     1     -10.323  10.772  67.236  1.00  0.00    -0.220 C  
BRANCH  10  11
HETATM   11  S   UNL     1      -9.720  10.629  68.971  1.00  0.00    -0.183 SA 
BRANCH  11  12
HETATM   12  C   UNL     1     -11.042  10.303  70.163  1.00  0.00    -0.319 A  
HETATM   13 CL   UNL     1     -12.174  12.863  70.486  1.00  0.00    -0.438 Cl 
HETATM   14  C   UNL     1     -13.051   9.351  71.974  1.00  0.00    -0.516 A  
HETATM   15  C   UNL     1     -12.027  11.159  70.705  1.00  0.00    -0.360 A  
HETATM   16  C   UNL     1     -13.026  10.673  71.577  1.00  0.00    -0.566 A  
HETATM   17  C   UNL     1     -12.065   8.497  71.520  1.00  0.00    -0.351 A  
HETATM   18  C   UNL     1     -11.076   8.958  70.637  1.00  0.00    -0.262 A  
HETATM   19 CL   UNL     1      -9.895   7.746  70.203  1.00  0.00    -0.184 Cl 
ENDBRANCH  11  12
ENDBRANCH  10  11
BRANCH  10  20
HETATM   20  C   UNL     1     -11.548  11.706  67.111  1.00  0.00    -0.212 C  
BRANCH  20  21
HETATM   21  N   UNL     1     -11.479  12.659  66.011  1.00  0.00    -0.347 NA 
HETATM   22  C   UNL     1     -10.333  13.186  65.479  1.00  0.00    -0.290 A  
HETATM   23  N   UNL     1     -10.600  14.028  64.509  1.00  0.00    -0.389 NA 
HETATM   24  C   UNL     1     -12.536  13.266  65.395  1.00  0.00    -0.489 A  
HETATM   25  C   UNL     1     -11.969  14.084  64.445  1.00  0.00    -0.454 A  
ENDBRANCH  20  21
ENDBRANCH  10  20
ENDBRANCH   9  10
ENDBRANCH   8   9
ENDBRANCH   5   8
TORSDOF 7
ENDMDL
MODEL      148
REMARK 921   NORMALIZED FREE ENERGY PREDICTED BY IDOCK:   -5.32 KCAL/MOL
REMARK 922        TOTAL FREE ENERGY PREDICTED BY IDOCK:   -8.39 KCAL/MOL
REMARK 923 INTER-LIGAND FREE ENERGY PREDICTED BY IDOCK:   -6.84 KCAL/MOL
REMARK 924 INTRA-LIGAND FREE ENERGY PREDICTED BY IDOCK:   -1.54 KCAL/MOL
REMARK 927      BINDING AFFINITY PREDICTED BY RF-SCORE:    0.00 PKD
ROOT
HETATM    1 CL   UNL     1     -12.814  15.021  73.319  1.00  0.00    -0.597 Cl 
HETATM    2  C   UNL     1     -12.499  14.398  71.746  1.00  0.00    -0.339 A  
HETATM    3  C   UNL     1     -12.025  15.246  70.751  1.00  0.00    -0.384 A  
HETATM    4  C   UNL     1     -11.809  14.748  69.465  1.00  0.00    -0.366 A  
HETATM    5  C   UNL     1     -12.056  13.399  69.162  1.00  0.00    -0.306 A  
HETATM    6  C   UNL     1     -12.514  12.554  70.181  1.00  0.00    -0.092 A  
HETATM    7  C   UNL     1     -12.736  13.054  71.469  1.00  0.00    -0.349 A  
ENDROOT
BRANCH   5   8
HETATM    8  C   UNL     1     -11.907  12.892  67.743  1.00  0.00    -0.391 C  
BRANCH   8   9
HETATM    9  C   UNL     1     -10.996  11.668  67.628  1.00  0.00    -0.294 C  
BRANCH   9  10
HETATM   10  C   UNL     1      -9.586  11.852  68.230  1.00  0.00    -0.201 C  
BRANCH  10  11
HETATM   11  S   UNL     1      -8.540  12.878  67.115  1.00  0.00    -0.176 SA 
BRANCH  11  12
HETATM   12  C   UNL     1      -8.948  14.641  67.174  1.00  0.00    -0.225 A  
HETATM   13 CL   UNL     1     -10.494  14.956  64.840  1.00  0.00    -0.431 Cl 
HETATM   14  C   UNL     1      -9.428  17.421  67.687  1.00  0.00    -0.251 A  
HETATM   15  C   UNL     1      -9.753  15.430  66.322  1.00  0.00    -0.299 A  
HETATM   16  C   UNL     1     -10.001  16.793  66.599  1.00  0.00    -0.300 A  
HETATM   17  C   UNL     1      -8.582  16.700  68.506  1.00  0.00    -0.234 A  
HETATM   18  C   UNL     1      -8.338  15.340  68.258  1.00  0.00    -0.148 A  
HETATM   19 CL   UNL     1      -7.213  14.607  69.375  1.00  0.00    -0.155 Cl 
ENDBRANCH  11  12
ENDBRANCH  10  11
BRANCH  10  20
HETATM   20  C   UNL     1      -8.819  10.645  68.816  1.00  0.00    -0.161 C  
BRANCH  20  21
HETATM   21  N   UNL     1      -9.662   9.619  69.417  1.00  0.00    -0.182 NA 
HETATM   22  C   UNL     1     -10.050   8.451  68.820  1.00  0.00    -0.196 A  
HETATM   23  N   UNL     1     -10.821   7.742  69.610  1.00  0.00    -0.223 NA 
HETATM   24  C   UNL     1     -10.292   9.691  70.627  1.00  0.00    -0.297 A  
HETATM   25  C   UNL     1     -10.976   8.503  70.741  1.00  0.00    -0.247 A  
ENDBRANCH  20  21
ENDBRANCH  10  20
ENDBRANCH   9  10
ENDBRANCH   8   9
ENDBRANCH   5   8
TORSDOF 7
ENDMDL
MODEL      149
REMARK 921   NORMALIZED FREE ENERGY PREDICTED BY IDOCK:   -5.32 KCAL/MOL
REMARK 922        TOTAL FREE ENERGY PREDICTED BY IDOCK:   -8.38 KCAL/MOL
REMARK 923 INTER-LIGAND FREE ENERGY PREDICTED BY IDOCK:   -7.27 KCAL/MOL
REMARK 924 INTRA-LIGAND FREE ENERGY PREDICTED BY IDOCK:   -1.11 KCAL/MOL
REMARK 927      BINDING AFFINITY PREDICTED BY RF-SCORE:    0.00 PKD
ROOT
HETATM    1 CL   UNL     1     -10.795  17.420  67.702  1.00  0.00    -0.300 Cl 
HETATM    2  C   UNL     1     -11.151  15.739  67.808  1.00  0.00    -0.313 A  
HETATM    3  C   UNL     1     -11.705  15.225  68.976  1.00  0.00    -0.368 A  
HETATM    4  C   UNL     1     -11.955  13.855  69.076  1.00  0.00    -0.402 A  
HETATM    5  C   UNL     1     -11.662  12.988  68.010  1.00  0.00    -0.397 A  
HETATM    6  C   UNL     1     -11.124  13.526  66.834  1.00  0.00    -0.309 A  
HETATM    7  C   UNL     1     -10.868  14.898  66.736  1.00  0.00    -0.320 A  
ENDROOT
BRANCH   5   8
HETATM    8  C   UNL     1     -11.850  11.493  68.163  1.00  0.00    -0.306 C  
BRANCH   8   9
HETATM    9  C   UNL     1     -10.689  10.674  67.595  1.00  0.00    -0.315 C  
BRANCH   9  10
HETATM   10  C   UNL     1     -10.150   9.575  68.536  1.00  0.00    -0.178 C  
BRANCH  10  11
HETATM   11  S   UNL     1     -10.591   9.954  70.284  1.00  0.00    -0.305 SA 
BRANCH  11  12
HETATM   12  C   UNL     1     -11.990   8.983  70.895  1.00  0.00    -0.225 A  
HETATM   13 CL   UNL     1     -11.305   6.384  70.047  1.00  0.00    -0.466 Cl 
HETATM   14  C   UNL     1     -14.321   7.816  72.090  1.00  0.00    -0.376 A  
HETATM   15  C   UNL     1     -12.237   7.591  70.852  1.00  0.00    -0.194 A  
HETATM   16  C   UNL     1     -13.376   7.026  71.465  1.00  0.00    -0.370 A  
HETATM   17  C   UNL     1     -14.151   9.186  72.095  1.00  0.00    -0.416 A  
HETATM   18  C   UNL     1     -13.015   9.765  71.508  1.00  0.00    -0.407 A  
HETATM   19 CL   UNL     1     -12.992  11.510  71.578  1.00  0.00    -0.533 Cl 
ENDBRANCH  11  12
ENDBRANCH  10  11
BRANCH  10  20
HETATM   20  C   UNL     1      -8.702   9.056  68.390  1.00  0.00    -0.130 C  
BRANCH  20  21
HETATM   21  N   UNL     1      -8.579   7.781  67.695  1.00  0.00    -0.123 NA 
HETATM   22  C   UNL     1      -8.908   7.547  66.387  1.00  0.00    -0.156 A  
HETATM   23  N   UNL     1      -8.699   6.294  66.058  1.00  0.00    -0.148 NA 
HETATM   24  C   UNL     1      -8.215   6.586  68.248  1.00  0.00    -0.114 A  
HETATM   25  C   UNL     1      -8.263   5.686  67.208  1.00  0.00    -0.101 A  
ENDBRANCH  20  21
ENDBRANCH  10  20
ENDBRANCH   9  10
ENDBRANCH   8   9
ENDBRANCH   5   8
TORSDOF 7
ENDMDL
MODEL      150
REMARK 921   NORMALIZED FREE ENERGY PREDICTED BY IDOCK:   -5.31 KCAL/MOL
REMARK 922        TOTAL FREE ENERGY PREDICTED BY IDOCK:   -8.37 KCAL/MOL
REMARK 923 INTER-LIGAND FREE ENERGY PREDICTED BY IDOCK:   -7.16 KCAL/MOL
REMARK 924 INTRA-LIGAND FREE ENERGY PREDICTED BY IDOCK:   -1.21 KCAL/MOL
REMARK 927      BINDING AFFINITY PREDICTED BY RF-SCORE:    0.00 PKD
ROOT
HETATM    1 CL   UNL     1     -10.765  17.344  68.542  1.00  0.00    -0.324 Cl 
HETATM    2  C   UNL     1     -11.363  15.928  69.315  1.00  0.00    -0.355 A  
HETATM    3  C   UNL     1     -11.489  15.900  70.701  1.00  0.00    -0.426 A  
HETATM    4  C   UNL     1     -11.935  14.736  71.330  1.00  0.00    -0.404 A  
HETATM    5  C   UNL     1     -12.267  13.593  70.583  1.00  0.00    -0.434 A  
HETATM    6  C   UNL     1     -12.153  13.645  69.188  1.00  0.00    -0.361 A  
HETATM    7  C   UNL     1     -11.701  14.809  68.558  1.00  0.00    -0.347 A  
ENDROOT
BRANCH   5   8
HETATM    8  C   UNL     1     -12.659  12.309  71.282  1.00  0.00    -0.336 C  
BRANCH   8   9
HETATM    9  C   UNL     1     -12.560  11.075  70.383  1.00  0.00    -0.349 C  
BRANCH   9  10
HETATM   10  C   UNL     1     -11.783   9.889  70.995  1.00  0.00    -0.382 C  
BRANCH  10  11
HETATM   11  S   UNL     1     -10.689   9.118  69.729  1.00  0.00    -0.216 SA 
BRANCH  11  12
HETATM   12  C   UNL     1      -9.632  10.313  68.874  1.00  0.00    -0.190 A  
HETATM   13 CL   UNL     1     -11.274  11.098  66.722  1.00  0.00    -0.286 Cl 
HETATM   14  C   UNL     1      -7.696  12.180  67.882  1.00  0.00    -0.134 A  
HETATM   15  C   UNL     1      -9.884  11.121  67.741  1.00  0.00    -0.171 A  
HETATM   16  C   UNL     1      -8.931  12.054  67.277  1.00  0.00    -0.180 A  
HETATM   17  C   UNL     1      -7.386  11.360  68.949  1.00  0.00    -0.114 A  
HETATM   18  C   UNL     1      -8.328  10.440  69.437  1.00  0.00    -0.142 A  
HETATM   19 CL   UNL     1      -7.745   9.466  70.764  1.00  0.00    -0.164 Cl 
ENDBRANCH  11  12
ENDBRANCH  10  11
BRANCH  10  20
HETATM   20  C   UNL     1     -12.507   8.840  71.869  1.00  0.00    -0.372 C  
BRANCH  20  21
HETATM   21  N   UNL     1     -11.687   7.701  72.260  1.00  0.00    -0.314 NA 
HETATM   22  C   UNL     1     -11.975   6.385  72.017  1.00  0.00    -0.326 A  
HETATM   23  N   UNL     1     -11.051   5.594  72.507  1.00  0.00    -0.261 NA 
HETATM   24  C   UNL     1     -10.553   7.739  73.020  1.00  0.00    -0.379 A  
HETATM   25  C   UNL     1     -10.157   6.427  73.132  1.00  0.00    -0.189 A  
ENDBRANCH  20  21
ENDBRANCH  10  20
ENDBRANCH   9  10
ENDBRANCH   8   9
ENDBRANCH   5   8
TORSDOF 7
ENDMDL
MODEL      151
REMARK 921   NORMALIZED FREE ENERGY PREDICTED BY IDOCK:   -5.30 KCAL/MOL
REMARK 922        TOTAL FREE ENERGY PREDICTED BY IDOCK:   -8.35 KCAL/MOL
REMARK 923 INTER-LIGAND FREE ENERGY PREDICTED BY IDOCK:   -7.51 KCAL/MOL
REMARK 924 INTRA-LIGAND FREE ENERGY PREDICTED BY IDOCK:   -0.84 KCAL/MOL
REMARK 927      BINDING AFFINITY PREDICTED BY RF-SCORE:    0.00 PKD
ROOT
HETATM    1 CL   UNL     1      -8.148   8.356  63.569  1.00  0.00    -0.158 Cl 
HETATM    2  C   UNL     1      -9.128   9.712  63.973  1.00  0.00    -0.200 A  
HETATM    3  C   UNL     1      -9.575  10.562  62.966  1.00  0.00    -0.369 A  
HETATM    4  C   UNL     1     -10.336  11.685  63.299  1.00  0.00    -0.444 A  
HETATM    5  C   UNL     1     -10.664  11.964  64.636  1.00  0.00    -0.356 A  
HETATM    6  C   UNL     1     -10.223  11.086  65.634  1.00  0.00    -0.318 A  
HETATM    7  C   UNL     1      -9.456   9.964  65.302  1.00  0.00    -0.331 A  
ENDROOT
BRANCH   5   8
HETATM    8  C   UNL     1     -11.409  13.233  64.993  1.00  0.00    -0.326 C  
BRANCH   8   9
HETATM    9  C   UNL     1     -11.793  13.316  66.472  1.00  0.00    -0.450 C  
BRANCH   9  10
HETATM   10  C   UNL     1     -11.356  14.615  67.183  1.00  0.00    -0.356 C  
BRANCH  10  11
HETATM   11  S   UNL     1     -10.357  15.664  66.045  1.00  0.00    -0.357 SA 
BRANCH  11  12
HETATM   12  C   UNL     1      -9.006  16.535  66.877  1.00  0.00    -0.219 A  
HETATM   13 CL   UNL     1      -7.315  14.407  67.619  1.00  0.00    -0.181 Cl 
HETATM   14  C   UNL     1      -7.053  18.290  68.031  1.00  0.00    -0.230 A  
HETATM   15  C   UNL     1      -7.801  16.050  67.436  1.00  0.00    -0.161 A  
HETATM   16  C   UNL     1      -6.837  16.927  67.979  1.00  0.00    -0.155 A  
HETATM   17  C   UNL     1      -8.247  18.796  67.557  1.00  0.00    -0.278 A  
HETATM   18  C   UNL     1      -9.210  17.942  66.995  1.00  0.00    -0.260 A  
HETATM   19 CL   UNL     1     -10.669  18.757  66.487  1.00  0.00    -0.396 Cl 
ENDBRANCH  11  12
ENDBRANCH  10  11
BRANCH  10  20
HETATM   20  C   UNL     1     -10.772  14.571  68.613  1.00  0.00    -0.253 C  
BRANCH  20  21
HETATM   21  N   UNL     1     -11.766  14.582  69.678  1.00  0.00    -0.289 NA 
HETATM   22  C   UNL     1     -12.159  15.679  70.395  1.00  0.00    -0.394 A  
HETATM   23  N   UNL     1     -13.059  15.364  71.297  1.00  0.00    -0.463 NA 
HETATM   24  C   UNL     1     -12.396  13.494  70.212  1.00  0.00    -0.300 A  
HETATM   25  C   UNL     1     -13.218  14.005  71.189  1.00  0.00    -0.267 A  
ENDBRANCH  20  21
ENDBRANCH  10  20
ENDBRANCH   9  10
ENDBRANCH   8   9
ENDBRANCH   5   8
TORSDOF 7
ENDMDL
MODEL      152
REMARK 921   NORMALIZED FREE ENERGY PREDICTED BY IDOCK:   -5.29 KCAL/MOL
REMARK 922        TOTAL FREE ENERGY PREDICTED BY IDOCK:   -8.34 KCAL/MOL
REMARK 923 INTER-LIGAND FREE ENERGY PREDICTED BY IDOCK:   -7.25 KCAL/MOL
REMARK 924 INTRA-LIGAND FREE ENERGY PREDICTED BY IDOCK:   -1.08 KCAL/MOL
REMARK 927      BINDING AFFINITY PREDICTED BY RF-SCORE:    0.00 PKD
ROOT
HETATM    1 CL   UNL     1     -11.530   5.201  72.983  1.00  0.00    -0.382 Cl 
HETATM    2  C   UNL     1     -11.491   6.782  72.306  1.00  0.00    -0.276 A  
HETATM    3  C   UNL     1     -12.539   7.211  71.497  1.00  0.00    -0.427 A  
HETATM    4  C   UNL     1     -12.486   8.480  70.915  1.00  0.00    -0.004 A  
HETATM    5  C   UNL     1     -11.393   9.333  71.141  1.00  0.00    -0.412 A  
HETATM    6  C   UNL     1     -10.357   8.892  71.974  1.00  0.00    -0.378 A  
HETATM    7  C   UNL     1     -10.406   7.619  72.553  1.00  0.00    -0.310 A  
ENDROOT
BRANCH   5   8
HETATM    8  C   UNL     1     -11.303  10.667  70.431  1.00  0.00    -0.389 C  
BRANCH   8   9
HETATM    9  C   UNL     1     -11.507  10.564  68.918  1.00  0.00    -0.292 C  
BRANCH   9  10
HETATM   10  C   UNL     1     -10.208  10.607  68.084  1.00  0.00    -0.168 C  
BRANCH  10  11
HETATM   11  S   UNL     1     -10.560  11.204  66.378  1.00  0.00    -0.245 SA 
BRANCH  11  12
HETATM   12  C   UNL     1     -10.420  13.000  66.206  1.00  0.00    -0.276 A  
HETATM   13 CL   UNL     1      -8.434  13.610  68.110  1.00  0.00    -0.167 Cl 
HETATM   14  C   UNL     1     -10.450  15.795  65.566  1.00  0.00    -0.425 A  
HETATM   15  C   UNL     1      -9.554  13.922  66.838  1.00  0.00    -0.269 A  
HETATM   16  C   UNL     1      -9.563  15.293  66.497  1.00  0.00    -0.294 A  
HETATM   17  C   UNL     1     -11.358  14.938  64.975  1.00  0.00    -0.398 A  
HETATM   18  C   UNL     1     -11.351  13.569  65.288  1.00  0.00    -0.290 A  
HETATM   19 CL   UNL     1     -12.594  12.651  64.473  1.00  0.00    -0.514 Cl 
ENDBRANCH  11  12
ENDBRANCH  10  11
BRANCH  10  20
HETATM   20  C   UNL     1      -9.223   9.416  68.103  1.00  0.00    -0.130 C  
BRANCH  20  21
HETATM   21  N   UNL     1      -9.851   8.103  68.042  1.00  0.00    -0.162 NA 
HETATM   22  C   UNL     1      -9.663   7.083  68.934  1.00  0.00    -0.144 A  
HETATM   23  N   UNL     1     -10.355   6.020  68.599  1.00  0.00    -0.191 NA 
HETATM   24  C   UNL     1     -10.649   7.630  67.039  1.00  0.00    -0.336 A  
HETATM   25  C   UNL     1     -10.978   6.350  67.422  1.00  0.00    -0.376 A  
ENDBRANCH  20  21
ENDBRANCH  10  20
ENDBRANCH   9  10
ENDBRANCH   8   9
ENDBRANCH   5   8
TORSDOF 7
ENDMDL
MODEL      153
REMARK 921   NORMALIZED FREE ENERGY PREDICTED BY IDOCK:   -5.29 KCAL/MOL
REMARK 922        TOTAL FREE ENERGY PREDICTED BY IDOCK:   -8.33 KCAL/MOL
REMARK 923 INTER-LIGAND FREE ENERGY PREDICTED BY IDOCK:   -7.15 KCAL/MOL
REMARK 924 INTRA-LIGAND FREE ENERGY PREDICTED BY IDOCK:   -1.18 KCAL/MOL
REMARK 927      BINDING AFFINITY PREDICTED BY RF-SCORE:    0.00 PKD
ROOT
HETATM    1 CL   UNL     1      -8.755   6.529  69.352  1.00  0.00    -0.133 Cl 
HETATM    2  C   UNL     1      -8.466   8.159  68.880  1.00  0.00    -0.130 A  
HETATM    3  C   UNL     1      -8.419   9.158  69.847  1.00  0.00    -0.151 A  
HETATM    4  C   UNL     1      -8.225  10.485  69.459  1.00  0.00    -0.092 A  
HETATM    5  C   UNL     1      -8.068  10.826  68.105  1.00  0.00    -0.117 A  
HETATM    6  C   UNL     1      -8.098   9.805  67.147  1.00  0.00    -0.116 A  
HETATM    7  C   UNL     1      -8.298   8.476  67.535  1.00  0.00    -0.128 A  
ENDROOT
BRANCH   5   8
HETATM    8  C   UNL     1      -7.952  12.277  67.689  1.00  0.00    -0.161 C  
BRANCH   8   9
HETATM    9  C   UNL     1      -9.306  12.956  67.470  1.00  0.00    -0.190 C  
BRANCH   9  10
HETATM   10  C   UNL     1      -9.590  14.150  68.407  1.00  0.00    -0.225 C  
BRANCH  10  11
HETATM   11  S   UNL     1     -11.404  14.362  68.643  1.00  0.00    -0.291 SA 
BRANCH  11  12
HETATM   12  C   UNL     1     -12.107  13.217  69.856  1.00  0.00    -0.308 A  
HETATM   13 CL   UNL     1     -11.621  10.721  68.642  1.00  0.00    -0.365 Cl 
HETATM   14  C   UNL     1     -13.244  11.761  72.048  1.00  0.00    -0.460 A  
HETATM   15  C   UNL     1     -12.138  11.804  69.879  1.00  0.00    -0.287 A  
HETATM   16  C   UNL     1     -12.679  11.098  70.976  1.00  0.00    -0.476 A  
HETATM   17  C   UNL     1     -13.294  13.141  72.031  1.00  0.00    -0.587 A  
HETATM   18  C   UNL     1     -12.743  13.860  70.959  1.00  0.00    -0.357 A  
HETATM   19 CL   UNL     1     -12.934  15.591  71.095  1.00  0.00    -0.533 Cl 
ENDBRANCH  11  12
ENDBRANCH  10  11
BRANCH  10  20
HETATM   20  C   UNL     1      -8.857  15.496  68.209  1.00  0.00    -0.179 C  
BRANCH  20  21
HETATM   21  N   UNL     1      -9.529  16.431  67.315  1.00  0.00    -0.225 NA 
HETATM   22  C   UNL     1      -9.699  16.267  65.967  1.00  0.00    -0.339 A  
HETATM   23  N   UNL     1     -10.328  17.289  65.436  1.00  0.00    -0.639 NA 
HETATM   24  C   UNL     1     -10.009  17.666  67.643  1.00  0.00    -0.323 A  
HETATM   25  C   UNL     1     -10.531  18.166  66.472  1.00  0.00    -0.341 A  
ENDBRANCH  20  21
ENDBRANCH  10  20
ENDBRANCH   9  10
ENDBRANCH   8   9
ENDBRANCH   5   8
TORSDOF 7
ENDMDL
MODEL      154
REMARK 921   NORMALIZED FREE ENERGY PREDICTED BY IDOCK:   -5.28 KCAL/MOL
REMARK 922        TOTAL FREE ENERGY PREDICTED BY IDOCK:   -8.33 KCAL/MOL
REMARK 923 INTER-LIGAND FREE ENERGY PREDICTED BY IDOCK:   -7.10 KCAL/MOL
REMARK 924 INTRA-LIGAND FREE ENERGY PREDICTED BY IDOCK:   -1.23 KCAL/MOL
REMARK 927      BINDING AFFINITY PREDICTED BY RF-SCORE:    0.00 PKD
ROOT
HETATM    1 CL   UNL     1      -6.135  14.895  68.010  1.00  0.00    -0.148 Cl 
HETATM    2  C   UNL     1      -7.747  14.337  67.779  1.00  0.00    -0.163 A  
HETATM    3  C   UNL     1      -8.813  15.104  68.238  1.00  0.00    -0.173 A  
HETATM    4  C   UNL     1     -10.118  14.631  68.086  1.00  0.00    -0.224 A  
HETATM    5  C   UNL     1     -10.371  13.394  67.469  1.00  0.00    -0.226 A  
HETATM    6  C   UNL     1      -9.287  12.645  66.995  1.00  0.00    -0.220 A  
HETATM    7  C   UNL     1      -7.978  13.116  67.152  1.00  0.00    -0.083 A  
ENDROOT
BRANCH   5   8
HETATM    8  C   UNL     1     -11.782  12.849  67.394  1.00  0.00    -0.428 C  
BRANCH   8   9
HETATM    9  C   UNL     1     -11.976  11.557  68.190  1.00  0.00    -0.206 C  
BRANCH   9  10
HETATM   10  C   UNL     1     -11.487  11.618  69.653  1.00  0.00    -0.288 C  
BRANCH  10  11
HETATM   11  S   UNL     1     -10.124  10.409  69.925  1.00  0.00     0.012 SA 
BRANCH  11  12
HETATM   12  C   UNL     1     -10.500   8.755  69.292  1.00  0.00    -0.219 A  
HETATM   13 CL   UNL     1      -9.776   8.996  66.579  1.00  0.00    -0.286 Cl 
HETATM   14  C   UNL     1     -11.143   6.020  68.722  1.00  0.00    -0.329 A  
HETATM   15  C   UNL     1     -10.310   8.194  68.009  1.00  0.00    -0.211 A  
HETATM   16  C   UNL     1     -10.608   6.838  67.747  1.00  0.00    -0.307 A  
HETATM   17  C   UNL     1     -11.406   6.549  69.970  1.00  0.00    -0.472 A  
HETATM   18  C   UNL     1     -11.098   7.888  70.255  1.00  0.00    -0.229 A  
HETATM   19 CL   UNL     1     -11.536   8.388  71.870  1.00  0.00    -0.367 Cl 
ENDBRANCH  11  12
ENDBRANCH  10  11
BRANCH  10  20
HETATM   20  C   UNL     1     -12.499  11.641  70.821  1.00  0.00    -0.330 C  
BRANCH  20  21
HETATM   21  N   UNL     1     -12.798  12.968  71.342  1.00  0.00    -0.344 NA 
HETATM   22  C   UNL     1     -13.576  13.243  72.434  1.00  0.00    -0.594 A  
HETATM   23  N   UNL     1     -13.670  14.535  72.642  1.00  0.00    -0.523 NA 
HETATM   24  C   UNL     1     -12.445  14.161  70.778  1.00  0.00    -0.366 A  
HETATM   25  C   UNL     1     -12.966  15.118  71.618  1.00  0.00    -0.375 A  
ENDBRANCH  20  21
ENDBRANCH  10  20
ENDBRANCH   9  10
ENDBRANCH   8   9
ENDBRANCH   5   8
TORSDOF 7
ENDMDL
MODEL      155
REMARK 921   NORMALIZED FREE ENERGY PREDICTED BY IDOCK:   -5.28 KCAL/MOL
REMARK 922        TOTAL FREE ENERGY PREDICTED BY IDOCK:   -8.32 KCAL/MOL
REMARK 923 INTER-LIGAND FREE ENERGY PREDICTED BY IDOCK:   -7.46 KCAL/MOL
REMARK 924 INTRA-LIGAND FREE ENERGY PREDICTED BY IDOCK:   -0.87 KCAL/MOL
REMARK 927      BINDING AFFINITY PREDICTED BY RF-SCORE:    0.00 PKD
ROOT
HETATM    1 CL   UNL     1     -13.963  15.592  72.304  1.00  0.00    -0.625 Cl 
HETATM    2  C   UNL     1     -13.339  14.132  71.641  1.00  0.00    -0.364 A  
HETATM    3  C   UNL     1     -13.653  12.915  72.237  1.00  0.00    -0.611 A  
HETATM    4  C   UNL     1     -13.113  11.734  71.722  1.00  0.00    -0.480 A  
HETATM    5  C   UNL     1     -12.261  11.757  70.605  1.00  0.00    -0.443 A  
HETATM    6  C   UNL     1     -11.972  12.989  70.005  1.00  0.00    -0.383 A  
HETATM    7  C   UNL     1     -12.509  14.173  70.524  1.00  0.00    -0.431 A  
ENDROOT
BRANCH   5   8
HETATM    8  C   UNL     1     -11.607  10.483  70.114  1.00  0.00    -0.408 C  
BRANCH   8   9
HETATM    9  C   UNL     1     -10.441  10.731  69.155  1.00  0.00    -0.243 C  
BRANCH   9  10
HETATM   10  C   UNL     1     -10.510   9.936  67.832  1.00  0.00    -0.236 C  
BRANCH  10  11
HETATM   11  S   UNL     1      -9.023   8.865  67.648  1.00  0.00    -0.134 SA 
BRANCH  11  12
HETATM   12  C   UNL     1      -9.402   7.222  66.991  1.00  0.00    -0.148 A  
HETATM   13 CL   UNL     1     -11.407   6.339  68.763  1.00  0.00    -0.361 Cl 
HETATM   14  C   UNL     1      -9.753   4.741  65.597  1.00  0.00    -0.188 A  
HETATM   15  C   UNL     1     -10.367   6.269  67.391  1.00  0.00    -0.211 A  
HETATM   16  C   UNL     1     -10.546   5.061  66.681  1.00  0.00    -0.256 A  
HETATM   17  C   UNL     1      -8.755   5.616  65.216  1.00  0.00    -0.120 A  
HETATM   18  C   UNL     1      -8.574   6.830  65.898  1.00  0.00    -0.147 A  
HETATM   19 CL   UNL     1      -7.240   7.786  65.299  1.00  0.00    -0.066 Cl 
ENDBRANCH  11  12
ENDBRANCH  10  11
BRANCH  10  20
HETATM   20  C   UNL     1     -10.900  10.639  66.512  1.00  0.00    -0.099 C  
BRANCH  20  21
HETATM   21  N   UNL     1     -10.736  12.087  66.521  1.00  0.00    -0.248 NA 
HETATM   22  C   UNL     1     -11.746  13.008  66.444  1.00  0.00    -0.390 A  
HETATM   23  N   UNL     1     -11.278  14.233  66.459  1.00  0.00    -0.323 NA 
HETATM   24  C   UNL     1      -9.554  12.770  66.501  1.00  0.00    -0.257 A  
HETATM   25  C   UNL     1      -9.913  14.099  66.499  1.00  0.00    -0.283 A  
ENDBRANCH  20  21
ENDBRANCH  10  20
ENDBRANCH   9  10
ENDBRANCH   8   9
ENDBRANCH   5   8
TORSDOF 7
ENDMDL
MODEL      156
REMARK 921   NORMALIZED FREE ENERGY PREDICTED BY IDOCK:   -5.28 KCAL/MOL
REMARK 922        TOTAL FREE ENERGY PREDICTED BY IDOCK:   -8.32 KCAL/MOL
REMARK 923 INTER-LIGAND FREE ENERGY PREDICTED BY IDOCK:   -7.44 KCAL/MOL
REMARK 924 INTRA-LIGAND FREE ENERGY PREDICTED BY IDOCK:   -0.88 KCAL/MOL
REMARK 927      BINDING AFFINITY PREDICTED BY RF-SCORE:    0.00 PKD
ROOT
HETATM    1 CL   UNL     1     -12.251  14.834  64.278  1.00  0.00    -0.489 Cl 
HETATM    2  C   UNL     1     -11.805  13.508  65.280  1.00  0.00    -0.352 A  
HETATM    3  C   UNL     1     -11.261  12.363  64.706  1.00  0.00    -0.353 A  
HETATM    4  C   UNL     1     -10.938  11.272  65.515  1.00  0.00    -0.199 A  
HETATM    5  C   UNL     1     -11.147  11.316  66.904  1.00  0.00    -0.339 A  
HETATM    6  C   UNL     1     -11.676  12.484  67.467  1.00  0.00    -0.439 A  
HETATM    7  C   UNL     1     -12.006  13.575  66.656  1.00  0.00    -0.452 A  
ENDROOT
BRANCH   5   8
HETATM    8  C   UNL     1     -10.880  10.095  67.758  1.00  0.00    -0.346 C  
BRANCH   8   9
HETATM    9  C   UNL     1     -11.377  10.241  69.197  1.00  0.00    -0.244 C  
BRANCH   9  10
HETATM   10  C   UNL     1     -10.360   9.820  70.280  1.00  0.00    -0.291 C  
BRANCH  10  11
HETATM   11  S   UNL     1      -9.009   8.813  69.535  1.00  0.00    -0.147 SA 
BRANCH  11  12
HETATM   12  C   UNL     1      -9.351   7.036  69.550  1.00  0.00    -0.148 A  
HETATM   13 CL   UNL     1     -10.633   6.673  67.067  1.00  0.00    -0.370 Cl 
HETATM   14  C   UNL     1      -9.625   4.208  69.935  1.00  0.00    -0.282 A  
HETATM   15  C   UNL     1      -9.929   6.200  68.568  1.00  0.00    -0.147 A  
HETATM   16  C   UNL     1     -10.037   4.805  68.759  1.00  0.00    -0.128 A  
HETATM   17  C   UNL     1      -9.117   4.999  70.946  1.00  0.00    -0.181 A  
HETATM   18  C   UNL     1      -8.985   6.386  70.766  1.00  0.00    -0.144 A  
HETATM   19 CL   UNL     1      -8.361   7.225  72.165  1.00  0.00    -0.111 Cl 
ENDBRANCH  11  12
ENDBRANCH  10  11
BRANCH  10  20
HETATM   20  C   UNL     1     -10.841   9.254  71.635  1.00  0.00    -0.348 C  
BRANCH  20  21
HETATM   21  N   UNL     1     -12.190   8.702  71.620  1.00  0.00    -0.315 NA 
HETATM   22  C   UNL     1     -13.329   9.360  72.000  1.00  0.00    -0.450 A  
HETATM   23  N   UNL     1     -14.385   8.591  71.889  1.00  0.00    -0.450 NA 
HETATM   24  C   UNL     1     -12.538   7.414  71.327  1.00  0.00    -0.340 A  
HETATM   25  C   UNL     1     -13.906   7.377  71.466  1.00  0.00    -0.374 A  
ENDBRANCH  20  21
ENDBRANCH  10  20
ENDBRANCH   9  10
ENDBRANCH   8   9
ENDBRANCH   5   8
TORSDOF 7
ENDMDL
MODEL      157
REMARK 921   NORMALIZED FREE ENERGY PREDICTED BY IDOCK:   -5.27 KCAL/MOL
REMARK 922        TOTAL FREE ENERGY PREDICTED BY IDOCK:   -8.31 KCAL/MOL
REMARK 923 INTER-LIGAND FREE ENERGY PREDICTED BY IDOCK:   -7.17 KCAL/MOL
REMARK 924 INTRA-LIGAND FREE ENERGY PREDICTED BY IDOCK:   -1.14 KCAL/MOL
REMARK 927      BINDING AFFINITY PREDICTED BY RF-SCORE:    0.00 PKD
ROOT
HETATM    1 CL   UNL     1      -8.965   6.316  68.430  1.00  0.00    -0.117 Cl 
HETATM    2  C   UNL     1      -9.113   7.932  67.857  1.00  0.00    -0.131 A  
HETATM    3  C   UNL     1      -8.527   8.972  68.571  1.00  0.00    -0.128 A  
HETATM    4  C   UNL     1      -8.683  10.287  68.127  1.00  0.00    -0.123 A  
HETATM    5  C   UNL     1      -9.416  10.574  66.964  1.00  0.00    -0.188 A  
HETATM    6  C   UNL     1      -9.982   9.513  66.246  1.00  0.00    -0.344 A  
HETATM    7  C   UNL     1      -9.831   8.196  66.694  1.00  0.00    -0.331 A  
ENDROOT
BRANCH   5   8
HETATM    8  C   UNL     1      -9.657  12.009  66.545  1.00  0.00    -0.234 C  
BRANCH   8   9
HETATM    9  C   UNL     1      -8.723  13.007  67.232  1.00  0.00    -0.209 C  
BRANCH   9  10
HETATM   10  C   UNL     1      -9.379  13.842  68.354  1.00  0.00    -0.190 C  
BRANCH  10  11
HETATM   11  S   UNL     1     -11.213  13.687  68.279  1.00  0.00    -0.292 SA 
BRANCH  11  12
HETATM   12  C   UNL     1     -11.984  13.522  69.909  1.00  0.00    -0.348 A  
HETATM   13 CL   UNL     1     -11.866  16.166  70.875  1.00  0.00    -0.380 Cl 
HETATM   14  C   UNL     1     -13.322  12.848  72.354  1.00  0.00    -0.526 A  
HETATM   15  C   UNL     1     -12.286  14.495  70.889  1.00  0.00    -0.345 A  
HETATM   16  C   UNL     1     -12.968  14.154  72.078  1.00  0.00    -0.444 A  
HETATM   17  C   UNL     1     -12.983  11.858  71.452  1.00  0.00    -0.385 A  
HETATM   18  C   UNL     1     -12.324  12.181  70.255  1.00  0.00    -0.191 A  
HETATM   19 CL   UNL     1     -11.945  10.796  69.261  1.00  0.00    -0.361 Cl 
ENDBRANCH  11  12
ENDBRANCH  10  11
BRANCH  10  20
HETATM   20  C   UNL     1      -8.918  15.291  68.628  1.00  0.00    -0.193 C  
BRANCH  20  21
HETATM   21  N   UNL     1      -9.510  16.295  67.753  1.00  0.00    -0.220 NA 
HETATM   22  C   UNL     1      -9.319  16.392  66.401  1.00  0.00    -0.292 A  
HETATM   23  N   UNL     1      -9.974  17.412  65.898  1.00  0.00    -0.541 NA 
HETATM   24  C   UNL     1     -10.267  17.365  68.139  1.00  0.00    -0.350 A  
HETATM   25  C   UNL     1     -10.572  18.023  66.970  1.00  0.00    -0.308 A  
ENDBRANCH  20  21
ENDBRANCH  10  20
ENDBRANCH   9  10
ENDBRANCH   8   9
ENDBRANCH   5   8
TORSDOF 7
ENDMDL
MODEL      158
REMARK 921   NORMALIZED FREE ENERGY PREDICTED BY IDOCK:   -5.26 KCAL/MOL
REMARK 922        TOTAL FREE ENERGY PREDICTED BY IDOCK:   -8.30 KCAL/MOL
REMARK 923 INTER-LIGAND FREE ENERGY PREDICTED BY IDOCK:   -7.03 KCAL/MOL
REMARK 924 INTRA-LIGAND FREE ENERGY PREDICTED BY IDOCK:   -1.27 KCAL/MOL
REMARK 927      BINDING AFFINITY PREDICTED BY RF-SCORE:    0.00 PKD
ROOT
HETATM    1 CL   UNL     1     -11.634  12.805  63.554  1.00  0.00    -0.562 Cl 
HETATM    2  C   UNL     1     -11.433  12.233  65.165  1.00  0.00    -0.341 A  
HETATM    3  C   UNL     1     -11.997  12.941  66.222  1.00  0.00    -0.472 A  
HETATM    4  C   UNL     1     -11.799  12.498  67.532  1.00  0.00    -0.389 A  
HETATM    5  C   UNL     1     -11.044  11.344  67.797  1.00  0.00    -0.323 A  
HETATM    6  C   UNL     1     -10.501  10.633  66.720  1.00  0.00    -0.303 A  
HETATM    7  C   UNL     1     -10.695  11.078  65.408  1.00  0.00    -0.222 A  
ENDROOT
BRANCH   5   8
HETATM    8  C   UNL     1     -10.758  10.927  69.224  1.00  0.00    -0.271 C  
BRANCH   8   9
HETATM    9  C   UNL     1     -10.607   9.414  69.396  1.00  0.00    -0.235 C  
BRANCH   9  10
HETATM   10  C   UNL     1      -9.765   8.982  70.617  1.00  0.00    -0.234 C  
BRANCH  10  11
HETATM   11  S   UNL     1      -8.592   7.643  70.145  1.00  0.00    -0.141 SA 
BRANCH  11  12
HETATM   12  C   UNL     1      -8.859   7.015  68.468  1.00  0.00    -0.124 A  
HETATM   13 CL   UNL     1      -7.411   8.870  66.919  1.00  0.00    -0.083 Cl 
HETATM   14  C   UNL     1      -9.454   5.658  66.014  1.00  0.00    -0.129 A  
HETATM   15  C   UNL     1      -8.353   7.460  67.226  1.00  0.00    -0.119 A  
HETATM   16  C   UNL     1      -8.634   6.769  66.027  1.00  0.00    -0.149 A  
HETATM   17  C   UNL     1     -10.023   5.231  67.198  1.00  0.00    -0.211 A  
HETATM   18  C   UNL     1      -9.740   5.895  68.403  1.00  0.00    -0.129 A  
HETATM   19 CL   UNL     1     -10.578   5.237  69.787  1.00  0.00    -0.351 Cl 
ENDBRANCH  11  12
ENDBRANCH  10  11
BRANCH  10  20
HETATM   20  C   UNL     1     -10.437   8.725  71.984  1.00  0.00    -0.344 C  
BRANCH  20  21
HETATM   21  N   UNL     1     -11.885   8.563  71.931  1.00  0.00    -0.316 NA 
HETATM   22  C   UNL     1     -12.550   7.427  71.559  1.00  0.00    -0.367 A  
HETATM   23  N   UNL     1     -13.850   7.599  71.598  1.00  0.00    -0.392 NA 
HETATM   24  C   UNL     1     -12.819   9.536  72.141  1.00  0.00    -0.389 A  
HETATM   25  C   UNL     1     -14.031   8.909  71.963  1.00  0.00    -0.437 A  
ENDBRANCH  20  21
ENDBRANCH  10  20
ENDBRANCH   9  10
ENDBRANCH   8   9
ENDBRANCH   5   8
TORSDOF 7
ENDMDL
MODEL      159
REMARK 921   NORMALIZED FREE ENERGY PREDICTED BY IDOCK:   -5.26 KCAL/MOL
REMARK 922        TOTAL FREE ENERGY PREDICTED BY IDOCK:   -8.30 KCAL/MOL
REMARK 923 INTER-LIGAND FREE ENERGY PREDICTED BY IDOCK:   -7.35 KCAL/MOL
REMARK 924 INTRA-LIGAND FREE ENERGY PREDICTED BY IDOCK:   -0.94 KCAL/MOL
REMARK 927      BINDING AFFINITY PREDICTED BY RF-SCORE:    0.00 PKD
ROOT
HETATM    1 CL   UNL     1      -9.245   4.067  73.105  1.00  0.00    -0.120 Cl 
HETATM    2  C   UNL     1     -10.163   5.505  72.885  1.00  0.00    -0.186 A  
HETATM    3  C   UNL     1     -11.528   5.419  72.628  1.00  0.00    -0.305 A  
HETATM    4  C   UNL     1     -12.264   6.585  72.409  1.00  0.00    -0.097 A  
HETATM    5  C   UNL     1     -11.648   7.847  72.452  1.00  0.00    -0.436 A  
HETATM    6  C   UNL     1     -10.277   7.916  72.732  1.00  0.00    -0.380 A  
HETATM    7  C   UNL     1      -9.538   6.748  72.946  1.00  0.00    -0.167 A  
ENDROOT
BRANCH   5   8
HETATM    8  C   UNL     1     -12.436   9.096  72.121  1.00  0.00    -0.436 C  
BRANCH   8   9
HETATM    9  C   UNL     1     -12.502   9.393  70.622  1.00  0.00    -0.042 C  
BRANCH   9  10
HETATM   10  C   UNL     1     -11.284  10.158  70.059  1.00  0.00    -0.299 C  
BRANCH  10  11
HETATM   11  S   UNL     1     -11.836  11.480  68.901  1.00  0.00    -0.312 SA 
BRANCH  11  12
HETATM   12  C   UNL     1     -12.002  13.100  69.692  1.00  0.00    -0.306 A  
HETATM   13 CL   UNL     1     -13.341  12.441  72.082  1.00  0.00    -0.601 Cl 
HETATM   14  C   UNL     1     -11.982  15.810  70.627  1.00  0.00    -0.426 A  
HETATM   15  C   UNL     1     -12.534  13.461  70.951  1.00  0.00    -0.359 A  
HETATM   16  C   UNL     1     -12.497  14.796  71.410  1.00  0.00    -0.401 A  
HETATM   17  C   UNL     1     -11.513  15.509  69.364  1.00  0.00    -0.345 A  
HETATM   18  C   UNL     1     -11.524  14.184  68.898  1.00  0.00    -0.293 A  
HETATM   19 CL   UNL     1     -10.929  14.003  67.266  1.00  0.00    -0.295 Cl 
ENDBRANCH  11  12
ENDBRANCH  10  11
BRANCH  10  20
HETATM   20  C   UNL     1     -10.047   9.393  69.537  1.00  0.00    -0.205 C  
BRANCH  20  21
HETATM   21  N   UNL     1     -10.353   8.233  68.709  1.00  0.00    -0.211 NA 
HETATM   22  C   UNL     1     -10.651   8.259  67.373  1.00  0.00    -0.253 A  
HETATM   23  N   UNL     1     -10.895   7.054  66.914  1.00  0.00    -0.346 NA 
HETATM   24  C   UNL     1     -10.495   6.944  69.137  1.00  0.00    -0.207 A  
HETATM   25  C   UNL     1     -10.797   6.225  68.003  1.00  0.00    -0.326 A  
ENDBRANCH  20  21
ENDBRANCH  10  20
ENDBRANCH   9  10
ENDBRANCH   8   9
ENDBRANCH   5   8
TORSDOF 7
ENDMDL
MODEL      160
REMARK 921   NORMALIZED FREE ENERGY PREDICTED BY IDOCK:   -5.26 KCAL/MOL
REMARK 922        TOTAL FREE ENERGY PREDICTED BY IDOCK:   -8.29 KCAL/MOL
REMARK 923 INTER-LIGAND FREE ENERGY PREDICTED BY IDOCK:   -7.38 KCAL/MOL
REMARK 924 INTRA-LIGAND FREE ENERGY PREDICTED BY IDOCK:   -0.91 KCAL/MOL
REMARK 927      BINDING AFFINITY PREDICTED BY RF-SCORE:    0.00 PKD
ROOT
HETATM    1 CL   UNL     1     -12.179  13.065  63.665  1.00  0.00    -0.565 Cl 
HETATM    2  C   UNL     1     -11.383  12.014  64.771  1.00  0.00    -0.313 A  
HETATM    3  C   UNL     1     -10.551  11.008  64.288  1.00  0.00    -0.402 A  
HETATM    4  C   UNL     1      -9.939  10.130  65.185  1.00  0.00    -0.379 A  
HETATM    5  C   UNL     1     -10.144  10.252  66.569  1.00  0.00    -0.290 A  
HETATM    6  C   UNL     1     -10.967  11.283  67.038  1.00  0.00    -0.352 A  
HETATM    7  C   UNL     1     -11.586  12.159  66.140  1.00  0.00    -0.418 A  
ENDROOT
BRANCH   5   8
HETATM    8  C   UNL     1      -9.550   9.239  67.524  1.00  0.00    -0.184 C  
BRANCH   8   9
HETATM    9  C   UNL     1      -8.929   9.871  68.771  1.00  0.00    -0.140 C  
BRANCH   9  10
HETATM   10  C   UNL     1      -9.538   9.398  70.109  1.00  0.00    -0.238 C  
BRANCH  10  11
HETATM   11  S   UNL     1      -8.450   8.141  70.901  1.00  0.00    -0.138 SA 
BRANCH  11  12
HETATM   12  C   UNL     1      -9.359   6.935  71.899  1.00  0.00    -0.141 A  
HETATM   13 CL   UNL     1     -10.745   5.480  69.924  1.00  0.00    -0.393 Cl 
HETATM   14  C   UNL     1     -10.542   5.165  73.819  1.00  0.00    -0.331 A  
HETATM   15  C   UNL     1     -10.203   5.869  71.513  1.00  0.00    -0.205 A  
HETATM   16  C   UNL     1     -10.760   4.989  72.467  1.00  0.00    -0.271 A  
HETATM   17  C   UNL     1      -9.778   6.236  74.240  1.00  0.00    -0.269 A  
HETATM   18  C   UNL     1      -9.200   7.109  73.306  1.00  0.00    -0.157 A  
HETATM   19 CL   UNL     1      -8.302   8.423  74.025  1.00  0.00    -0.255 Cl 
ENDBRANCH  11  12
ENDBRANCH  10  11
BRANCH  10  20
HETATM   20  C   UNL     1     -11.036   9.029  70.204  1.00  0.00    -0.233 C  
BRANCH  20  21
HETATM   21  N   UNL     1     -11.870  10.028  70.859  1.00  0.00    -0.339 NA 
HETATM   22  C   UNL     1     -12.815   9.779  71.816  1.00  0.00    -0.434 A  
HETATM   23  N   UNL     1     -13.411  10.884  72.199  1.00  0.00    -0.269 NA 
HETATM   24  C   UNL     1     -11.927  11.360  70.561  1.00  0.00    -0.356 A  
HETATM   25  C   UNL     1     -12.863  11.876  71.427  1.00  0.00    -0.307 A  
ENDBRANCH  20  21
ENDBRANCH  10  20
ENDBRANCH   9  10
ENDBRANCH   8   9
ENDBRANCH   5   8
TORSDOF 7
ENDMDL
MODEL      161
REMARK 921   NORMALIZED FREE ENERGY PREDICTED BY IDOCK:   -5.25 KCAL/MOL
REMARK 922        TOTAL FREE ENERGY PREDICTED BY IDOCK:   -8.28 KCAL/MOL
REMARK 923 INTER-LIGAND FREE ENERGY PREDICTED BY IDOCK:   -7.06 KCAL/MOL
REMARK 924 INTRA-LIGAND FREE ENERGY PREDICTED BY IDOCK:   -1.22 KCAL/MOL
REMARK 927      BINDING AFFINITY PREDICTED BY RF-SCORE:    0.00 PKD
ROOT
HETATM    1 CL   UNL     1     -12.563  12.294  63.267  1.00  0.00    -0.558 Cl 
HETATM    2  C   UNL     1     -11.703  12.107  64.746  1.00  0.00    -0.327 A  
HETATM    3  C   UNL     1     -10.534  11.351  64.771  1.00  0.00    -0.366 A  
HETATM    4  C   UNL     1      -9.859  11.166  65.980  1.00  0.00    -0.270 A  
HETATM    5  C   UNL     1     -10.339  11.738  67.170  1.00  0.00    -0.242 A  
HETATM    6  C   UNL     1     -11.505  12.512  67.122  1.00  0.00    -0.414 A  
HETATM    7  C   UNL     1     -12.185  12.694  65.912  1.00  0.00    -0.375 A  
ENDROOT
BRANCH   5   8
HETATM    8  C   UNL     1      -9.651  11.453  68.488  1.00  0.00    -0.190 C  
BRANCH   8   9
HETATM    9  C   UNL     1      -8.618  10.328  68.403  1.00  0.00    -0.125 C  
BRANCH   9  10
HETATM   10  C   UNL     1      -9.122   8.948  68.877  1.00  0.00    -0.140 C  
BRANCH  10  11
HETATM   11  S   UNL     1      -9.467   8.976  70.686  1.00  0.00    -0.256 SA 
BRANCH  11  12
HETATM   12  C   UNL     1     -11.201   8.649  71.088  1.00  0.00    -0.272 A  
HETATM   13 CL   UNL     1     -12.293  11.246  71.100  1.00  0.00    -0.457 Cl 
HETATM   14  C   UNL     1     -13.846   7.698  71.654  1.00  0.00    -0.480 A  
HETATM   15  C   UNL     1     -12.305   9.525  71.191  1.00  0.00    -0.326 A  
HETATM   16  C   UNL     1     -13.607   9.042  71.447  1.00  0.00    -0.331 A  
HETATM   17  C   UNL     1     -12.783   6.817  71.628  1.00  0.00    -0.360 A  
HETATM   18  C   UNL     1     -11.484   7.277  71.357  1.00  0.00    -0.266 A  
HETATM   19 CL   UNL     1     -10.266   6.026  71.404  1.00  0.00    -0.242 Cl 
ENDBRANCH  11  12
ENDBRANCH  10  11
BRANCH  10  20
HETATM   20  C   UNL     1      -8.404   7.653  68.432  1.00  0.00    -0.125 C  
BRANCH  20  21
HETATM   21  N   UNL     1      -9.211   6.761  67.609  1.00  0.00    -0.119 NA 
HETATM   22  C   UNL     1     -10.576   6.675  67.622  1.00  0.00    -0.263 A  
HETATM   23  N   UNL     1     -11.007   5.767  66.779  1.00  0.00    -0.248 NA 
HETATM   24  C   UNL     1      -8.746   5.792  66.766  1.00  0.00    -0.116 A  
HETATM   25  C   UNL     1      -9.876   5.212  66.237  1.00  0.00    -0.192 A  
ENDBRANCH  20  21
ENDBRANCH  10  20
ENDBRANCH   9  10
ENDBRANCH   8   9
ENDBRANCH   5   8
TORSDOF 7
ENDMDL
MODEL      162
REMARK 921   NORMALIZED FREE ENERGY PREDICTED BY IDOCK:   -5.24 KCAL/MOL
REMARK 922        TOTAL FREE ENERGY PREDICTED BY IDOCK:   -8.26 KCAL/MOL
REMARK 923 INTER-LIGAND FREE ENERGY PREDICTED BY IDOCK:   -7.28 KCAL/MOL
REMARK 924 INTRA-LIGAND FREE ENERGY PREDICTED BY IDOCK:   -0.98 KCAL/MOL
REMARK 927      BINDING AFFINITY PREDICTED BY RF-SCORE:    0.00 PKD
ROOT
HETATM    1 CL   UNL     1     -10.687  17.969  67.517  1.00  0.00    -0.400 Cl 
HETATM    2  C   UNL     1     -10.969  16.339  67.989  1.00  0.00    -0.328 A  
HETATM    3  C   UNL     1     -10.708  15.307  67.092  1.00  0.00    -0.316 A  
HETATM    4  C   UNL     1     -10.976  13.988  67.462  1.00  0.00    -0.288 A  
HETATM    5  C   UNL     1     -11.497  13.685  68.731  1.00  0.00    -0.346 A  
HETATM    6  C   UNL     1     -11.734  14.734  69.629  1.00  0.00    -0.354 A  
HETATM    7  C   UNL     1     -11.471  16.057  69.256  1.00  0.00    -0.350 A  
ENDROOT
BRANCH   5   8
HETATM    8  C   UNL     1     -11.871  12.262  69.087  1.00  0.00    -0.355 C  
BRANCH   8   9
HETATM    9  C   UNL     1     -11.466  11.243  68.019  1.00  0.00    -0.369 C  
BRANCH   9  10
HETATM   10  C   UNL     1     -10.418  10.206  68.478  1.00  0.00    -0.195 C  
BRANCH  10  11
HETATM   11  S   UNL     1     -10.411  10.069  70.315  1.00  0.00    -0.222 SA 
BRANCH  11  12
HETATM   12  C   UNL     1     -11.844   9.180  70.971  1.00  0.00    -0.292 A  
HETATM   13 CL   UNL     1     -13.379  11.278  72.058  1.00  0.00    -0.513 Cl 
HETATM   14  C   UNL     1     -13.954   7.416  71.784  1.00  0.00    -0.469 A  
HETATM   15  C   UNL     1     -13.020   9.657  71.595  1.00  0.00    -0.407 A  
HETATM   16  C   UNL     1     -14.062   8.781  71.969  1.00  0.00    -0.508 A  
HETATM   17  C   UNL     1     -12.793   6.904  71.239  1.00  0.00    -0.336 A  
HETATM   18  C   UNL     1     -11.754   7.762  70.843  1.00  0.00    -0.265 A  
HETATM   19 CL   UNL     1     -10.353   6.931  70.212  1.00  0.00    -0.212 Cl 
ENDBRANCH  11  12
ENDBRANCH  10  11
BRANCH  10  20
HETATM   20  C   UNL     1      -8.993  10.210  67.879  1.00  0.00    -0.128 C  
BRANCH  20  21
HETATM   21  N   UNL     1      -8.760   9.203  66.852  1.00  0.00    -0.122 NA 
HETATM   22  C   UNL     1      -8.405   7.900  67.073  1.00  0.00    -0.117 A  
HETATM   23  N   UNL     1      -8.253   7.248  65.945  1.00  0.00    -0.125 NA 
HETATM   24  C   UNL     1      -8.754   9.408  65.501  1.00  0.00    -0.163 A  
HETATM   25  C   UNL     1      -8.471   8.176  64.958  1.00  0.00    -0.099 A  
ENDBRANCH  20  21
ENDBRANCH  10  20
ENDBRANCH   9  10
ENDBRANCH   8   9
ENDBRANCH   5   8
TORSDOF 7
ENDMDL
MODEL      163
REMARK 921   NORMALIZED FREE ENERGY PREDICTED BY IDOCK:   -5.23 KCAL/MOL
REMARK 922        TOTAL FREE ENERGY PREDICTED BY IDOCK:   -8.26 KCAL/MOL
REMARK 923 INTER-LIGAND FREE ENERGY PREDICTED BY IDOCK:   -7.05 KCAL/MOL
REMARK 924 INTRA-LIGAND FREE ENERGY PREDICTED BY IDOCK:   -1.21 KCAL/MOL
REMARK 927      BINDING AFFINITY PREDICTED BY RF-SCORE:    0.00 PKD
ROOT
HETATM    1 CL   UNL     1     -10.691  16.219  66.644  1.00  0.00    -0.252 Cl 
HETATM    2  C   UNL     1     -11.122  14.707  67.343  1.00  0.00    -0.326 A  
HETATM    3  C   UNL     1     -11.393  14.630  68.706  1.00  0.00    -0.302 A  
HETATM    4  C   UNL     1     -11.703  13.395  69.279  1.00  0.00    -0.383 A  
HETATM    5  C   UNL     1     -11.753  12.229  68.497  1.00  0.00    -0.381 A  
HETATM    6  C   UNL     1     -11.499  12.328  67.124  1.00  0.00    -0.419 A  
HETATM    7  C   UNL     1     -11.182  13.564  66.550  1.00  0.00    -0.322 A  
ENDROOT
BRANCH   5   8
HETATM    8  C   UNL     1     -11.998  10.882  69.145  1.00  0.00    -0.359 C  
BRANCH   8   9
HETATM    9  C   UNL     1     -11.433  10.779  70.563  1.00  0.00    -0.367 C  
BRANCH   9  10
HETATM   10  C   UNL     1     -10.849   9.397  70.928  1.00  0.00    -0.322 C  
BRANCH  10  11
HETATM   11  S   UNL     1      -9.441   8.981  69.815  1.00  0.00    -0.183 SA 
BRANCH  11  12
HETATM   12  C   UNL     1      -9.587   7.342  69.061  1.00  0.00    -0.148 A  
HETATM   13 CL   UNL     1      -8.303   5.712  70.966  1.00  0.00    -0.120 Cl 
HETATM   14  C   UNL     1     -10.102   4.943  67.577  1.00  0.00    -0.184 A  
HETATM   15  C   UNL     1      -9.196   6.070  69.536  1.00  0.00    -0.136 A  
HETATM   16  C   UNL     1      -9.476   4.893  68.807  1.00  0.00    -0.202 A  
HETATM   17  C   UNL     1     -10.439   6.173  67.047  1.00  0.00    -0.341 A  
HETATM   18  C   UNL     1     -10.186   7.352  67.766  1.00  0.00    -0.196 A  
HETATM   19 CL   UNL     1     -10.646   8.809  66.920  1.00  0.00    -0.319 Cl 
ENDBRANCH  11  12
ENDBRANCH  10  11
BRANCH  10  20
HETATM   20  C   UNL     1     -11.781   8.190  71.180  1.00  0.00    -0.283 C  
BRANCH  20  21
HETATM   21  N   UNL     1     -11.309   7.256  72.194  1.00  0.00    -0.256 NA 
HETATM   22  C   UNL     1     -11.724   5.961  72.345  1.00  0.00    -0.253 A  
HETATM   23  N   UNL     1     -11.126   5.382  73.359  1.00  0.00    -0.299 NA 
HETATM   24  C   UNL     1     -10.457   7.538  73.224  1.00  0.00    -0.371 A  
HETATM   25  C   UNL     1     -10.331   6.353  73.913  1.00  0.00    -0.322 A  
ENDBRANCH  20  21
ENDBRANCH  10  20
ENDBRANCH   9  10
ENDBRANCH   8   9
ENDBRANCH   5   8
TORSDOF 7
ENDMDL
MODEL      164
REMARK 921   NORMALIZED FREE ENERGY PREDICTED BY IDOCK:   -5.23 KCAL/MOL
REMARK 922        TOTAL FREE ENERGY PREDICTED BY IDOCK:   -8.25 KCAL/MOL
REMARK 923 INTER-LIGAND FREE ENERGY PREDICTED BY IDOCK:   -7.85 KCAL/MOL
REMARK 924 INTRA-LIGAND FREE ENERGY PREDICTED BY IDOCK:   -0.40 KCAL/MOL
REMARK 927      BINDING AFFINITY PREDICTED BY RF-SCORE:    0.00 PKD
ROOT
HETATM    1 CL   UNL     1     -11.271   5.863  72.642  1.00  0.00    -0.320 Cl 
HETATM    2  C   UNL     1     -11.291   7.304  71.703  1.00  0.00    -0.254 A  
HETATM    3  C   UNL     1     -10.784   7.289  70.407  1.00  0.00    -0.253 A  
HETATM    4  C   UNL     1     -10.764   8.469  69.660  1.00  0.00    -0.200 A  
HETATM    5  C   UNL     1     -11.254   9.671  70.196  1.00  0.00    -0.302 A  
HETATM    6  C   UNL     1     -11.779   9.664  71.495  1.00  0.00    -0.472 A  
HETATM    7  C   UNL     1     -11.794   8.483  72.245  1.00  0.00    -0.453 A  
ENDROOT
BRANCH   5   8
HETATM    8  C   UNL     1     -11.140  10.962  69.413  1.00  0.00    -0.317 C  
BRANCH   8   9
HETATM    9  C   UNL     1     -10.765  10.751  67.946  1.00  0.00    -0.282 C  
BRANCH   9  10
HETATM   10  C   UNL     1      -9.733  11.756  67.390  1.00  0.00    -0.178 C  
BRANCH  10  11
HETATM   11  S   UNL     1      -9.827  13.348  68.310  1.00  0.00    -0.224 SA 
BRANCH  11  12
HETATM   12  C   UNL     1      -8.862  14.674  67.545  1.00  0.00    -0.185 A  
HETATM   13 CL   UNL     1     -10.770  15.876  65.855  1.00  0.00    -0.321 Cl 
HETATM   14  C   UNL     1      -7.021  16.678  66.640  1.00  0.00    -0.243 A  
HETATM   15  C   UNL     1      -9.245  15.688  66.637  1.00  0.00    -0.266 A  
HETATM   16  C   UNL     1      -8.335  16.683  66.217  1.00  0.00    -0.360 A  
HETATM   17  C   UNL     1      -6.590  15.665  67.475  1.00  0.00    -0.212 A  
HETATM   18  C   UNL     1      -7.485  14.678  67.918  1.00  0.00    -0.148 A  
HETATM   19 CL   UNL     1      -6.751  13.461  68.933  1.00  0.00    -0.105 Cl 
ENDBRANCH  11  12
ENDBRANCH  10  11
BRANCH  10  20
HETATM   20  C   UNL     1      -9.577  11.961  65.866  1.00  0.00    -0.231 C  
BRANCH  20  21
HETATM   21  N   UNL     1     -10.815  12.271  65.163  1.00  0.00    -0.291 NA 
HETATM   22  C   UNL     1     -12.019  12.555  65.748  1.00  0.00    -0.420 A  
HETATM   23  N   UNL     1     -12.949  12.774  64.849  1.00  0.00    -0.853 NA 
HETATM   24  C   UNL     1     -11.014  12.229  63.812  1.00  0.00    -0.435 A  
HETATM   25  C   UNL     1     -12.334  12.579  63.638  1.00  0.00    -0.522 A  
ENDBRANCH  20  21
ENDBRANCH  10  20
ENDBRANCH   9  10
ENDBRANCH   8   9
ENDBRANCH   5   8
TORSDOF 7
ENDMDL
MODEL      165
REMARK 921   NORMALIZED FREE ENERGY PREDICTED BY IDOCK:   -5.23 KCAL/MOL
REMARK 922        TOTAL FREE ENERGY PREDICTED BY IDOCK:   -8.25 KCAL/MOL
REMARK 923 INTER-LIGAND FREE ENERGY PREDICTED BY IDOCK:   -7.55 KCAL/MOL
REMARK 924 INTRA-LIGAND FREE ENERGY PREDICTED BY IDOCK:   -0.70 KCAL/MOL
REMARK 927      BINDING AFFINITY PREDICTED BY RF-SCORE:    0.00 PKD
ROOT
HETATM    1 CL   UNL     1      -7.901   5.673  69.118  1.00  0.00    -0.088 Cl 
HETATM    2  C   UNL     1      -8.898   7.016  69.522  1.00  0.00    -0.133 A  
HETATM    3  C   UNL     1      -9.335   7.179  70.833  1.00  0.00    -0.160 A  
HETATM    4  C   UNL     1     -10.178   8.246  71.151  1.00  0.00    -0.244 A  
HETATM    5  C   UNL     1     -10.584   9.163  70.167  1.00  0.00    -0.258 A  
HETATM    6  C   UNL     1     -10.118   8.996  68.858  1.00  0.00    -0.207 A  
HETATM    7  C   UNL     1      -9.278   7.923  68.537  1.00  0.00    -0.138 A  
ENDROOT
BRANCH   5   8
HETATM    8  C   UNL     1     -11.571  10.261  70.504  1.00  0.00    -0.424 C  
BRANCH   8   9
HETATM    9  C   UNL     1     -12.265  10.851  69.275  1.00  0.00    -0.240 C  
BRANCH   9  10
HETATM   10  C   UNL     1     -11.862  12.303  68.939  1.00  0.00    -0.303 C  
BRANCH  10  11
HETATM   11  S   UNL     1     -10.661  12.329  67.543  1.00  0.00    -0.223 SA 
BRANCH  11  12
HETATM   12  C   UNL     1     -10.957  13.675  66.369  1.00  0.00    -0.297 A  
HETATM   13 CL   UNL     1     -12.610  12.424  64.461  1.00  0.00    -0.533 Cl 
HETATM   14  C   UNL     1     -11.240  16.072  64.821  1.00  0.00    -0.348 A  
HETATM   15  C   UNL     1     -11.759  13.724  65.206  1.00  0.00    -0.338 A  
HETATM   16  C   UNL     1     -11.910  14.917  64.466  1.00  0.00    -0.404 A  
HETATM   17  C   UNL     1     -10.393  16.046  65.912  1.00  0.00    -0.386 A  
HETATM   18  C   UNL     1     -10.246  14.874  66.671  1.00  0.00    -0.261 A  
HETATM   19 CL   UNL     1      -9.106  15.021  67.987  1.00  0.00    -0.176 Cl 
ENDBRANCH  11  12
ENDBRANCH  10  11
BRANCH  10  20
HETATM   20  C   UNL     1     -11.484  13.295  70.062  1.00  0.00    -0.035 C  
BRANCH  20  21
HETATM   21  N   UNL     1     -12.600  13.729  70.893  1.00  0.00    -0.353 NA 
HETATM   22  C   UNL     1     -13.145  13.027  71.933  1.00  0.00    -0.384 A  
HETATM   23  N   UNL     1     -14.149  13.675  72.475  1.00  0.00    -0.754 NA 
HETATM   24  C   UNL     1     -13.355  14.853  70.715  1.00  0.00    -0.293 A  
HETATM   25  C   UNL     1     -14.287  14.817  71.727  1.00  0.00    -0.569 A  
ENDBRANCH  20  21
ENDBRANCH  10  20
ENDBRANCH   9  10
ENDBRANCH   8   9
ENDBRANCH   5   8
TORSDOF 7
ENDMDL
MODEL      166
REMARK 921   NORMALIZED FREE ENERGY PREDICTED BY IDOCK:   -5.21 KCAL/MOL
REMARK 922        TOTAL FREE ENERGY PREDICTED BY IDOCK:   -8.23 KCAL/MOL
REMARK 923 INTER-LIGAND FREE ENERGY PREDICTED BY IDOCK:   -7.52 KCAL/MOL
REMARK 924 INTRA-LIGAND FREE ENERGY PREDICTED BY IDOCK:   -0.70 KCAL/MOL
REMARK 927      BINDING AFFINITY PREDICTED BY RF-SCORE:    0.00 PKD
ROOT
HETATM    1 CL   UNL     1     -12.305  16.440  74.040  1.00  0.00    -0.625 Cl 
HETATM    2  C   UNL     1     -12.248  15.455  72.630  1.00  0.00    -0.416 A  
HETATM    3  C   UNL     1     -12.971  14.266  72.591  1.00  0.00    -0.526 A  
HETATM    4  C   UNL     1     -12.892  13.448  71.462  1.00  0.00    -0.427 A  
HETATM    5  C   UNL     1     -12.098  13.811  70.361  1.00  0.00    -0.421 A  
HETATM    6  C   UNL     1     -11.394  15.020  70.410  1.00  0.00    -0.309 A  
HETATM    7  C   UNL     1     -11.468  15.838  71.543  1.00  0.00    -0.504 A  
ENDROOT
BRANCH   5   8
HETATM    8  C   UNL     1     -11.946  12.872  69.183  1.00  0.00    -0.308 C  
BRANCH   8   9
HETATM    9  C   UNL     1     -10.492  12.502  68.885  1.00  0.00    -0.109 C  
BRANCH   9  10
HETATM   10  C   UNL     1     -10.047  12.750  67.428  1.00  0.00    -0.219 C  
BRANCH  10  11
HETATM   11  S   UNL     1      -8.266  12.328  67.220  1.00  0.00    -0.184 SA 
BRANCH  11  12
HETATM   12  C   UNL     1      -7.985  10.583  66.830  1.00  0.00    -0.121 A  
HETATM   13 CL   UNL     1     -10.492   9.446  67.433  1.00  0.00    -0.331 Cl 
HETATM   14  C   UNL     1      -7.157   7.959  66.025  1.00  0.00    -0.062 A  
HETATM   15  C   UNL     1      -8.867   9.479  66.859  1.00  0.00    -0.127 A  
HETATM   16  C   UNL     1      -8.454   8.196  66.437  1.00  0.00    -0.133 A  
HETATM   17  C   UNL     1      -6.248   8.997  66.047  1.00  0.00    -0.059 A  
HETATM   18  C   UNL     1      -6.645  10.284  66.444  1.00  0.00    -0.092 A  
HETATM   19 CL   UNL     1      -5.351  11.456  66.444  1.00  0.00    -0.134 Cl 
ENDBRANCH  11  12
ENDBRANCH  10  11
BRANCH  10  20
HETATM   20  C   UNL     1     -10.434  14.057  66.699  1.00  0.00    -0.272 C  
BRANCH  20  21
HETATM   21  N   UNL     1     -11.068  13.866  65.400  1.00  0.00    -0.302 NA 
HETATM   22  C   UNL     1     -12.231  14.453  64.983  1.00  0.00    -0.414 A  
HETATM   23  N   UNL     1     -12.553  14.070  63.770  1.00  0.00    -0.783 NA 
HETATM   24  C   UNL     1     -10.673  12.997  64.424  1.00  0.00    -0.394 A  
HETATM   25  C   UNL     1     -11.587  13.165  63.409  1.00  0.00    -0.252 A  
ENDBRANCH  20  21
ENDBRANCH  10  20
ENDBRANCH   9  10
ENDBRANCH   8   9
ENDBRANCH   5   8
TORSDOF 7
ENDMDL
MODEL      167
REMARK 921   NORMALIZED FREE ENERGY PREDICTED BY IDOCK:   -5.21 KCAL/MOL
REMARK 922        TOTAL FREE ENERGY PREDICTED BY IDOCK:   -8.22 KCAL/MOL
REMARK 923 INTER-LIGAND FREE ENERGY PREDICTED BY IDOCK:   -6.56 KCAL/MOL
REMARK 924 INTRA-LIGAND FREE ENERGY PREDICTED BY IDOCK:   -1.67 KCAL/MOL
REMARK 927      BINDING AFFINITY PREDICTED BY RF-SCORE:    0.00 PKD
ROOT
HETATM    1 CL   UNL     1     -13.758   8.828  72.763  1.00  0.00    -0.343 Cl 
HETATM    2  C   UNL     1     -12.662   9.555  71.654  1.00  0.00    -0.388 A  
HETATM    3  C   UNL     1     -13.144  10.418  70.674  1.00  0.00    -0.293 A  
HETATM    4  C   UNL     1     -12.258  10.975  69.749  1.00  0.00    -0.388 A  
HETATM    5  C   UNL     1     -10.885  10.682  69.798  1.00  0.00    -0.317 A  
HETATM    6  C   UNL     1     -10.414   9.828  70.803  1.00  0.00    -0.339 A  
HETATM    7  C   UNL     1     -11.302   9.265  71.726  1.00  0.00    -0.437 A  
ENDROOT
BRANCH   5   8
HETATM    8  C   UNL     1      -9.950  11.217  68.734  1.00  0.00    -0.207 C  
BRANCH   8   9
HETATM    9  C   UNL     1      -8.739  10.316  68.482  1.00  0.00    -0.130 C  
BRANCH   9  10
HETATM   10  C   UNL     1      -8.772   9.547  67.143  1.00  0.00    -0.132 C  
BRANCH  10  11
HETATM   11  S   UNL     1      -8.267   7.794  67.396  1.00  0.00    -0.124 SA 
BRANCH  11  12
HETATM   12  C   UNL     1      -9.032   7.033  68.850  1.00  0.00    -0.129 A  
HETATM   13 CL   UNL     1      -6.859   6.891  70.638  1.00  0.00    -0.057 Cl 
HETATM   14  C   UNL     1     -10.633   5.903  70.942  1.00  0.00    -0.319 A  
HETATM   15  C   UNL     1      -8.497   6.737  70.125  1.00  0.00    -0.139 A  
HETATM   16  C   UNL     1      -9.302   6.203  71.154  1.00  0.00    -0.175 A  
HETATM   17  C   UNL     1     -11.176   6.115  69.691  1.00  0.00    -0.488 A  
HETATM   18  C   UNL     1     -10.396   6.663  68.660  1.00  0.00    -0.188 A  
HETATM   19 CL   UNL     1     -11.242   6.822  67.140  1.00  0.00    -0.404 Cl 
ENDBRANCH  11  12
ENDBRANCH  10  11
BRANCH  10  20
HETATM   20  C   UNL     1      -8.153  10.163  65.867  1.00  0.00    -0.136 C  
BRANCH  20  21
HETATM   21  N   UNL     1      -9.112  10.785  64.963  1.00  0.00    -0.199 NA 
HETATM   22  C   UNL     1      -9.419  10.353  63.701  1.00  0.00    -0.306 A  
HETATM   23  N   UNL     1     -10.307  11.133  63.132  1.00  0.00    -0.311 NA 
HETATM   24  C   UNL     1      -9.787  11.953  65.174  1.00  0.00    -0.218 A  
HETATM   25  C   UNL     1     -10.548  12.131  64.041  1.00  0.00    -0.389 A  
ENDBRANCH  20  21
ENDBRANCH  10  20
ENDBRANCH   9  10
ENDBRANCH   8   9
ENDBRANCH   5   8
TORSDOF 7
ENDMDL
MODEL      168
REMARK 921   NORMALIZED FREE ENERGY PREDICTED BY IDOCK:   -5.20 KCAL/MOL
REMARK 922        TOTAL FREE ENERGY PREDICTED BY IDOCK:   -8.21 KCAL/MOL
REMARK 923 INTER-LIGAND FREE ENERGY PREDICTED BY IDOCK:   -6.46 KCAL/MOL
REMARK 924 INTRA-LIGAND FREE ENERGY PREDICTED BY IDOCK:   -1.75 KCAL/MOL
REMARK 927      BINDING AFFINITY PREDICTED BY RF-SCORE:    0.00 PKD
ROOT
HETATM    1 CL   UNL     1      -9.800  18.243  67.267  1.00  0.00    -0.312 Cl 
HETATM    2  C   UNL     1      -9.312  16.613  67.525  1.00  0.00    -0.219 A  
HETATM    3  C   UNL     1      -9.176  15.755  66.438  1.00  0.00    -0.347 A  
HETATM    4  C   UNL     1      -8.819  14.422  66.653  1.00  0.00    -0.188 A  
HETATM    5  C   UNL     1      -8.589  13.936  67.951  1.00  0.00    -0.180 A  
HETATM    6  C   UNL     1      -8.711  14.819  69.031  1.00  0.00    -0.139 A  
HETATM    7  C   UNL     1      -9.073  16.153  68.817  1.00  0.00    -0.229 A  
ENDROOT
BRANCH   5   8
HETATM    8  C   UNL     1      -8.295  12.468  68.179  1.00  0.00    -0.175 C  
BRANCH   8   9
HETATM    9  C   UNL     1      -8.630  11.588  66.973  1.00  0.00    -0.161 C  
BRANCH   9  10
HETATM   10  C   UNL     1      -9.722  10.526  67.231  1.00  0.00    -0.169 C  
BRANCH  10  11
HETATM   11  S   UNL     1     -11.397  11.273  67.060  1.00  0.00    -0.084 SA 
BRANCH  11  12
HETATM   12  C   UNL     1     -11.793  12.447  68.379  1.00  0.00    -0.309 A  
HETATM   13 CL   UNL     1     -11.747  10.793  70.660  1.00  0.00    -0.435 Cl 
HETATM   14  C   UNL     1     -12.360  14.625  70.156  1.00  0.00    -0.390 A  
HETATM   15  C   UNL     1     -11.872  12.270  69.779  1.00  0.00    -0.318 A  
HETATM   16  C   UNL     1     -12.128  13.355  70.646  1.00  0.00    -0.374 A  
HETATM   17  C   UNL     1     -12.359  14.827  68.790  1.00  0.00    -0.019 A  
HETATM   18  C   UNL     1     -12.087  13.764  67.914  1.00  0.00    -0.287 A  
HETATM   19 CL   UNL     1     -12.167  14.200  66.225  1.00  0.00    -0.476 Cl 
ENDBRANCH  11  12
ENDBRANCH  10  11
BRANCH  10  20
HETATM   20  C   UNL     1      -9.620   9.572  68.442  1.00  0.00    -0.142 C  
BRANCH  20  21
HETATM   21  N   UNL     1     -10.224   8.261  68.238  1.00  0.00    -0.203 NA 
HETATM   22  C   UNL     1     -10.529   7.358  69.219  1.00  0.00    -0.220 A  
HETATM   23  N   UNL     1     -11.048   6.262  68.718  1.00  0.00    -0.361 NA 
HETATM   24  C   UNL     1     -10.491   7.668  67.036  1.00  0.00    -0.349 A  
HETATM   25  C   UNL     1     -11.033   6.445  67.358  1.00  0.00    -0.376 A  
ENDBRANCH  20  21
ENDBRANCH  10  20
ENDBRANCH   9  10
ENDBRANCH   8   9
ENDBRANCH   5   8
TORSDOF 7
ENDMDL
MODEL      169
REMARK 921   NORMALIZED FREE ENERGY PREDICTED BY IDOCK:   -5.20 KCAL/MOL
REMARK 922        TOTAL FREE ENERGY PREDICTED BY IDOCK:   -8.21 KCAL/MOL
REMARK 923 INTER-LIGAND FREE ENERGY PREDICTED BY IDOCK:   -7.01 KCAL/MOL
REMARK 924 INTRA-LIGAND FREE ENERGY PREDICTED BY IDOCK:   -1.20 KCAL/MOL
REMARK 927      BINDING AFFINITY PREDICTED BY RF-SCORE:    0.00 PKD
ROOT
HETATM    1 CL   UNL     1     -11.209   4.799  72.975  1.00  0.00    -0.349 Cl 
HETATM    2  C   UNL     1     -11.175   6.323  72.177  1.00  0.00    -0.282 A  
HETATM    3  C   UNL     1     -11.087   6.372  70.789  1.00  0.00    -0.365 A  
HETATM    4  C   UNL     1     -11.019   7.609  70.146  1.00  0.00    -0.255 A  
HETATM    5  C   UNL     1     -11.044   8.807  70.879  1.00  0.00    -0.320 A  
HETATM    6  C   UNL     1     -11.153   8.739  72.274  1.00  0.00    -0.340 A  
HETATM    7  C   UNL     1     -11.216   7.500  72.920  1.00  0.00    -0.396 A  
ENDROOT
BRANCH   5   8
HETATM    8  C   UNL     1     -10.875  10.139  70.179  1.00  0.00    -0.368 C  
BRANCH   8   9
HETATM    9  C   UNL     1     -12.086  10.538  69.334  1.00  0.00    -0.175 C  
BRANCH   9  10
HETATM   10  C   UNL     1     -12.032  11.972  68.763  1.00  0.00    -0.244 C  
BRANCH  10  11
HETATM   11  S   UNL     1     -11.401  11.951  67.033  1.00  0.00    -0.319 SA 
BRANCH  11  12
HETATM   12  C   UNL     1      -9.844  11.048  66.851  1.00  0.00    -0.191 A  
HETATM   13 CL   UNL     1     -10.733   8.376  66.758  1.00  0.00    -0.235 Cl 
HETATM   14  C   UNL     1      -7.192  10.019  66.488  1.00  0.00    -0.101 A  
HETATM   15  C   UNL     1      -9.593   9.666  66.687  1.00  0.00    -0.187 A  
HETATM   16  C   UNL     1      -8.284   9.175  66.485  1.00  0.00    -0.111 A  
HETATM   17  C   UNL     1      -7.389  11.368  66.712  1.00  0.00    -0.135 A  
HETATM   18  C   UNL     1      -8.684  11.877  66.895  1.00  0.00    -0.191 A  
HETATM   19 CL   UNL     1      -8.732  13.596  67.203  1.00  0.00    -0.224 Cl 
ENDBRANCH  11  12
ENDBRANCH  10  11
BRANCH  10  20
HETATM   20  C   UNL     1     -11.435  13.129  69.597  1.00  0.00    -0.191 C  
BRANCH  20  21
HETATM   21  N   UNL     1     -12.399  13.848  70.420  1.00  0.00    -0.352 NA 
HETATM   22  C   UNL     1     -12.766  15.157  70.265  1.00  0.00    -0.299 A  
HETATM   23  N   UNL     1     -13.642  15.519  71.172  1.00  0.00    -0.561 NA 
HETATM   24  C   UNL     1     -13.021  13.377  71.541  1.00  0.00    -0.341 A  
HETATM   25  C   UNL     1     -13.812  14.417  71.971  1.00  0.00    -0.476 A  
ENDBRANCH  20  21
ENDBRANCH  10  20
ENDBRANCH   9  10
ENDBRANCH   8   9
ENDBRANCH   5   8
TORSDOF 7
ENDMDL
MODEL      170
REMARK 921   NORMALIZED FREE ENERGY PREDICTED BY IDOCK:   -5.20 KCAL/MOL
REMARK 922        TOTAL FREE ENERGY PREDICTED BY IDOCK:   -8.21 KCAL/MOL
REMARK 923 INTER-LIGAND FREE ENERGY PREDICTED BY IDOCK:   -7.02 KCAL/MOL
REMARK 924 INTRA-LIGAND FREE ENERGY PREDICTED BY IDOCK:   -1.19 KCAL/MOL
REMARK 927      BINDING AFFINITY PREDICTED BY RF-SCORE:    0.00 PKD
ROOT
HETATM    1 CL   UNL     1      -8.699  19.103  67.594  1.00  0.00    -0.319 Cl 
HETATM    2  C   UNL     1      -9.395  17.642  68.178  1.00  0.00    -0.279 A  
HETATM    3  C   UNL     1     -10.749  17.394  67.972  1.00  0.00    -0.359 A  
HETATM    4  C   UNL     1     -11.322  16.227  68.482  1.00  0.00    -0.330 A  
HETATM    5  C   UNL     1     -10.549  15.295  69.195  1.00  0.00    -0.250 A  
HETATM    6  C   UNL     1      -9.184  15.551  69.375  1.00  0.00    -0.280 A  
HETATM    7  C   UNL     1      -8.611  16.723  68.870  1.00  0.00    -0.218 A  
ENDROOT
BRANCH   5   8
HETATM    8  C   UNL     1     -11.200  14.080  69.822  1.00  0.00    -0.175 C  
BRANCH   8   9
HETATM    9  C   UNL     1     -11.589  13.006  68.805  1.00  0.00    -0.350 C  
BRANCH   9  10
HETATM   10  C   UNL     1     -10.604  11.821  68.707  1.00  0.00    -0.206 C  
BRANCH  10  11
HETATM   11  S   UNL     1      -9.274  12.190  67.488  1.00  0.00    -0.189 SA 
BRANCH  11  12
HETATM   12  C   UNL     1      -9.825  12.061  65.768  1.00  0.00    -0.242 A  
HETATM   13 CL   UNL     1     -11.247  14.470  65.433  1.00  0.00    -0.329 Cl 
HETATM   14  C   UNL     1     -10.416  11.505  63.018  1.00  0.00    -0.255 A  
HETATM   15  C   UNL     1     -10.540  12.971  64.958  1.00  0.00    -0.319 A  
HETATM   16  C   UNL     1     -10.804  12.696  63.598  1.00  0.00    -0.437 A  
HETATM   17  C   UNL     1      -9.774  10.560  63.794  1.00  0.00    -0.385 A  
HETATM   18  C   UNL     1      -9.486  10.824  65.143  1.00  0.00    -0.226 A  
HETATM   19 CL   UNL     1      -8.706   9.499  65.972  1.00  0.00    -0.155 Cl 
ENDBRANCH  11  12
ENDBRANCH  10  11
BRANCH  10  20
HETATM   20  C   UNL     1     -11.128  10.371  68.590  1.00  0.00    -0.262 C  
BRANCH  20  21
HETATM   21  N   UNL     1     -11.245   9.661  69.857  1.00  0.00    -0.233 NA 
HETATM   22  C   UNL     1     -10.768   8.405  70.118  1.00  0.00    -0.236 A  
HETATM   23  N   UNL     1     -11.044   8.034  71.346  1.00  0.00    -0.236 NA 
HETATM   24  C   UNL     1     -11.933  10.077  70.961  1.00  0.00    -0.376 A  
HETATM   25  C   UNL     1     -11.766   9.069  71.883  1.00  0.00    -0.374 A  
ENDBRANCH  20  21
ENDBRANCH  10  20
ENDBRANCH   9  10
ENDBRANCH   8   9
ENDBRANCH   5   8
TORSDOF 7
ENDMDL
MODEL      171
REMARK 921   NORMALIZED FREE ENERGY PREDICTED BY IDOCK:   -5.18 KCAL/MOL
REMARK 922        TOTAL FREE ENERGY PREDICTED BY IDOCK:   -8.18 KCAL/MOL
REMARK 923 INTER-LIGAND FREE ENERGY PREDICTED BY IDOCK:   -5.88 KCAL/MOL
REMARK 924 INTRA-LIGAND FREE ENERGY PREDICTED BY IDOCK:   -2.31 KCAL/MOL
REMARK 927      BINDING AFFINITY PREDICTED BY RF-SCORE:    0.00 PKD
ROOT
HETATM    1 CL   UNL     1     -10.207   4.957  73.049  1.00  0.00    -0.201 Cl 
HETATM    2  C   UNL     1     -10.415   6.492  72.299  1.00  0.00    -0.202 A  
HETATM    3  C   UNL     1     -11.471   6.690  71.415  1.00  0.00    -0.349 A  
HETATM    4  C   UNL     1     -11.614   7.923  70.776  1.00  0.00    -0.258 A  
HETATM    5  C   UNL     1     -10.711   8.971  71.018  1.00  0.00    -0.339 A  
HETATM    6  C   UNL     1      -9.666   8.761  71.927  1.00  0.00    -0.386 A  
HETATM    7  C   UNL     1      -9.518   7.524  72.563  1.00  0.00    -0.207 A  
ENDROOT
BRANCH   5   8
HETATM    8  C   UNL     1     -10.821  10.271  70.250  1.00  0.00    -0.349 C  
BRANCH   8   9
HETATM    9  C   UNL     1     -11.634  10.147  68.961  1.00  0.00    -0.076 C  
BRANCH   9  10
HETATM   10  C   UNL     1     -10.961  10.751  67.709  1.00  0.00    -0.297 C  
BRANCH  10  11
HETATM   11  S   UNL     1     -10.139   9.430  66.723  1.00  0.00    -0.258 SA 
BRANCH  11  12
HETATM   12  C   UNL     1      -9.136   8.307  67.727  1.00  0.00    -0.132 A  
HETATM   13 CL   UNL     1      -6.933   9.933  68.390  1.00  0.00    -0.067 Cl 
HETATM   14  C   UNL     1      -7.908   6.257  69.313  1.00  0.00    -0.105 A  
HETATM   15  C   UNL     1      -7.923   8.522  68.419  1.00  0.00    -0.118 A  
HETATM   16  C   UNL     1      -7.341   7.513  69.216  1.00  0.00    -0.089 A  
HETATM   17  C   UNL     1      -9.058   5.986  68.598  1.00  0.00    -0.116 A  
HETATM   18  C   UNL     1      -9.662   6.983  67.816  1.00  0.00    -0.135 A  
HETATM   19 CL   UNL     1     -11.083   6.445  66.955  1.00  0.00    -0.459 Cl 
ENDBRANCH  11  12
ENDBRANCH  10  11
BRANCH  10  20
HETATM   20  C   UNL     1     -10.100  12.030  67.819  1.00  0.00    -0.193 C  
BRANCH  20  21
HETATM   21  N   UNL     1     -10.541  13.136  66.980  1.00  0.00    -0.257 NA 
HETATM   22  C   UNL     1     -11.641  13.919  67.200  1.00  0.00    -0.364 A  
HETATM   23  N   UNL     1     -11.783  14.821  66.258  1.00  0.00    -0.308 NA 
HETATM   24  C   UNL     1     -10.000  13.514  65.784  1.00  0.00    -0.252 A  
HETATM   25  C   UNL     1     -10.764  14.582  65.372  1.00  0.00    -0.361 A  
ENDBRANCH  20  21
ENDBRANCH  10  20
ENDBRANCH   9  10
ENDBRANCH   8   9
ENDBRANCH   5   8
TORSDOF 7
ENDMDL
MODEL      172
REMARK 921   NORMALIZED FREE ENERGY PREDICTED BY IDOCK:   -5.17 KCAL/MOL
REMARK 922        TOTAL FREE ENERGY PREDICTED BY IDOCK:   -8.16 KCAL/MOL
REMARK 923 INTER-LIGAND FREE ENERGY PREDICTED BY IDOCK:   -7.63 KCAL/MOL
REMARK 924 INTRA-LIGAND FREE ENERGY PREDICTED BY IDOCK:   -0.53 KCAL/MOL
REMARK 927      BINDING AFFINITY PREDICTED BY RF-SCORE:    0.00 PKD
ROOT
HETATM    1 CL   UNL     1     -12.521  15.604  74.518  1.00  0.00    -0.781 Cl 
HETATM    2  C   UNL     1     -12.456  15.190  72.849  1.00  0.00    -0.405 A  
HETATM    3  C   UNL     1     -12.913  13.943  72.431  1.00  0.00    -0.457 A  
HETATM    4  C   UNL     1     -12.822  13.592  71.083  1.00  0.00    -0.399 A  
HETATM    5  C   UNL     1     -12.283  14.483  70.139  1.00  0.00    -0.399 A  
HETATM    6  C   UNL     1     -11.847  15.741  70.574  1.00  0.00    -0.402 A  
HETATM    7  C   UNL     1     -11.933  16.091  71.926  1.00  0.00    -0.606 A  
ENDROOT
BRANCH   5   8
HETATM    8  C   UNL     1     -12.103  14.056  68.698  1.00  0.00    -0.332 C  
BRANCH   8   9
HETATM    9  C   UNL     1     -11.447  12.682  68.548  1.00  0.00    -0.349 C  
BRANCH   9  10
HETATM   10  C   UNL     1     -10.174  12.664  67.674  1.00  0.00    -0.217 C  
BRANCH  10  11
HETATM   11  S   UNL     1      -9.174  11.159  68.029  1.00  0.00    -0.165 SA 
BRANCH  11  12
HETATM   12  C   UNL     1      -8.487  10.390  66.541  1.00  0.00    -0.132 A  
HETATM   13 CL   UNL     1     -10.533  10.846  64.658  1.00  0.00    -0.405 Cl 
HETATM   14  C   UNL     1      -7.015   9.149  64.417  1.00  0.00    -0.091 A  
HETATM   15  C   UNL     1      -8.991  10.321  65.222  1.00  0.00    -0.186 A  
HETATM   16  C   UNL     1      -8.246   9.728  64.180  1.00  0.00    -0.158 A  
HETATM   17  C   UNL     1      -6.518   9.136  65.705  1.00  0.00    -0.068 A  
HETATM   18  C   UNL     1      -7.236   9.738  66.751  1.00  0.00    -0.090 A  
HETATM   19 CL   UNL     1      -6.469   9.589  68.313  1.00  0.00    -0.053 Cl 
ENDBRANCH  11  12
ENDBRANCH  10  11
BRANCH  10  20
HETATM   20  C   UNL     1      -9.303  13.932  67.526  1.00  0.00    -0.217 C  
BRANCH  20  21
HETATM   21  N   UNL     1      -9.873  14.967  66.673  1.00  0.00    -0.250 NA 
HETATM   22  C   UNL     1     -10.207  14.822  65.354  1.00  0.00    -0.387 A  
HETATM   23  N   UNL     1     -10.682  15.939  64.855  1.00  0.00    -0.584 NA 
HETATM   24  C   UNL     1     -10.073  16.276  67.006  1.00  0.00    -0.270 A  
HETATM   25  C   UNL     1     -10.607  16.852  65.877  1.00  0.00    -0.233 A  
ENDBRANCH  20  21
ENDBRANCH  10  20
ENDBRANCH   9  10
ENDBRANCH   8   9
ENDBRANCH   5   8
TORSDOF 7
ENDMDL
MODEL      173
REMARK 921   NORMALIZED FREE ENERGY PREDICTED BY IDOCK:   -5.17 KCAL/MOL
REMARK 922        TOTAL FREE ENERGY PREDICTED BY IDOCK:   -8.16 KCAL/MOL
REMARK 923 INTER-LIGAND FREE ENERGY PREDICTED BY IDOCK:   -7.12 KCAL/MOL
REMARK 924 INTRA-LIGAND FREE ENERGY PREDICTED BY IDOCK:   -1.04 KCAL/MOL
REMARK 927      BINDING AFFINITY PREDICTED BY RF-SCORE:    0.00 PKD
ROOT
HETATM    1 CL   UNL     1     -12.672  13.938  65.355  1.00  0.00    -0.545 Cl 
HETATM    2  C   UNL     1     -11.699  12.664  65.979  1.00  0.00    -0.417 A  
HETATM    3  C   UNL     1     -11.044  11.804  65.102  1.00  0.00    -0.341 A  
HETATM    4  C   UNL     1     -10.288  10.746  65.609  1.00  0.00    -0.297 A  
HETATM    5  C   UNL     1     -10.172  10.540  66.994  1.00  0.00    -0.275 A  
HETATM    6  C   UNL     1     -10.820  11.427  67.863  1.00  0.00    -0.274 A  
HETATM    7  C   UNL     1     -11.583  12.484  67.355  1.00  0.00    -0.434 A  
ENDROOT
BRANCH   5   8
HETATM    8  C   UNL     1      -9.427   9.335  67.530  1.00  0.00    -0.160 C  
BRANCH   8   9
HETATM    9  C   UNL     1      -8.926   9.520  68.964  1.00  0.00    -0.144 C  
BRANCH   9  10
HETATM   10  C   UNL     1      -9.402   8.441  69.961  1.00  0.00    -0.159 C  
BRANCH  10  11
HETATM   11  S   UNL     1     -10.634   7.329  69.163  1.00  0.00    -0.184 SA 
BRANCH  11  12
HETATM   12  C   UNL     1     -10.105   5.599  69.108  1.00  0.00    -0.208 A  
HETATM   13 CL   UNL     1      -9.928   4.962  71.847  1.00  0.00    -0.240 Cl 
HETATM   14  C   UNL     1      -9.360   2.881  68.582  1.00  0.00    -0.239 A  
HETATM   15  C   UNL     1      -9.888   4.668  70.149  1.00  0.00    -0.236 A  
HETATM   16  C   UNL     1      -9.545   3.325  69.876  1.00  0.00    -0.172 A  
HETATM   17  C   UNL     1      -9.497   3.777  67.540  1.00  0.00    -0.237 A  
HETATM   18  C   UNL     1      -9.857   5.110  67.791  1.00  0.00    -0.156 A  
HETATM   19 CL   UNL     1      -9.945   6.102  66.356  1.00  0.00    -0.169 Cl 
ENDBRANCH  11  12
ENDBRANCH  10  11
BRANCH  10  20
HETATM   20  C   UNL     1      -9.799   8.825  71.404  1.00  0.00    -0.283 C  
BRANCH  20  21
HETATM   21  N   UNL     1     -11.214   9.119  71.590  1.00  0.00    -0.357 NA 
HETATM   22  C   UNL     1     -11.847  10.275  71.224  1.00  0.00    -0.335 A  
HETATM   23  N   UNL     1     -13.120  10.244  71.539  1.00  0.00    -0.415 NA 
HETATM   24  C   UNL     1     -12.124   8.342  72.249  1.00  0.00    -0.392 A  
HETATM   25  C   UNL     1     -13.306   9.043  72.175  1.00  0.00    -0.455 A  
ENDBRANCH  20  21
ENDBRANCH  10  20
ENDBRANCH   9  10
ENDBRANCH   8   9
ENDBRANCH   5   8
TORSDOF 7
ENDMDL
MODEL      174
REMARK 921   NORMALIZED FREE ENERGY PREDICTED BY IDOCK:   -5.16 KCAL/MOL
REMARK 922        TOTAL FREE ENERGY PREDICTED BY IDOCK:   -8.16 KCAL/MOL
REMARK 923 INTER-LIGAND FREE ENERGY PREDICTED BY IDOCK:   -7.31 KCAL/MOL
REMARK 924 INTRA-LIGAND FREE ENERGY PREDICTED BY IDOCK:   -0.85 KCAL/MOL
REMARK 927      BINDING AFFINITY PREDICTED BY RF-SCORE:    0.00 PKD
ROOT
HETATM    1 CL   UNL     1     -13.926  14.043  72.555  1.00  0.00    -0.596 Cl 
HETATM    2  C   UNL     1     -12.963  14.290  71.151  1.00  0.00    -0.353 A  
HETATM    3  C   UNL     1     -12.777  15.579  70.661  1.00  0.00    -0.487 A  
HETATM    4  C   UNL     1     -12.029  15.774  69.498  1.00  0.00    -0.326 A  
HETATM    5  C   UNL     1     -11.453  14.687  68.819  1.00  0.00    -0.322 A  
HETATM    6  C   UNL     1     -11.633  13.398  69.338  1.00  0.00    -0.365 A  
HETATM    7  C   UNL     1     -12.387  13.202  70.500  1.00  0.00    -0.380 A  
ENDROOT
BRANCH   5   8
HETATM    8  C   UNL     1     -10.723  14.900  67.510  1.00  0.00    -0.276 C  
BRANCH   8   9
HETATM    9  C   UNL     1      -9.515  13.979  67.331  1.00  0.00    -0.225 C  
BRANCH   9  10
HETATM   10  C   UNL     1      -8.152  14.627  67.659  1.00  0.00    -0.173 C  
BRANCH  10  11
HETATM   11  S   UNL     1      -7.867  16.098  66.588  1.00  0.00    -0.223 SA 
BRANCH  11  12
HETATM   12  C   UNL     1      -8.810  17.554  67.107  1.00  0.00    -0.238 A  
HETATM   13 CL   UNL     1     -10.979  17.509  65.310  1.00  0.00    -0.026 Cl 
HETATM   14  C   UNL     1     -10.029  19.865  68.287  1.00  0.00    -0.552 A  
HETATM   15  C   UNL     1     -10.045  18.065  66.647  1.00  0.00    -0.372 A  
HETATM   16  C   UNL     1     -10.647  19.190  67.252  1.00  0.00    -0.573 A  
HETATM   17  C   UNL     1      -8.790  19.437  68.720  1.00  0.00    -0.385 A  
HETATM   18  C   UNL     1      -8.185  18.309  68.143  1.00  0.00    -0.283 A  
HETATM   19 CL   UNL     1      -6.605  17.943  68.793  1.00  0.00    -0.226 Cl 
ENDBRANCH  11  12
ENDBRANCH  10  11
BRANCH  10  20
HETATM   20  C   UNL     1      -6.885  13.757  67.817  1.00  0.00    -0.173 C  
BRANCH  20  21
HETATM   21  N   UNL     1      -6.421  13.601  69.189  1.00  0.00    -0.102 NA 
HETATM   22  C   UNL     1      -6.295  14.604  70.112  1.00  0.00    -0.173 A  
HETATM   23  N   UNL     1      -5.836  14.150  71.253  1.00  0.00    -0.228 NA 
HETATM   24  C   UNL     1      -5.935  12.457  69.758  1.00  0.00    -0.136 A  
HETATM   25  C   UNL     1      -5.612  12.812  71.047  1.00  0.00    -0.117 A  
ENDBRANCH  20  21
ENDBRANCH  10  20
ENDBRANCH   9  10
ENDBRANCH   8   9
ENDBRANCH   5   8
TORSDOF 7
ENDMDL
MODEL      175
REMARK 921   NORMALIZED FREE ENERGY PREDICTED BY IDOCK:   -5.16 KCAL/MOL
REMARK 922        TOTAL FREE ENERGY PREDICTED BY IDOCK:   -8.15 KCAL/MOL
REMARK 923 INTER-LIGAND FREE ENERGY PREDICTED BY IDOCK:   -7.08 KCAL/MOL
REMARK 924 INTRA-LIGAND FREE ENERGY PREDICTED BY IDOCK:   -1.07 KCAL/MOL
REMARK 927      BINDING AFFINITY PREDICTED BY RF-SCORE:    0.00 PKD
ROOT
HETATM    1 CL   UNL     1     -13.986  13.177  72.572  1.00  0.00    -0.561 Cl 
HETATM    2  C   UNL     1     -12.893  14.070  71.587  1.00  0.00    -0.352 A  
HETATM    3  C   UNL     1     -12.512  15.352  71.969  1.00  0.00    -0.450 A  
HETATM    4  C   UNL     1     -11.658  16.092  71.148  1.00  0.00    -0.492 A  
HETATM    5  C   UNL     1     -11.171  15.556  69.944  1.00  0.00    -0.322 A  
HETATM    6  C   UNL     1     -11.548  14.256  69.586  1.00  0.00    -0.351 A  
HETATM    7  C   UNL     1     -12.409  13.517  70.405  1.00  0.00    -0.397 A  
ENDROOT
BRANCH   5   8
HETATM    8  C   UNL     1     -10.321  16.400  69.018  1.00  0.00    -0.278 C  
BRANCH   8   9
HETATM    9  C   UNL     1      -8.976  15.758  68.674  1.00  0.00    -0.204 C  
BRANCH   9  10
HETATM   10  C   UNL     1      -8.839  15.286  67.210  1.00  0.00    -0.196 C  
BRANCH  10  11
HETATM   11  S   UNL     1      -8.944  16.722  66.061  1.00  0.00    -0.091 SA 
BRANCH  11  12
HETATM   12  C   UNL     1      -8.090  18.194  66.676  1.00  0.00    -0.260 A  
HETATM   13 CL   UNL     1      -5.551  17.161  67.328  1.00  0.00    -0.153 Cl 
HETATM   14  C   UNL     1      -7.090  20.755  67.490  1.00  0.00    -0.397 A  
HETATM   15  C   UNL     1      -6.758  18.373  67.113  1.00  0.00    -0.192 A  
HETATM   16  C   UNL     1      -6.270  19.644  67.488  1.00  0.00    -0.214 A  
HETATM   17  C   UNL     1      -8.416  20.609  67.134  1.00  0.00    -0.292 A  
HETATM   18  C   UNL     1      -8.914  19.357  66.739  1.00  0.00    -0.331 A  
HETATM   19 CL   UNL     1     -10.620  19.360  66.364  1.00  0.00    -0.551 Cl 
ENDBRANCH  11  12
ENDBRANCH  10  11
BRANCH  10  20
HETATM   20  C   UNL     1      -9.633  14.062  66.701  1.00  0.00    -0.289 C  
BRANCH  20  21
HETATM   21  N   UNL     1      -9.089  12.771  67.105  1.00  0.00    -0.211 NA 
HETATM   22  C   UNL     1      -9.791  11.756  67.696  1.00  0.00    -0.185 A  
HETATM   23  N   UNL     1      -9.018  10.728  67.955  1.00  0.00    -0.136 NA 
HETATM   24  C   UNL     1      -7.777  12.393  67.061  1.00  0.00    -0.063 A  
HETATM   25  C   UNL     1      -7.762  11.111  67.560  1.00  0.00    -0.116 A  
ENDBRANCH  20  21
ENDBRANCH  10  20
ENDBRANCH   9  10
ENDBRANCH   8   9
ENDBRANCH   5   8
TORSDOF 7
ENDMDL
MODEL      176
REMARK 921   NORMALIZED FREE ENERGY PREDICTED BY IDOCK:   -5.15 KCAL/MOL
REMARK 922        TOTAL FREE ENERGY PREDICTED BY IDOCK:   -8.14 KCAL/MOL
REMARK 923 INTER-LIGAND FREE ENERGY PREDICTED BY IDOCK:   -7.16 KCAL/MOL
REMARK 924 INTRA-LIGAND FREE ENERGY PREDICTED BY IDOCK:   -0.98 KCAL/MOL
REMARK 927      BINDING AFFINITY PREDICTED BY RF-SCORE:    0.00 PKD
ROOT
HETATM    1 CL   UNL     1     -14.409   7.338  71.747  1.00  0.00    -0.573 Cl 
HETATM    2  C   UNL     1     -12.863   7.946  71.297  1.00  0.00    -0.217 A  
HETATM    3  C   UNL     1     -11.868   7.063  70.889  1.00  0.00    -0.401 A  
HETATM    4  C   UNL     1     -10.602   7.554  70.563  1.00  0.00    -0.232 A  
HETATM    5  C   UNL     1     -10.320   8.929  70.634  1.00  0.00    -0.265 A  
HETATM    6  C   UNL     1     -11.339   9.805  71.028  1.00  0.00    -0.460 A  
HETATM    7  C   UNL     1     -12.606   9.313  71.360  1.00  0.00    -0.411 A  
ENDROOT
BRANCH   5   8
HETATM    8  C   UNL     1      -8.919   9.438  70.370  1.00  0.00    -0.294 C  
BRANCH   8   9
HETATM    9  C   UNL     1      -8.479   9.276  68.913  1.00  0.00    -0.129 C  
BRANCH   9  10
HETATM   10  C   UNL     1      -8.719  10.514  68.023  1.00  0.00    -0.128 C  
BRANCH  10  11
HETATM   11  S   UNL     1     -10.094  10.197  66.839  1.00  0.00    -0.234 SA 
BRANCH  11  12
HETATM   12  C   UNL     1     -10.913  11.708  66.272  1.00  0.00    -0.289 A  
HETATM   13 CL   UNL     1     -12.031  12.691  68.664  1.00  0.00    -0.319 Cl 
HETATM   14  C   UNL     1     -11.988  14.036  64.989  1.00  0.00    -0.409 A  
HETATM   15  C   UNL     1     -11.614  12.702  66.992  1.00  0.00    -0.365 A  
HETATM   16  C   UNL     1     -12.118  13.856  66.353  1.00  0.00    -0.489 A  
HETATM   17  C   UNL     1     -11.369  13.055  64.241  1.00  0.00    -0.419 A  
HETATM   18  C   UNL     1     -10.845  11.910  64.862  1.00  0.00    -0.305 A  
HETATM   19 CL   UNL     1     -10.134  10.765  63.751  1.00  0.00    -0.400 Cl 
ENDBRANCH  11  12
ENDBRANCH  10  11
BRANCH  10  20
HETATM   20  C   UNL     1      -7.531  11.253  67.365  1.00  0.00    -0.116 C  
BRANCH  20  21
HETATM   21  N   UNL     1      -7.412  12.659  67.726  1.00  0.00    -0.117 NA 
HETATM   22  C   UNL     1      -8.448  13.495  68.046  1.00  0.00    -0.176 A  
HETATM   23  N   UNL     1      -8.022  14.707  68.309  1.00  0.00    -0.126 NA 
HETATM   24  C   UNL     1      -6.271  13.409  67.708  1.00  0.00    -0.157 A  
HETATM   25  C   UNL     1      -6.666  14.665  68.106  1.00  0.00    -0.131 A  
ENDBRANCH  20  21
ENDBRANCH  10  20
ENDBRANCH   9  10
ENDBRANCH   8   9
ENDBRANCH   5   8
TORSDOF 7
ENDMDL
MODEL      177
REMARK 921   NORMALIZED FREE ENERGY PREDICTED BY IDOCK:   -5.15 KCAL/MOL
REMARK 922        TOTAL FREE ENERGY PREDICTED BY IDOCK:   -8.13 KCAL/MOL
REMARK 923 INTER-LIGAND FREE ENERGY PREDICTED BY IDOCK:   -7.65 KCAL/MOL
REMARK 924 INTRA-LIGAND FREE ENERGY PREDICTED BY IDOCK:   -0.48 KCAL/MOL
REMARK 927      BINDING AFFINITY PREDICTED BY RF-SCORE:    0.00 PKD
ROOT
HETATM    1 CL   UNL     1     -13.523  15.939  73.663  1.00  0.00    -0.398 Cl 
HETATM    2  C   UNL     1     -12.943  15.127  72.261  1.00  0.00    -0.354 A  
HETATM    3  C   UNL     1     -12.451  15.867  71.190  1.00  0.00    -0.417 A  
HETATM    4  C   UNL     1     -12.018  15.209  70.037  1.00  0.00    -0.374 A  
HETATM    5  C   UNL     1     -12.065  13.808  69.945  1.00  0.00    -0.412 A  
HETATM    6  C   UNL     1     -12.544  13.078  71.040  1.00  0.00    -0.386 A  
HETATM    7  C   UNL     1     -12.983  13.737  72.193  1.00  0.00    -0.437 A  
ENDROOT
BRANCH   5   8
HETATM    8  C   UNL     1     -11.682  13.112  68.657  1.00  0.00    -0.362 C  
BRANCH   8   9
HETATM    9  C   UNL     1     -10.210  13.293  68.283  1.00  0.00    -0.250 C  
BRANCH   9  10
HETATM   10  C   UNL     1      -9.828  14.719  67.829  1.00  0.00    -0.214 C  
BRANCH  10  11
HETATM   11  S   UNL     1      -9.442  14.737  66.028  1.00  0.00    -0.212 SA 
BRANCH  11  12
HETATM   12  C   UNL     1     -10.446  13.576  65.070  1.00  0.00    -0.376 A  
HETATM   13 CL   UNL     1      -8.994  11.179  65.361  1.00  0.00    -0.186 Cl 
HETATM   14  C   UNL     1     -12.345  12.064  63.544  1.00  0.00    -0.661 A  
HETATM   15  C   UNL     1     -10.301  12.186  64.861  1.00  0.00    -0.289 A  
HETATM   16  C   UNL     1     -11.256  11.448  64.127  1.00  0.00    -0.327 A  
HETATM   17  C   UNL     1     -12.487  13.432  63.669  1.00  0.00    -0.316 A  
HETATM   18  C   UNL     1     -11.558  14.179  64.410  1.00  0.00    -0.362 A  
HETATM   19 CL   UNL     1     -11.880  15.896  64.424  1.00  0.00    -0.246 Cl 
ENDBRANCH  11  12
ENDBRANCH  10  11
BRANCH  10  20
HETATM   20  C   UNL     1      -8.835  15.568  68.656  1.00  0.00    -0.193 C  
BRANCH  20  21
HETATM   21  N   UNL     1      -7.474  15.592  68.136  1.00  0.00    -0.120 NA 
HETATM   22  C   UNL     1      -6.621  14.524  68.073  1.00  0.00    -0.148 A  
HETATM   23  N   UNL     1      -5.460  14.868  67.570  1.00  0.00    -0.345 NA 
HETATM   24  C   UNL     1      -6.782  16.695  67.723  1.00  0.00    -0.139 A  
HETATM   25  C   UNL     1      -5.549  16.218  67.343  1.00  0.00    -0.128 A  
ENDBRANCH  20  21
ENDBRANCH  10  20
ENDBRANCH   9  10
ENDBRANCH   8   9
ENDBRANCH   5   8
TORSDOF 7
ENDMDL
MODEL      178
REMARK 921   NORMALIZED FREE ENERGY PREDICTED BY IDOCK:   -5.14 KCAL/MOL
REMARK 922        TOTAL FREE ENERGY PREDICTED BY IDOCK:   -8.13 KCAL/MOL
REMARK 923 INTER-LIGAND FREE ENERGY PREDICTED BY IDOCK:   -7.43 KCAL/MOL
REMARK 924 INTRA-LIGAND FREE ENERGY PREDICTED BY IDOCK:   -0.70 KCAL/MOL
REMARK 927      BINDING AFFINITY PREDICTED BY RF-SCORE:    0.00 PKD
ROOT
HETATM    1 CL   UNL     1     -12.625  15.549  74.390  1.00  0.00    -0.704 Cl 
HETATM    2  C   UNL     1     -12.534  15.126  72.725  1.00  0.00    -0.389 A  
HETATM    3  C   UNL     1     -12.823  13.824  72.328  1.00  0.00    -0.357 A  
HETATM    4  C   UNL     1     -12.709  13.472  70.982  1.00  0.00    -0.399 A  
HETATM    5  C   UNL     1     -12.314  14.416  70.019  1.00  0.00    -0.391 A  
HETATM    6  C   UNL     1     -12.047  15.727  70.434  1.00  0.00    -0.399 A  
HETATM    7  C   UNL     1     -12.156  16.079  71.783  1.00  0.00    -0.570 A  
ENDROOT
BRANCH   5   8
HETATM    8  C   UNL     1     -12.103  14.000  68.579  1.00  0.00    -0.329 C  
BRANCH   8   9
HETATM    9  C   UNL     1     -11.368  12.666  68.434  1.00  0.00    -0.329 C  
BRANCH   9  10
HETATM   10  C   UNL     1      -9.832  12.781  68.332  1.00  0.00    -0.196 C  
BRANCH  10  11
HETATM   11  S   UNL     1      -9.355  13.657  66.783  1.00  0.00    -0.247 SA 
BRANCH  11  12
HETATM   12  C   UNL     1      -9.690  15.435  66.835  1.00  0.00    -0.231 A  
HETATM   13 CL   UNL     1      -8.302  16.218  69.159  1.00  0.00    -0.237 Cl 
HETATM   14  C   UNL     1     -10.385  18.196  66.501  1.00  0.00    -0.397 A  
HETATM   15  C   UNL     1      -9.234  16.434  67.725  1.00  0.00    -0.201 A  
HETATM   16  C   UNL     1      -9.563  17.794  67.535  1.00  0.00    -0.268 A  
HETATM   17  C   UNL     1     -10.906  17.242  65.650  1.00  0.00    -0.029 A  
HETATM   18  C   UNL     1     -10.574  15.887  65.811  1.00  0.00    -0.355 A  
HETATM   19 CL   UNL     1     -11.358  14.826  64.666  1.00  0.00    -0.385 Cl 
ENDBRANCH  11  12
ENDBRANCH  10  11
BRANCH  10  20
HETATM   20  C   UNL     1      -8.931  11.559  68.622  1.00  0.00    -0.112 C  
BRANCH  20  21
HETATM   21  N   UNL     1      -9.382  10.312  68.018  1.00  0.00    -0.138 NA 
HETATM   22  C   UNL     1      -9.022   9.053  68.417  1.00  0.00    -0.133 A  
HETATM   23  N   UNL     1      -9.581   8.135  67.664  1.00  0.00    -0.148 NA 
HETATM   24  C   UNL     1     -10.149  10.185  66.896  1.00  0.00    -0.223 A  
HETATM   25  C   UNL     1     -10.289   8.828  66.715  1.00  0.00    -0.258 A  
ENDBRANCH  20  21
ENDBRANCH  10  20
ENDBRANCH   9  10
ENDBRANCH   8   9
ENDBRANCH   5   8
TORSDOF 7
ENDMDL
MODEL      179
REMARK 921   NORMALIZED FREE ENERGY PREDICTED BY IDOCK:   -5.14 KCAL/MOL
REMARK 922        TOTAL FREE ENERGY PREDICTED BY IDOCK:   -8.12 KCAL/MOL
REMARK 923 INTER-LIGAND FREE ENERGY PREDICTED BY IDOCK:   -7.18 KCAL/MOL
REMARK 924 INTRA-LIGAND FREE ENERGY PREDICTED BY IDOCK:   -0.94 KCAL/MOL
REMARK 927      BINDING AFFINITY PREDICTED BY RF-SCORE:    0.00 PKD
ROOT
HETATM    1 CL   UNL     1      -8.433   5.431  65.640  1.00  0.00    -0.132 Cl 
HETATM    2  C   UNL     1      -8.901   7.066  65.902  1.00  0.00    -0.103 A  
HETATM    3  C   UNL     1      -9.977   7.350  66.738  1.00  0.00    -0.300 A  
HETATM    4  C   UNL     1     -10.382   8.674  66.917  1.00  0.00    -0.355 A  
HETATM    5  C   UNL     1      -9.713   9.727  66.271  1.00  0.00    -0.295 A  
HETATM    6  C   UNL     1      -8.619   9.425  65.450  1.00  0.00    -0.176 A  
HETATM    7  C   UNL     1      -8.217   8.098  65.265  1.00  0.00    -0.150 A  
ENDROOT
BRANCH   5   8
HETATM    8  C   UNL     1     -10.218  11.149  66.399  1.00  0.00    -0.279 C  
BRANCH   8   9
HETATM    9  C   UNL     1     -10.218  11.665  67.839  1.00  0.00    -0.203 C  
BRANCH   9  10
HETATM   10  C   UNL     1     -11.603  12.092  68.373  1.00  0.00    -0.311 C  
BRANCH  10  11
HETATM   11  S   UNL     1     -12.285  13.471  67.360  1.00  0.00    -0.119 SA 
BRANCH  11  12
HETATM   12  C   UNL     1     -11.178  14.899  67.260  1.00  0.00    -0.345 A  
HETATM   13 CL   UNL     1     -11.441  16.015  69.835  1.00  0.00    -0.332 Cl 
HETATM   14  C   UNL     1      -9.285  16.982  66.715  1.00  0.00    -0.270 A  
HETATM   15  C   UNL     1     -10.810  15.850  68.239  1.00  0.00    -0.315 A  
HETATM   16  C   UNL     1      -9.858  16.857  67.965  1.00  0.00    -0.264 A  
HETATM   17  C   UNL     1      -9.670  16.114  65.712  1.00  0.00    -0.325 A  
HETATM   18  C   UNL     1     -10.600  15.095  65.971  1.00  0.00    -0.322 A  
HETATM   19 CL   UNL     1     -10.991  14.122  64.574  1.00  0.00    -0.376 Cl 
ENDBRANCH  11  12
ENDBRANCH  10  11
BRANCH  10  20
HETATM   20  C   UNL     1     -11.831  12.301  69.888  1.00  0.00    -0.311 C  
BRANCH  20  21
HETATM   21  N   UNL     1     -12.030  11.075  70.649  1.00  0.00    -0.354 NA 
HETATM   22  C   UNL     1     -13.065  10.825  71.509  1.00  0.00    -0.414 A  
HETATM   23  N   UNL     1     -12.957   9.637  72.056  1.00  0.00    -0.417 NA 
HETATM   24  C   UNL     1     -11.173  10.013  70.718  1.00  0.00    -0.352 A  
HETATM   25  C   UNL     1     -11.784   9.120  71.568  1.00  0.00    -0.363 A  
ENDBRANCH  20  21
ENDBRANCH  10  20
ENDBRANCH   9  10
ENDBRANCH   8   9
ENDBRANCH   5   8
TORSDOF 7
ENDMDL
MODEL      180
REMARK 921   NORMALIZED FREE ENERGY PREDICTED BY IDOCK:   -5.13 KCAL/MOL
REMARK 922        TOTAL FREE ENERGY PREDICTED BY IDOCK:   -8.11 KCAL/MOL
REMARK 923 INTER-LIGAND FREE ENERGY PREDICTED BY IDOCK:   -6.97 KCAL/MOL
REMARK 924 INTRA-LIGAND FREE ENERGY PREDICTED BY IDOCK:   -1.15 KCAL/MOL
REMARK 927      BINDING AFFINITY PREDICTED BY RF-SCORE:    0.00 PKD
ROOT
HETATM    1 CL   UNL     1      -7.023  20.447  65.166  1.00  0.00    -0.286 Cl 
HETATM    2  C   UNL     1      -7.779  19.287  66.187  1.00  0.00    -0.290 A  
HETATM    3  C   UNL     1      -8.990  19.595  66.799  1.00  0.00    -0.415 A  
HETATM    4  C   UNL     1      -9.583  18.669  67.660  1.00  0.00    -0.325 A  
HETATM    5  C   UNL     1      -8.977  17.426  67.912  1.00  0.00    -0.251 A  
HETATM    6  C   UNL     1      -7.769  17.125  67.271  1.00  0.00    -0.198 A  
HETATM    7  C   UNL     1      -7.172  18.055  66.413  1.00  0.00    -0.289 A  
ENDROOT
BRANCH   5   8
HETATM    8  C   UNL     1      -9.580  16.469  68.918  1.00  0.00    -0.261 C  
BRANCH   8   9
HETATM    9  C   UNL     1     -11.088  16.652  69.102  1.00  0.00    -0.219 C  
BRANCH   9  10
HETATM   10  C   UNL     1     -11.852  15.371  69.498  1.00  0.00    -0.349 C  
BRANCH  10  11
HETATM   11  S   UNL     1     -12.134  14.309  68.020  1.00  0.00    -0.159 SA 
BRANCH  11  12
HETATM   12  C   UNL     1     -10.697  13.300  67.580  1.00  0.00    -0.250 A  
HETATM   13 CL   UNL     1      -9.822  14.543  65.208  1.00  0.00    -0.307 Cl 
HETATM   14  C   UNL     1      -8.466  11.522  67.293  1.00  0.00    -0.152 A  
HETATM   15  C   UNL     1      -9.770  13.428  66.521  1.00  0.00    -0.282 A  
HETATM   16  C   UNL     1      -8.661  12.561  66.404  1.00  0.00     0.046 A  
HETATM   17  C   UNL     1      -9.388  11.322  68.302  1.00  0.00    -0.180 A  
HETATM   18  C   UNL     1     -10.485  12.186  68.445  1.00  0.00    -0.231 A  
HETATM   19 CL   UNL     1     -11.561  11.753  69.751  1.00  0.00    -0.376 Cl 
ENDBRANCH  11  12
ENDBRANCH  10  11
BRANCH  10  20
HETATM   20  C   UNL     1     -13.093  15.447  70.417  1.00  0.00    -0.180 C  
BRANCH  20  21
HETATM   21  N   UNL     1     -12.827  15.179  71.824  1.00  0.00    -0.329 NA 
HETATM   22  C   UNL     1     -13.285  14.104  72.536  1.00  0.00    -0.502 A  
HETATM   23  N   UNL     1     -12.889  14.152  73.785  1.00  0.00    -0.048 NA 
HETATM   24  C   UNL     1     -12.168  15.999  72.696  1.00  0.00    -0.522 A  
HETATM   25  C   UNL     1     -12.188  15.327  73.897  1.00  0.00    -0.610 A  
ENDBRANCH  20  21
ENDBRANCH  10  20
ENDBRANCH   9  10
ENDBRANCH   8   9
ENDBRANCH   5   8
TORSDOF 7
ENDMDL
MODEL      181
REMARK 921   NORMALIZED FREE ENERGY PREDICTED BY IDOCK:   -5.12 KCAL/MOL
REMARK 922        TOTAL FREE ENERGY PREDICTED BY IDOCK:   -8.10 KCAL/MOL
REMARK 923 INTER-LIGAND FREE ENERGY PREDICTED BY IDOCK:   -7.05 KCAL/MOL
REMARK 924 INTRA-LIGAND FREE ENERGY PREDICTED BY IDOCK:   -1.05 KCAL/MOL
REMARK 927      BINDING AFFINITY PREDICTED BY RF-SCORE:    0.00 PKD
ROOT
HETATM    1 CL   UNL     1     -10.788  12.645  63.824  1.00  0.00    -0.461 Cl 
HETATM    2  C   UNL     1     -10.728  11.567  65.163  1.00  0.00    -0.289 A  
HETATM    3  C   UNL     1     -11.379  11.902  66.347  1.00  0.00    -0.400 A  
HETATM    4  C   UNL     1     -11.296  11.045  67.446  1.00  0.00    -0.306 A  
HETATM    5  C   UNL     1     -10.571   9.844  67.372  1.00  0.00    -0.338 A  
HETATM    6  C   UNL     1      -9.939   9.513  66.167  1.00  0.00    -0.342 A  
HETATM    7  C   UNL     1     -10.017  10.374  65.067  1.00  0.00    -0.399 A  
ENDROOT
BRANCH   5   8
HETATM    8  C   UNL     1     -10.410   8.969  68.597  1.00  0.00    -0.233 C  
BRANCH   8   9
HETATM    9  C   UNL     1     -10.530   9.740  69.913  1.00  0.00    -0.298 C  
BRANCH   9  10
HETATM   10  C   UNL     1      -9.791   9.099  71.109  1.00  0.00    -0.301 C  
BRANCH  10  11
HETATM   11  S   UNL     1      -8.496   7.933  70.513  1.00  0.00    -0.128 SA 
BRANCH  11  12
HETATM   12  C   UNL     1      -8.883   6.199  70.857  1.00  0.00    -0.136 A  
HETATM   13 CL   UNL     1     -10.716   5.597  68.804  1.00  0.00    -0.300 Cl 
HETATM   14  C   UNL     1      -9.152   3.468  71.691  1.00  0.00    -0.173 A  
HETATM   15  C   UNL     1      -9.700   5.280  70.159  1.00  0.00    -0.196 A  
HETATM   16  C   UNL     1      -9.805   3.932  70.566  1.00  0.00    -0.180 A  
HETATM   17  C   UNL     1      -8.398   4.351  72.439  1.00  0.00    -0.109 A  
HETATM   18  C   UNL     1      -8.266   5.691  72.039  1.00  0.00    -0.115 A  
HETATM   19 CL   UNL     1      -7.308   6.663  73.128  1.00  0.00    -0.084 Cl 
ENDBRANCH  11  12
ENDBRANCH  10  11
BRANCH  10  20
HETATM   20  C   UNL     1     -10.582   8.540  72.313  1.00  0.00    -0.338 C  
BRANCH  20  21
HETATM   21  N   UNL     1     -12.003   8.330  72.065  1.00  0.00    -0.325 NA 
HETATM   22  C   UNL     1     -12.560   7.219  71.493  1.00  0.00    -0.379 A  
HETATM   23  N   UNL     1     -13.863   7.336  71.390  1.00  0.00    -0.366 NA 
HETATM   24  C   UNL     1     -13.005   9.237  72.263  1.00  0.00    -0.412 A  
HETATM   25  C   UNL     1     -14.153   8.588  71.871  1.00  0.00    -0.447 A  
ENDBRANCH  20  21
ENDBRANCH  10  20
ENDBRANCH   9  10
ENDBRANCH   8   9
ENDBRANCH   5   8
TORSDOF 7
ENDMDL
MODEL      182
REMARK 921   NORMALIZED FREE ENERGY PREDICTED BY IDOCK:   -5.11 KCAL/MOL
REMARK 922        TOTAL FREE ENERGY PREDICTED BY IDOCK:   -8.09 KCAL/MOL
REMARK 923 INTER-LIGAND FREE ENERGY PREDICTED BY IDOCK:   -7.04 KCAL/MOL
REMARK 924 INTRA-LIGAND FREE ENERGY PREDICTED BY IDOCK:   -1.05 KCAL/MOL
REMARK 927      BINDING AFFINITY PREDICTED BY RF-SCORE:    0.00 PKD
ROOT
HETATM    1 CL   UNL     1     -12.643  15.622  70.544  1.00  0.00    -0.459 Cl 
HETATM    2  C   UNL     1     -12.631  13.915  70.757  1.00  0.00    -0.354 A  
HETATM    3  C   UNL     1     -13.283  13.353  71.851  1.00  0.00    -0.522 A  
HETATM    4  C   UNL     1     -13.238  11.971  72.045  1.00  0.00    -0.481 A  
HETATM    5  C   UNL     1     -12.550  11.138  71.147  1.00  0.00    -0.513 A  
HETATM    6  C   UNL     1     -11.918  11.718  70.041  1.00  0.00    -0.421 A  
HETATM    7  C   UNL     1     -11.957  13.103  69.849  1.00  0.00    -0.387 A  
ENDROOT
BRANCH   5   8
HETATM    8  C   UNL     1     -12.430   9.653  71.419  1.00  0.00    -0.465 C  
BRANCH   8   9
HETATM    9  C   UNL     1     -10.993   9.135  71.332  1.00  0.00    -0.414 C  
BRANCH   9  10
HETATM   10  C   UNL     1     -10.739   8.117  70.199  1.00  0.00    -0.243 C  
BRANCH  10  11
HETATM   11  S   UNL     1     -11.433   6.471  70.648  1.00  0.00    -0.377 SA 
BRANCH  11  12
HETATM   12  C   UNL     1     -10.286   5.448  71.605  1.00  0.00    -0.218 A  
HETATM   13 CL   UNL     1     -10.314   6.738  74.110  1.00  0.00    -0.388 Cl 
HETATM   14  C   UNL     1      -8.493   3.541  72.774  1.00  0.00    -0.082 A  
HETATM   15  C   UNL     1      -9.899   5.520  72.962  1.00  0.00    -0.162 A  
HETATM   16  C   UNL     1      -9.034   4.561  73.533  1.00  0.00    -0.100 A  
HETATM   17  C   UNL     1      -8.794   3.476  71.428  1.00  0.00    -0.137 A  
HETATM   18  C   UNL     1      -9.667   4.409  70.848  1.00  0.00    -0.197 A  
HETATM   19 CL   UNL     1      -9.898   4.191  69.130  1.00  0.00    -0.197 Cl 
ENDBRANCH  11  12
ENDBRANCH  10  11
BRANCH  10  20
HETATM   20  C   UNL     1      -9.348   8.011  69.534  1.00  0.00    -0.156 C  
BRANCH  20  21
HETATM   21  N   UNL     1      -8.244   8.507  70.346  1.00  0.00    -0.108 NA 
HETATM   22  C   UNL     1      -7.646   9.732  70.222  1.00  0.00    -0.172 A  
HETATM   23  N   UNL     1      -6.671   9.878  71.087  1.00  0.00    -0.332 NA 
HETATM   24  C   UNL     1      -7.553   7.806  71.293  1.00  0.00    -0.080 A  
HETATM   25  C   UNL     1      -6.606   8.686  71.764  1.00  0.00    -0.075 A  
ENDBRANCH  20  21
ENDBRANCH  10  20
ENDBRANCH   9  10
ENDBRANCH   8   9
ENDBRANCH   5   8
TORSDOF 7
ENDMDL
MODEL      183
REMARK 921   NORMALIZED FREE ENERGY PREDICTED BY IDOCK:   -5.11 KCAL/MOL
REMARK 922        TOTAL FREE ENERGY PREDICTED BY IDOCK:   -8.08 KCAL/MOL
REMARK 923 INTER-LIGAND FREE ENERGY PREDICTED BY IDOCK:   -7.13 KCAL/MOL
REMARK 924 INTRA-LIGAND FREE ENERGY PREDICTED BY IDOCK:   -0.95 KCAL/MOL
REMARK 927      BINDING AFFINITY PREDICTED BY RF-SCORE:    0.00 PKD
ROOT
HETATM    1 CL   UNL     1     -12.718  15.875  73.815  1.00  0.00    -0.672 Cl 
HETATM    2  C   UNL     1     -12.560  15.042  72.318  1.00  0.00    -0.340 A  
HETATM    3  C   UNL     1     -13.178  13.806  72.148  1.00  0.00    -0.538 A  
HETATM    4  C   UNL     1     -13.015  13.113  70.947  1.00  0.00    -0.141 A  
HETATM    5  C   UNL     1     -12.243  13.648  69.903  1.00  0.00    -0.367 A  
HETATM    6  C   UNL     1     -11.646  14.902  70.083  1.00  0.00    -0.333 A  
HETATM    7  C   UNL     1     -11.803  15.595  71.288  1.00  0.00    -0.473 A  
ENDROOT
BRANCH   5   8
HETATM    8  C   UNL     1     -11.997  12.846  68.643  1.00  0.00    -0.282 C  
BRANCH   8   9
HETATM    9  C   UNL     1     -11.033  11.676  68.846  1.00  0.00    -0.282 C  
BRANCH   9  10
HETATM   10  C   UNL     1      -9.741  11.747  68.003  1.00  0.00    -0.185 C  
BRANCH  10  11
HETATM   11  S   UNL     1     -10.149  11.981  66.223  1.00  0.00    -0.228 SA 
BRANCH  11  12
HETATM   12  C   UNL     1     -10.484  13.706  65.787  1.00  0.00    -0.293 A  
HETATM   13 CL   UNL     1      -8.648  15.082  67.423  1.00  0.00    -0.192 Cl 
HETATM   14  C   UNL     1     -11.260  16.268  64.761  1.00  0.00    -0.267 A  
HETATM   15  C   UNL     1      -9.861  14.902  66.212  1.00  0.00    -0.294 A  
HETATM   16  C   UNL     1     -10.237  16.156  65.681  1.00  0.00    -0.390 A  
HETATM   17  C   UNL     1     -11.938  15.130  64.371  1.00  0.00    -0.321 A  
HETATM   18  C   UNL     1     -11.567  13.873  64.873  1.00  0.00    -0.359 A  
HETATM   19 CL   UNL     1     -12.562  12.558  64.297  1.00  0.00    -0.513 Cl 
ENDBRANCH  11  12
ENDBRANCH  10  11
BRANCH  10  20
HETATM   20  C   UNL     1      -8.603  10.723  68.220  1.00  0.00    -0.135 C  
BRANCH  20  21
HETATM   21  N   UNL     1      -7.434  11.249  68.913  1.00  0.00    -0.119 NA 
HETATM   22  C   UNL     1      -6.949  12.525  68.811  1.00  0.00    -0.094 A  
HETATM   23  N   UNL     1      -5.874  12.688  69.544  1.00  0.00    -0.096 NA 
HETATM   24  C   UNL     1      -6.566  10.541  69.694  1.00  0.00    -0.098 A  
HETATM   25  C   UNL     1      -5.627  11.459  70.102  1.00  0.00    -0.118 A  
ENDBRANCH  20  21
ENDBRANCH  10  20
ENDBRANCH   9  10
ENDBRANCH   8   9
ENDBRANCH   5   8
TORSDOF 7
ENDMDL
MODEL      184
REMARK 921   NORMALIZED FREE ENERGY PREDICTED BY IDOCK:   -5.10 KCAL/MOL
REMARK 922        TOTAL FREE ENERGY PREDICTED BY IDOCK:   -8.06 KCAL/MOL
REMARK 923 INTER-LIGAND FREE ENERGY PREDICTED BY IDOCK:   -7.01 KCAL/MOL
REMARK 924 INTRA-LIGAND FREE ENERGY PREDICTED BY IDOCK:   -1.05 KCAL/MOL
REMARK 927      BINDING AFFINITY PREDICTED BY RF-SCORE:    0.00 PKD
ROOT
HETATM    1 CL   UNL     1      -7.917   7.635  62.854  1.00  0.00    -0.136 Cl 
HETATM    2  C   UNL     1      -8.654   9.002  63.596  1.00  0.00    -0.130 A  
HETATM    3  C   UNL     1      -9.057  10.078  62.811  1.00  0.00    -0.304 A  
HETATM    4  C   UNL     1      -9.617  11.203  63.419  1.00  0.00    -0.355 A  
HETATM    5  C   UNL     1      -9.787  11.262  64.813  1.00  0.00    -0.312 A  
HETATM    6  C   UNL     1      -9.394  10.161  65.585  1.00  0.00    -0.250 A  
HETATM    7  C   UNL     1      -8.827   9.036  64.977  1.00  0.00    -0.213 A  
ENDROOT
BRANCH   5   8
HETATM    8  C   UNL     1     -10.308  12.523  65.469  1.00  0.00    -0.303 C  
BRANCH   8   9
HETATM    9  C   UNL     1     -11.691  12.351  66.101  1.00  0.00    -0.460 C  
BRANCH   9  10
HETATM   10  C   UNL     1     -11.757  12.673  67.610  1.00  0.00    -0.361 C  
BRANCH  10  11
HETATM   11  S   UNL     1     -12.205  14.440  67.870  1.00  0.00     0.001 SA 
BRANCH  11  12
HETATM   12  C   UNL     1     -10.852  15.583  67.498  1.00  0.00    -0.306 A  
HETATM   13 CL   UNL     1     -10.958  15.706  64.685  1.00  0.00    -0.415 Cl 
HETATM   14  C   UNL     1      -8.701  17.474  67.349  1.00  0.00    -0.231 A  
HETATM   15  C   UNL     1     -10.408  16.116  66.266  1.00  0.00    -0.328 A  
HETATM   16  C   UNL     1      -9.364  17.065  66.208  1.00  0.00    -0.276 A  
HETATM   17  C   UNL     1      -9.061  16.925  68.565  1.00  0.00    -0.257 A  
HETATM   18  C   UNL     1     -10.109  15.995  68.644  1.00  0.00    -0.220 A  
HETATM   19 CL   UNL     1     -10.393  15.384  70.255  1.00  0.00    -0.277 Cl 
ENDBRANCH  11  12
ENDBRANCH  10  11
BRANCH  10  20
HETATM   20  C   UNL     1     -10.639  12.198  68.565  1.00  0.00    -0.233 C  
BRANCH  20  21
HETATM   21  N   UNL     1     -11.074  11.269  69.599  1.00  0.00    -0.236 NA 
HETATM   22  C   UNL     1     -12.156  11.433  70.421  1.00  0.00    -0.384 A  
HETATM   23  N   UNL     1     -12.277  10.432  71.259  1.00  0.00    -0.380 NA 
HETATM   24  C   UNL     1     -10.426  10.134  69.997  1.00  0.00    -0.274 A  
HETATM   25  C   UNL     1     -11.207   9.613  71.002  1.00  0.00    -0.375 A  
ENDBRANCH  20  21
ENDBRANCH  10  20
ENDBRANCH   9  10
ENDBRANCH   8   9
ENDBRANCH   5   8
TORSDOF 7
ENDMDL
MODEL      185
REMARK 921   NORMALIZED FREE ENERGY PREDICTED BY IDOCK:   -5.09 KCAL/MOL
REMARK 922        TOTAL FREE ENERGY PREDICTED BY IDOCK:   -8.06 KCAL/MOL
REMARK 923 INTER-LIGAND FREE ENERGY PREDICTED BY IDOCK:   -5.64 KCAL/MOL
REMARK 924 INTRA-LIGAND FREE ENERGY PREDICTED BY IDOCK:   -2.41 KCAL/MOL
REMARK 927      BINDING AFFINITY PREDICTED BY RF-SCORE:    0.00 PKD
ROOT
HETATM    1 CL   UNL     1      -8.678   5.905  72.530  1.00  0.00    -0.124 Cl 
HETATM    2  C   UNL     1      -9.433   7.111  71.563  1.00  0.00    -0.157 A  
HETATM    3  C   UNL     1     -10.061   6.748  70.375  1.00  0.00    -0.200 A  
HETATM    4  C   UNL     1     -10.638   7.733  69.571  1.00  0.00    -0.221 A  
HETATM    5  C   UNL     1     -10.601   9.086  69.947  1.00  0.00    -0.240 A  
HETATM    6  C   UNL     1      -9.983   9.431  71.156  1.00  0.00    -0.311 A  
HETATM    7  C   UNL     1      -9.400   8.445  71.959  1.00  0.00    -0.332 A  
ENDROOT
BRANCH   5   8
HETATM    8  C   UNL     1     -11.146  10.154  69.023  1.00  0.00    -0.249 C  
BRANCH   8   9
HETATM    9  C   UNL     1     -11.003   9.805  67.540  1.00  0.00    -0.205 C  
BRANCH   9  10
HETATM   10  C   UNL     1     -10.490  10.958  66.650  1.00  0.00    -0.254 C  
BRANCH  10  11
HETATM   11  S   UNL     1      -8.678  10.792  66.365  1.00  0.00    -0.163 SA 
BRANCH  11  12
HETATM   12  C   UNL     1      -7.815   9.956  67.718  1.00  0.00    -0.094 A  
HETATM   13 CL   UNL     1      -8.075   7.248  66.985  1.00  0.00    -0.115 Cl 
HETATM   14  C   UNL     1      -6.306   9.043  69.979  1.00  0.00    -0.038 A  
HETATM   15  C   UNL     1      -7.533   8.587  67.926  1.00  0.00    -0.097 A  
HETATM   16  C   UNL     1      -6.769   8.152  69.030  1.00  0.00    -0.048 A  
HETATM   17  C   UNL     1      -6.617  10.382  69.847  1.00  0.00    -0.124 A  
HETATM   18  C   UNL     1      -7.360  10.835  68.745  1.00  0.00    -0.104 A  
HETATM   19 CL   UNL     1      -7.688  12.551  68.770  1.00  0.00    -0.053 Cl 
ENDBRANCH  11  12
ENDBRANCH  10  11
BRANCH  10  20
HETATM   20  C   UNL     1     -10.914  12.417  66.933  1.00  0.00    -0.265 C  
BRANCH  20  21
HETATM   21  N   UNL     1     -11.559  13.093  65.815  1.00  0.00    -0.333 NA 
HETATM   22  C   UNL     1     -12.258  12.485  64.807  1.00  0.00    -0.465 A  
HETATM   23  N   UNL     1     -12.705  13.361  63.939  1.00  0.00    -0.650 NA 
HETATM   24  C   UNL     1     -11.492  14.425  65.522  1.00  0.00    -0.340 A  
HETATM   25  C   UNL     1     -12.237  14.574  64.376  1.00  0.00    -0.458 A  
ENDBRANCH  20  21
ENDBRANCH  10  20
ENDBRANCH   9  10
ENDBRANCH   8   9
ENDBRANCH   5   8
TORSDOF 7
ENDMDL
MODEL      186
REMARK 921   NORMALIZED FREE ENERGY PREDICTED BY IDOCK:   -5.08 KCAL/MOL
REMARK 922        TOTAL FREE ENERGY PREDICTED BY IDOCK:   -8.04 KCAL/MOL
REMARK 923 INTER-LIGAND FREE ENERGY PREDICTED BY IDOCK:   -7.41 KCAL/MOL
REMARK 924 INTRA-LIGAND FREE ENERGY PREDICTED BY IDOCK:   -0.63 KCAL/MOL
REMARK 927      BINDING AFFINITY PREDICTED BY RF-SCORE:    0.00 PKD
ROOT
HETATM    1 CL   UNL     1     -12.491  15.522  74.243  1.00  0.00    -0.777 Cl 
HETATM    2  C   UNL     1     -12.383  15.133  72.571  1.00  0.00    -0.370 A  
HETATM    3  C   UNL     1     -12.922  13.938  72.105  1.00  0.00    -0.441 A  
HETATM    4  C   UNL     1     -12.798  13.605  70.754  1.00  0.00    -0.273 A  
HETATM    5  C   UNL     1     -12.143  14.464  69.856  1.00  0.00    -0.398 A  
HETATM    6  C   UNL     1     -11.624  15.673  70.338  1.00  0.00    -0.368 A  
HETATM    7  C   UNL     1     -11.744  16.004  71.693  1.00  0.00    -0.583 A  
ENDROOT
BRANCH   5   8
HETATM    8  C   UNL     1     -11.932  14.050  68.415  1.00  0.00    -0.378 C  
BRANCH   8   9
HETATM    9  C   UNL     1     -11.752  12.542  68.237  1.00  0.00    -0.390 C  
BRANCH   9  10
HETATM   10  C   UNL     1     -10.487  12.128  67.454  1.00  0.00    -0.213 C  
BRANCH  10  11
HETATM   11  S   UNL     1     -10.769  10.535  66.574  1.00  0.00    -0.061 SA 
BRANCH  11  12
HETATM   12  C   UNL     1     -10.027  10.489  64.923  1.00  0.00    -0.334 A  
HETATM   13 CL   UNL     1     -11.411  12.563  63.610  1.00  0.00    -0.512 Cl 
HETATM   14  C   UNL     1      -8.549  10.139  62.491  1.00  0.00    -0.208 A  
HETATM   15  C   UNL     1     -10.238  11.314  63.794  1.00  0.00    -0.377 A  
HETATM   16  C   UNL     1      -9.486  11.147  62.610  1.00  0.00    -0.310 A  
HETATM   17  C   UNL     1      -8.362   9.270  63.548  1.00  0.00    -0.185 A  
HETATM   18  C   UNL     1      -9.086   9.433  64.740  1.00  0.00    -0.193 A  
HETATM   19 CL   UNL     1      -8.743   8.219  65.948  1.00  0.00    -0.173 Cl 
ENDBRANCH  11  12
ENDBRANCH  10  11
BRANCH  10  20
HETATM   20  C   UNL     1      -9.093  12.199  68.117  1.00  0.00    -0.196 C  
BRANCH  20  21
HETATM   21  N   UNL     1      -8.647  10.956  68.733  1.00  0.00    -0.159 NA 
HETATM   22  C   UNL     1      -7.439  10.347  68.525  1.00  0.00    -0.089 A  
HETATM   23  N   UNL     1      -7.340   9.233  69.209  1.00  0.00    -0.068 NA 
HETATM   24  C   UNL     1      -9.388  10.135  69.534  1.00  0.00    -0.210 A  
HETATM   25  C   UNL     1      -8.547   9.091  69.846  1.00  0.00    -0.140 A  
ENDBRANCH  20  21
ENDBRANCH  10  20
ENDBRANCH   9  10
ENDBRANCH   8   9
ENDBRANCH   5   8
TORSDOF 7
ENDMDL
MODEL      187
REMARK 921   NORMALIZED FREE ENERGY PREDICTED BY IDOCK:   -5.07 KCAL/MOL
REMARK 922        TOTAL FREE ENERGY PREDICTED BY IDOCK:   -8.03 KCAL/MOL
REMARK 923 INTER-LIGAND FREE ENERGY PREDICTED BY IDOCK:   -6.54 KCAL/MOL
REMARK 924 INTRA-LIGAND FREE ENERGY PREDICTED BY IDOCK:   -1.48 KCAL/MOL
REMARK 927      BINDING AFFINITY PREDICTED BY RF-SCORE:    0.00 PKD
ROOT
HETATM    1 CL   UNL     1     -11.968  15.710  64.093  1.00  0.00    -0.220 Cl 
HETATM    2  C   UNL     1     -11.474  14.756  65.437  1.00  0.00    -0.341 A  
HETATM    3  C   UNL     1     -10.144  14.779  65.846  1.00  0.00    -0.343 A  
HETATM    4  C   UNL     1      -9.736  13.973  66.911  1.00  0.00    -0.272 A  
HETATM    5  C   UNL     1     -10.652  13.145  67.582  1.00  0.00    -0.235 A  
HETATM    6  C   UNL     1     -11.990  13.151  67.171  1.00  0.00    -0.397 A  
HETATM    7  C   UNL     1     -12.398  13.953  66.099  1.00  0.00    -0.504 A  
ENDROOT
BRANCH   5   8
HETATM    8  C   UNL     1     -10.180  12.208  68.673  1.00  0.00    -0.186 C  
BRANCH   8   9
HETATM    9  C   UNL     1      -9.162  11.174  68.188  1.00  0.00    -0.166 C  
BRANCH   9  10
HETATM   10  C   UNL     1      -9.693  10.194  67.119  1.00  0.00    -0.173 C  
BRANCH  10  11
HETATM   11  S   UNL     1     -10.510   8.752  67.921  1.00  0.00    -0.184 SA 
BRANCH  11  12
HETATM   12  C   UNL     1     -10.230   8.673  69.708  1.00  0.00    -0.206 A  
HETATM   13 CL   UNL     1     -12.415  10.149  70.701  1.00  0.00    -0.381 Cl 
HETATM   14  C   UNL     1      -9.474   8.241  72.439  1.00  0.00    -0.357 A  
HETATM   15  C   UNL     1     -11.001   9.167  70.785  1.00  0.00    -0.270 A  
HETATM   16  C   UNL     1     -10.631   8.927  72.126  1.00  0.00    -0.323 A  
HETATM   17  C   UNL     1      -8.658   7.801  71.416  1.00  0.00    -0.131 A  
HETATM   18  C   UNL     1      -9.020   8.013  70.076  1.00  0.00    -0.144 A  
HETATM   19 CL   UNL     1      -7.848   7.422  68.924  1.00  0.00    -0.115 Cl 
ENDBRANCH  11  12
ENDBRANCH  10  11
BRANCH  10  20
HETATM   20  C   UNL     1      -8.808   9.782  65.921  1.00  0.00    -0.150 C  
BRANCH  20  21
HETATM   21  N   UNL     1      -9.137  10.441  64.664  1.00  0.00    -0.203 NA 
HETATM   22  C   UNL     1     -10.209  11.265  64.449  1.00  0.00    -0.320 A  
HETATM   23  N   UNL     1     -10.243  11.691  63.208  1.00  0.00    -0.406 NA 
HETATM   24  C   UNL     1      -8.502  10.272  63.467  1.00  0.00    -0.182 A  
HETATM   25  C   UNL     1      -9.182  11.082  62.587  1.00  0.00    -0.333 A  
ENDBRANCH  20  21
ENDBRANCH  10  20
ENDBRANCH   9  10
ENDBRANCH   8   9
ENDBRANCH   5   8
TORSDOF 7
ENDMDL
MODEL      188
REMARK 921   NORMALIZED FREE ENERGY PREDICTED BY IDOCK:   -5.07 KCAL/MOL
REMARK 922        TOTAL FREE ENERGY PREDICTED BY IDOCK:   -8.02 KCAL/MOL
REMARK 923 INTER-LIGAND FREE ENERGY PREDICTED BY IDOCK:   -5.82 KCAL/MOL
REMARK 924 INTRA-LIGAND FREE ENERGY PREDICTED BY IDOCK:   -2.20 KCAL/MOL
REMARK 927      BINDING AFFINITY PREDICTED BY RF-SCORE:    0.00 PKD
ROOT
HETATM    1 CL   UNL     1      -7.276   6.849  68.155  1.00  0.00    -0.089 Cl 
HETATM    2  C   UNL     1      -8.500   8.034  68.397  1.00  0.00    -0.127 A  
HETATM    3  C   UNL     1      -8.353   8.980  69.406  1.00  0.00    -0.119 A  
HETATM    4  C   UNL     1      -9.366   9.915  69.628  1.00  0.00    -0.247 A  
HETATM    5  C   UNL     1     -10.530   9.919  68.841  1.00  0.00    -0.229 A  
HETATM    6  C   UNL     1     -10.652   8.973  67.816  1.00  0.00    -0.278 A  
HETATM    7  C   UNL     1      -9.640   8.032  67.597  1.00  0.00    -0.185 A  
ENDROOT
BRANCH   5   8
HETATM    8  C   UNL     1     -11.662  10.877  69.151  1.00  0.00    -0.397 C  
BRANCH   8   9
HETATM    9  C   UNL     1     -11.191  12.309  69.411  1.00  0.00    -0.243 C  
BRANCH   9  10
HETATM   10  C   UNL     1     -11.645  13.341  68.356  1.00  0.00    -0.337 C  
BRANCH  10  11
HETATM   11  S   UNL     1     -10.232  13.819  67.276  1.00  0.00    -0.254 SA 
BRANCH  11  12
HETATM   12  C   UNL     1      -9.517  12.422  66.374  1.00  0.00    -0.240 A  
HETATM   13 CL   UNL     1     -11.556  11.822  64.525  1.00  0.00    -0.337 Cl 
HETATM   14  C   UNL     1      -8.001  10.314  65.158  1.00  0.00    -0.147 A  
HETATM   15  C   UNL     1     -10.009  11.687  65.271  1.00  0.00    -0.255 A  
HETATM   16  C   UNL     1      -9.242  10.667  64.666  1.00  0.00    -0.262 A  
HETATM   17  C   UNL     1      -7.515  10.962  66.276  1.00  0.00    -0.129 A  
HETATM   18  C   UNL     1      -8.254  11.992  66.880  1.00  0.00    -0.146 A  
HETATM   19 CL   UNL     1      -7.498  12.667  68.302  1.00  0.00    -0.114 Cl 
ENDBRANCH  11  12
ENDBRANCH  10  11
BRANCH  10  20
HETATM   20  C   UNL     1     -12.514  14.553  68.765  1.00  0.00     0.138 C  
BRANCH  20  21
HETATM   21  N   UNL     1     -12.450  14.899  70.179  1.00  0.00    -0.323 NA 
HETATM   22  C   UNL     1     -11.511  15.704  70.765  1.00  0.00    -0.379 A  
HETATM   23  N   UNL     1     -11.712  15.812  72.057  1.00  0.00    -0.442 NA 
HETATM   24  C   UNL     1     -13.245  14.404  71.173  1.00  0.00    -0.350 A  
HETATM   25  C   UNL     1     -12.792  15.009  72.323  1.00  0.00    -0.333 A  
ENDBRANCH  20  21
ENDBRANCH  10  20
ENDBRANCH   9  10
ENDBRANCH   8   9
ENDBRANCH   5   8
TORSDOF 7
ENDMDL
MODEL      189
REMARK 921   NORMALIZED FREE ENERGY PREDICTED BY IDOCK:   -5.06 KCAL/MOL
REMARK 922        TOTAL FREE ENERGY PREDICTED BY IDOCK:   -8.02 KCAL/MOL
REMARK 923 INTER-LIGAND FREE ENERGY PREDICTED BY IDOCK:   -7.06 KCAL/MOL
REMARK 924 INTRA-LIGAND FREE ENERGY PREDICTED BY IDOCK:   -0.96 KCAL/MOL
REMARK 927      BINDING AFFINITY PREDICTED BY RF-SCORE:    0.00 PKD
ROOT
HETATM    1 CL   UNL     1     -11.100   6.084  73.111  1.00  0.00    -0.266 Cl 
HETATM    2  C   UNL     1     -11.087   7.525  72.170  1.00  0.00    -0.256 A  
HETATM    3  C   UNL     1     -12.178   8.388  72.217  1.00  0.00    -0.449 A  
HETATM    4  C   UNL     1     -12.184   9.536  71.422  1.00  0.00    -0.455 A  
HETATM    5  C   UNL     1     -11.100   9.838  70.581  1.00  0.00    -0.398 A  
HETATM    6  C   UNL     1     -10.001   8.970  70.563  1.00  0.00    -0.263 A  
HETATM    7  C   UNL     1      -9.997   7.816  71.354  1.00  0.00    -0.207 A  
ENDROOT
BRANCH   5   8
HETATM    8  C   UNL     1     -11.158  11.035  69.656  1.00  0.00    -0.320 C  
BRANCH   8   9
HETATM    9  C   UNL     1      -9.971  11.116  68.693  1.00  0.00    -0.210 C  
BRANCH   9  10
HETATM   10  C   UNL     1     -10.350  11.111  67.196  1.00  0.00    -0.212 C  
BRANCH  10  11
HETATM   11  S   UNL     1     -11.739  12.279  66.882  1.00  0.00    -0.274 SA 
BRANCH  11  12
HETATM   12  C   UNL     1     -11.237  14.017  66.927  1.00  0.00    -0.313 A  
HETATM   13 CL   UNL     1     -12.016  14.777  69.526  1.00  0.00    -0.343 Cl 
HETATM   14  C   UNL     1     -10.224  16.681  66.614  1.00  0.00    -0.304 A  
HETATM   15  C   UNL     1     -11.293  14.967  67.973  1.00  0.00    -0.324 A  
HETATM   16  C   UNL     1     -10.769  16.268  67.814  1.00  0.00    -0.325 A  
HETATM   17  C   UNL     1     -10.212  15.805  65.547  1.00  0.00    -0.407 A  
HETATM   18  C   UNL     1     -10.710  14.500  65.692  1.00  0.00    -0.327 A  
HETATM   19 CL   UNL     1     -10.646  13.551  64.228  1.00  0.00    -0.385 Cl 
ENDBRANCH  11  12
ENDBRANCH  10  11
BRANCH  10  20
HETATM   20  C   UNL     1     -10.512   9.779  66.430  1.00  0.00    -0.120 C  
BRANCH  20  21
HETATM   21  N   UNL     1      -9.405   9.447  65.543  1.00  0.00    -0.239 NA 
HETATM   22  C   UNL     1      -9.260   9.870  64.249  1.00  0.00    -0.265 A  
HETATM   23  N   UNL     1      -8.167   9.390  63.708  1.00  0.00    -0.154 NA 
HETATM   24  C   UNL     1      -8.382   8.582  65.808  1.00  0.00    -0.140 A  
HETATM   25  C   UNL     1      -7.608   8.588  64.671  1.00  0.00    -0.102 A  
ENDBRANCH  20  21
ENDBRANCH  10  20
ENDBRANCH   9  10
ENDBRANCH   8   9
ENDBRANCH   5   8
TORSDOF 7
ENDMDL
MODEL      190
REMARK 921   NORMALIZED FREE ENERGY PREDICTED BY IDOCK:   -5.06 KCAL/MOL
REMARK 922        TOTAL FREE ENERGY PREDICTED BY IDOCK:   -8.02 KCAL/MOL
REMARK 923 INTER-LIGAND FREE ENERGY PREDICTED BY IDOCK:   -7.05 KCAL/MOL
REMARK 924 INTRA-LIGAND FREE ENERGY PREDICTED BY IDOCK:   -0.96 KCAL/MOL
REMARK 927      BINDING AFFINITY PREDICTED BY RF-SCORE:    0.00 PKD
ROOT
HETATM    1 CL   UNL     1      -9.498  20.152  67.202  1.00  0.00    -0.509 Cl 
HETATM    2  C   UNL     1      -9.728  18.514  67.675  1.00  0.00    -0.296 A  
HETATM    3  C   UNL     1      -8.657  17.787  68.186  1.00  0.00    -0.262 A  
HETATM    4  C   UNL     1      -8.835  16.446  68.531  1.00  0.00    -0.224 A  
HETATM    5  C   UNL     1     -10.084  15.820  68.377  1.00  0.00    -0.222 A  
HETATM    6  C   UNL     1     -11.156  16.572  67.881  1.00  0.00    -0.229 A  
HETATM    7  C   UNL     1     -10.977  17.915  67.529  1.00  0.00    -0.104 A  
ENDROOT
BRANCH   5   8
HETATM    8  C   UNL     1     -10.241  14.343  68.666  1.00  0.00    -0.245 C  
BRANCH   8   9
HETATM    9  C   UNL     1     -11.671  13.946  69.038  1.00  0.00    -0.378 C  
BRANCH   9  10
HETATM   10  C   UNL     1     -11.787  12.657  69.880  1.00  0.00    -0.294 C  
BRANCH  10  11
HETATM   11  S   UNL     1     -12.030  11.195  68.786  1.00  0.00    -0.157 SA 
BRANCH  11  12
HETATM   12  C   UNL     1     -10.576  10.804  67.782  1.00  0.00    -0.228 A  
HETATM   13 CL   UNL     1      -8.873   9.598  69.675  1.00  0.00    -0.192 Cl 
HETATM   14  C   UNL     1      -8.531  10.291  65.839  1.00  0.00    -0.154 A  
HETATM   15  C   UNL     1      -9.378  10.134  68.116  1.00  0.00    -0.135 A  
HETATM   16  C   UNL     1      -8.389   9.865  67.145  1.00  0.00    -0.121 A  
HETATM   17  C   UNL     1      -9.658  11.008  65.487  1.00  0.00    -0.263 A  
HETATM   18  C   UNL     1     -10.661  11.267  66.435  1.00  0.00    -0.266 A  
HETATM   19 CL   UNL     1     -11.989  12.219  65.818  1.00  0.00    -0.434 Cl 
ENDBRANCH  11  12
ENDBRANCH  10  11
BRANCH  10  20
HETATM   20  C   UNL     1     -12.691  12.615  71.133  1.00  0.00    -0.254 C  
BRANCH  20  21
HETATM   21  N   UNL     1     -12.951  13.913  71.742  1.00  0.00    -0.345 NA 
HETATM   22  C   UNL     1     -14.158  14.556  71.774  1.00  0.00    -0.495 A  
HETATM   23  N   UNL     1     -14.067  15.716  72.379  1.00  0.00    -0.543 NA 
HETATM   24  C   UNL     1     -12.023  14.754  72.288  1.00  0.00    -0.238 A  
HETATM   25  C   UNL     1     -12.742  15.850  72.708  1.00  0.00    -0.467 A  
ENDBRANCH  20  21
ENDBRANCH  10  20
ENDBRANCH   9  10
ENDBRANCH   8   9
ENDBRANCH   5   8
TORSDOF 7
ENDMDL
MODEL      191
REMARK 921   NORMALIZED FREE ENERGY PREDICTED BY IDOCK:   -5.05 KCAL/MOL
REMARK 922        TOTAL FREE ENERGY PREDICTED BY IDOCK:   -8.00 KCAL/MOL
REMARK 923 INTER-LIGAND FREE ENERGY PREDICTED BY IDOCK:   -7.62 KCAL/MOL
REMARK 924 INTRA-LIGAND FREE ENERGY PREDICTED BY IDOCK:   -0.39 KCAL/MOL
REMARK 927      BINDING AFFINITY PREDICTED BY RF-SCORE:    0.00 PKD
ROOT
HETATM    1 CL   UNL     1      -9.566   5.634  66.248  1.00  0.00    -0.173 Cl 
HETATM    2  C   UNL     1      -9.261   7.305  66.527  1.00  0.00    -0.157 A  
HETATM    3  C   UNL     1      -7.983   7.815  66.323  1.00  0.00    -0.100 A  
HETATM    4  C   UNL     1      -7.727   9.162  66.590  1.00  0.00    -0.097 A  
HETATM    5  C   UNL     1      -8.745  10.012  67.053  1.00  0.00    -0.137 A  
HETATM    6  C   UNL     1     -10.030   9.486  67.233  1.00  0.00    -0.244 A  
HETATM    7  C   UNL     1     -10.286   8.136  66.972  1.00  0.00    -0.378 A  
ENDROOT
BRANCH   5   8
HETATM    8  C   UNL     1      -8.434  11.446  67.427  1.00  0.00    -0.143 C  
BRANCH   8   9
HETATM    9  C   UNL     1      -9.297  11.974  68.575  1.00  0.00    -0.127 C  
BRANCH   9  10
HETATM   10  C   UNL     1     -10.118  13.238  68.239  1.00  0.00    -0.250 C  
BRANCH  10  11
HETATM   11  S   UNL     1     -11.842  13.070  68.866  1.00  0.00    -0.290 SA 
BRANCH  11  12
HETATM   12  C   UNL     1     -12.176  14.093  70.322  1.00  0.00    -0.349 A  
HETATM   13 CL   UNL     1     -11.031  16.555  69.573  1.00  0.00    -0.315 Cl 
HETATM   14  C   UNL     1     -12.973  15.376  72.759  1.00  0.00    -0.551 A  
HETATM   15  C   UNL     1     -11.911  15.459  70.569  1.00  0.00    -0.357 A  
HETATM   16  C   UNL     1     -12.330  16.085  71.763  1.00  0.00    -0.496 A  
HETATM   17  C   UNL     1     -13.190  14.024  72.584  1.00  0.00    -0.606 A  
HETATM   18  C   UNL     1     -12.798  13.388  71.395  1.00  0.00    -0.333 A  
HETATM   19 CL   UNL     1     -13.120  11.671  71.371  1.00  0.00    -0.424 Cl 
ENDBRANCH  11  12
ENDBRANCH  10  11
BRANCH  10  20
HETATM   20  C   UNL     1     -10.061  13.860  66.826  1.00  0.00    -0.265 C  
BRANCH  20  21
HETATM   21  N   UNL     1     -10.872  13.178  65.826  1.00  0.00    -0.272 NA 
HETATM   22  C   UNL     1     -10.399  12.517  64.725  1.00  0.00    -0.307 A  
HETATM   23  N   UNL     1     -11.378  12.021  64.007  1.00  0.00    -0.373 NA 
HETATM   24  C   UNL     1     -12.236  13.167  65.756  1.00  0.00    -0.456 A  
HETATM   25  C   UNL     1     -12.528  12.415  64.641  1.00  0.00    -0.420 A  
ENDBRANCH  20  21
ENDBRANCH  10  20
ENDBRANCH   9  10
ENDBRANCH   8   9
ENDBRANCH   5   8
TORSDOF 7
ENDMDL
MODEL      192
REMARK 921   NORMALIZED FREE ENERGY PREDICTED BY IDOCK:   -5.05 KCAL/MOL
REMARK 922        TOTAL FREE ENERGY PREDICTED BY IDOCK:   -8.00 KCAL/MOL
REMARK 923 INTER-LIGAND FREE ENERGY PREDICTED BY IDOCK:   -7.00 KCAL/MOL
REMARK 924 INTRA-LIGAND FREE ENERGY PREDICTED BY IDOCK:   -1.00 KCAL/MOL
REMARK 927      BINDING AFFINITY PREDICTED BY RF-SCORE:    0.00 PKD
ROOT
HETATM    1 CL   UNL     1      -9.903   4.332  66.280  1.00  0.00    -0.227 Cl 
HETATM    2  C   UNL     1      -9.813   5.673  67.354  1.00  0.00    -0.143 A  
HETATM    3  C   UNL     1      -8.645   6.427  67.417  1.00  0.00    -0.107 A  
HETATM    4  C   UNL     1      -8.558   7.491  68.318  1.00  0.00    -0.124 A  
HETATM    5  C   UNL     1      -9.637   7.816  69.157  1.00  0.00    -0.155 A  
HETATM    6  C   UNL     1     -10.812   7.059  69.066  1.00  0.00    -0.212 A  
HETATM    7  C   UNL     1     -10.897   5.990  68.167  1.00  0.00    -0.365 A  
ENDROOT
BRANCH   5   8
HETATM    8  C   UNL     1      -9.498   8.910  70.195  1.00  0.00    -0.198 C  
BRANCH   8   9
HETATM    9  C   UNL     1      -9.337  10.305  69.587  1.00  0.00    -0.167 C  
BRANCH   9  10
HETATM   10  C   UNL     1     -10.319  10.630  68.441  1.00  0.00    -0.175 C  
BRANCH  10  11
HETATM   11  S   UNL     1      -9.738  12.099  67.495  1.00  0.00    -0.188 SA 
BRANCH  11  12
HETATM   12  C   UNL     1     -10.565  12.294  65.897  1.00  0.00    -0.256 A  
HETATM   13 CL   UNL     1      -9.636  10.039  64.486  1.00  0.00    -0.366 Cl 
HETATM   14  C   UNL     1     -12.116  12.925  63.569  1.00  0.00    -0.633 A  
HETATM   15  C   UNL     1     -10.569  11.464  64.753  1.00  0.00    -0.316 A  
HETATM   16  C   UNL     1     -11.356  11.773  63.622  1.00  0.00    -0.525 A  
HETATM   17  C   UNL     1     -12.086  13.796  64.640  1.00  0.00    -0.452 A  
HETATM   18  C   UNL     1     -11.325  13.496  65.781  1.00  0.00    -0.305 A  
HETATM   19 CL   UNL     1     -11.381  14.732  67.014  1.00  0.00    -0.349 Cl 
ENDBRANCH  11  12
ENDBRANCH  10  11
BRANCH  10  20
HETATM   20  C   UNL     1     -11.843  10.654  68.694  1.00  0.00    -0.064 C  
BRANCH  20  21
HETATM   21  N   UNL     1     -12.249  11.348  69.909  1.00  0.00    -0.293 NA 
HETATM   22  C   UNL     1     -12.786  10.764  71.024  1.00  0.00    -0.415 A  
HETATM   23  N   UNL     1     -13.062  11.656  71.946  1.00  0.00    -0.455 NA 
HETATM   24  C   UNL     1     -12.260  12.699  70.107  1.00  0.00    -0.238 A  
HETATM   25  C   UNL     1     -12.735  12.866  71.388  1.00  0.00    -0.270 A  
ENDBRANCH  20  21
ENDBRANCH  10  20
ENDBRANCH   9  10
ENDBRANCH   8   9
ENDBRANCH   5   8
TORSDOF 7
ENDMDL
MODEL      193
REMARK 921   NORMALIZED FREE ENERGY PREDICTED BY IDOCK:   -5.05 KCAL/MOL
REMARK 922        TOTAL FREE ENERGY PREDICTED BY IDOCK:   -8.00 KCAL/MOL
REMARK 923 INTER-LIGAND FREE ENERGY PREDICTED BY IDOCK:   -6.57 KCAL/MOL
REMARK 924 INTRA-LIGAND FREE ENERGY PREDICTED BY IDOCK:   -1.43 KCAL/MOL
REMARK 927      BINDING AFFINITY PREDICTED BY RF-SCORE:    0.00 PKD
ROOT
HETATM    1 CL   UNL     1     -13.371   8.399  72.525  1.00  0.00    -0.223 Cl 
HETATM    2  C   UNL     1     -12.439   9.390  71.472  1.00  0.00    -0.366 A  
HETATM    3  C   UNL     1     -13.036  10.479  70.843  1.00  0.00    -0.455 A  
HETATM    4  C   UNL     1     -12.289  11.258  69.957  1.00  0.00    -0.330 A  
HETATM    5  C   UNL     1     -10.940  10.963  69.696  1.00  0.00    -0.311 A  
HETATM    6  C   UNL     1     -10.350   9.877  70.354  1.00  0.00    -0.322 A  
HETATM    7  C   UNL     1     -11.099   9.092  71.237  1.00  0.00    -0.405 A  
ENDROOT
BRANCH   5   8
HETATM    8  C   UNL     1     -10.168  11.757  68.664  1.00  0.00    -0.211 C  
BRANCH   8   9
HETATM    9  C   UNL     1      -8.995  10.985  68.057  1.00  0.00    -0.145 C  
BRANCH   9  10
HETATM   10  C   UNL     1      -9.295  10.311  66.701  1.00  0.00    -0.161 C  
BRANCH  10  11
HETATM   11  S   UNL     1      -8.450   8.679  66.594  1.00  0.00    -0.115 SA 
BRANCH  11  12
HETATM   12  C   UNL     1      -8.892   7.554  67.941  1.00  0.00    -0.126 A  
HETATM   13 CL   UNL     1     -11.411   6.610  67.102  1.00  0.00    -0.300 Cl 
HETATM   14  C   UNL     1      -9.169   5.826  70.212  1.00  0.00    -0.174 A  
HETATM   15  C   UNL     1     -10.015   6.711  68.107  1.00  0.00    -0.147 A  
HETATM   16  C   UNL     1     -10.127   5.846  69.218  1.00  0.00    -0.251 A  
HETATM   17  C   UNL     1      -8.091   6.684  70.120  1.00  0.00    -0.124 A  
HETATM   18  C   UNL     1      -7.952   7.536  69.014  1.00  0.00    -0.122 A  
HETATM   19 CL   UNL     1      -6.549   8.574  69.091  1.00  0.00    -0.046 Cl 
ENDBRANCH  11  12
ENDBRANCH  10  11
BRANCH  10  20
HETATM   20  C   UNL     1      -9.198  11.116  65.384  1.00  0.00    -0.205 C  
BRANCH  20  21
HETATM   21  N   UNL     1     -10.473  11.593  64.866  1.00  0.00    -0.274 NA 
HETATM   22  C   UNL     1     -10.837  11.634  63.547  1.00  0.00    -0.425 A  
HETATM   23  N   UNL     1     -12.042  12.131  63.398  1.00  0.00    -0.515 NA 
HETATM   24  C   UNL     1     -11.477  12.174  65.587  1.00  0.00    -0.355 A  
HETATM   25  C   UNL     1     -12.453  12.467  64.663  1.00  0.00    -0.463 A  
ENDBRANCH  20  21
ENDBRANCH  10  20
ENDBRANCH   9  10
ENDBRANCH   8   9
ENDBRANCH   5   8
TORSDOF 7
ENDMDL
MODEL      194
REMARK 921   NORMALIZED FREE ENERGY PREDICTED BY IDOCK:   -5.04 KCAL/MOL
REMARK 922        TOTAL FREE ENERGY PREDICTED BY IDOCK:   -7.98 KCAL/MOL
REMARK 923 INTER-LIGAND FREE ENERGY PREDICTED BY IDOCK:   -6.66 KCAL/MOL
REMARK 924 INTRA-LIGAND FREE ENERGY PREDICTED BY IDOCK:   -1.32 KCAL/MOL
REMARK 927      BINDING AFFINITY PREDICTED BY RF-SCORE:    0.00 PKD
ROOT
HETATM    1 CL   UNL     1     -12.411  14.509  64.132  1.00  0.00    -0.441 Cl 
HETATM    2  C   UNL     1     -11.546  13.079  64.541  1.00  0.00    -0.360 A  
HETATM    3  C   UNL     1     -10.970  12.311  63.534  1.00  0.00    -0.521 A  
HETATM    4  C   UNL     1     -10.303  11.129  63.864  1.00  0.00    -0.441 A  
HETATM    5  C   UNL     1     -10.199  10.707  65.200  1.00  0.00    -0.368 A  
HETATM    6  C   UNL     1     -10.767  11.504  66.203  1.00  0.00    -0.324 A  
HETATM    7  C   UNL     1     -11.440  12.685  65.872  1.00  0.00    -0.407 A  
ENDROOT
BRANCH   5   8
HETATM    8  C   UNL     1      -9.556   9.379  65.537  1.00  0.00    -0.328 C  
BRANCH   8   9
HETATM    9  C   UNL     1      -8.475   9.483  66.614  1.00  0.00    -0.136 C  
BRANCH   9  10
HETATM   10  C   UNL     1      -8.573   8.425  67.735  1.00  0.00    -0.130 C  
BRANCH  10  11
HETATM   11  S   UNL     1     -10.326   7.917  67.986  1.00  0.00    -0.192 SA 
BRANCH  11  12
HETATM   12  C   UNL     1     -10.938   8.260  69.655  1.00  0.00    -0.086 A  
HETATM   13 CL   UNL     1     -10.941  11.077  69.701  1.00  0.00    -0.298 Cl 
HETATM   14  C   UNL     1     -12.004   8.364  72.314  1.00  0.00    -0.455 A  
HETATM   15  C   UNL     1     -11.229   9.485  70.296  1.00  0.00    -0.261 A  
HETATM   16  C   UNL     1     -11.777   9.523  71.597  1.00  0.00    -0.460 A  
HETATM   17  C   UNL     1     -11.669   7.150  71.748  1.00  0.00    -0.324 A  
HETATM   18  C   UNL     1     -11.142   7.092  70.448  1.00  0.00    -0.287 A  
HETATM   19 CL   UNL     1     -10.745   5.476  69.917  1.00  0.00    -0.393 Cl 
ENDBRANCH  11  12
ENDBRANCH  10  11
BRANCH  10  20
HETATM   20  C   UNL     1      -7.817   8.620  69.069  1.00  0.00    -0.100 C  
BRANCH  20  21
HETATM   21  N   UNL     1      -7.406   7.384  69.723  1.00  0.00    -0.081 NA 
HETATM   22  C   UNL     1      -7.049   6.224  69.091  1.00  0.00    -0.077 A  
HETATM   23  N   UNL     1      -6.745   5.283  69.953  1.00  0.00    -0.045 NA 
HETATM   24  C   UNL     1      -7.406   7.137  71.066  1.00  0.00    -0.075 A  
HETATM   25  C   UNL     1      -6.961   5.841  71.188  1.00  0.00    -0.067 A  
ENDBRANCH  20  21
ENDBRANCH  10  20
ENDBRANCH   9  10
ENDBRANCH   8   9
ENDBRANCH   5   8
TORSDOF 7
ENDMDL
MODEL      195
REMARK 921   NORMALIZED FREE ENERGY PREDICTED BY IDOCK:   -5.02 KCAL/MOL
REMARK 922        TOTAL FREE ENERGY PREDICTED BY IDOCK:   -7.95 KCAL/MOL
REMARK 923 INTER-LIGAND FREE ENERGY PREDICTED BY IDOCK:   -6.84 KCAL/MOL
REMARK 924 INTRA-LIGAND FREE ENERGY PREDICTED BY IDOCK:   -1.11 KCAL/MOL
REMARK 927      BINDING AFFINITY PREDICTED BY RF-SCORE:    0.00 PKD
ROOT
HETATM    1 CL   UNL     1      -9.837  20.482  66.874  1.00  0.00    -0.571 Cl 
HETATM    2  C   UNL     1      -9.552  18.842  67.309  1.00  0.00    -0.303 A  
HETATM    3  C   UNL     1      -8.263  18.324  67.238  1.00  0.00    -0.239 A  
HETATM    4  C   UNL     1      -8.040  16.982  67.551  1.00  0.00    -0.189 A  
HETATM    5  C   UNL     1      -9.099  16.147  67.946  1.00  0.00    -0.192 A  
HETATM    6  C   UNL     1     -10.387  16.690  68.032  1.00  0.00    -0.303 A  
HETATM    7  C   UNL     1     -10.612  18.033  67.712  1.00  0.00    -0.409 A  
ENDROOT
BRANCH   5   8
HETATM    8  C   UNL     1      -8.861  14.672  68.193  1.00  0.00    -0.173 C  
BRANCH   8   9
HETATM    9  C   UNL     1      -9.602  13.765  67.209  1.00  0.00    -0.237 C  
BRANCH   9  10
HETATM   10  C   UNL     1     -10.472  12.671  67.866  1.00  0.00    -0.218 C  
BRANCH  10  11
HETATM   11  S   UNL     1      -9.418  11.282  68.459  1.00  0.00    -0.178 SA 
BRANCH  11  12
HETATM   12  C   UNL     1      -8.396  10.554  67.154  1.00  0.00    -0.127 A  
HETATM   13 CL   UNL     1      -6.154  12.261  67.154  1.00  0.00    -0.152 Cl 
HETATM   14  C   UNL     1      -7.066   9.055  65.103  1.00  0.00    -0.087 A  
HETATM   15  C   UNL     1      -7.107  10.901  66.690  1.00  0.00    -0.135 A  
HETATM   16  C   UNL     1      -6.452  10.141  65.697  1.00  0.00    -0.107 A  
HETATM   17  C   UNL     1      -8.352   8.724  65.481  1.00  0.00    -0.153 A  
HETATM   18  C   UNL     1      -9.011   9.456  66.481  1.00  0.00    -0.148 A  
HETATM   19 CL   UNL     1     -10.642   8.916  66.797  1.00  0.00    -0.274 Cl 
ENDBRANCH  11  12
ENDBRANCH  10  11
BRANCH  10  20
HETATM   20  C   UNL     1     -11.768  12.180  67.181  1.00  0.00    -0.302 C  
BRANCH  20  21
HETATM   21  N   UNL     1     -11.850  12.466  65.755  1.00  0.00    -0.478 NA 
HETATM   22  C   UNL     1     -12.698  13.364  65.165  1.00  0.00    -0.399 A  
HETATM   23  N   UNL     1     -12.544  13.383  63.863  1.00  0.00    -0.693 NA 
HETATM   24  C   UNL     1     -11.176  11.821  64.757  1.00  0.00    -0.271 A  
HETATM   25  C   UNL     1     -11.595  12.429  63.596  1.00  0.00    -0.499 A  
ENDBRANCH  20  21
ENDBRANCH  10  20
ENDBRANCH   9  10
ENDBRANCH   8   9
ENDBRANCH   5   8
TORSDOF 7
ENDMDL
MODEL      196
REMARK 921   NORMALIZED FREE ENERGY PREDICTED BY IDOCK:   -5.02 KCAL/MOL
REMARK 922        TOTAL FREE ENERGY PREDICTED BY IDOCK:   -7.95 KCAL/MOL
REMARK 923 INTER-LIGAND FREE ENERGY PREDICTED BY IDOCK:   -6.99 KCAL/MOL
REMARK 924 INTRA-LIGAND FREE ENERGY PREDICTED BY IDOCK:   -0.97 KCAL/MOL
REMARK 927      BINDING AFFINITY PREDICTED BY RF-SCORE:    0.00 PKD
ROOT
HETATM    1 CL   UNL     1     -12.252  13.005  63.321  1.00  0.00    -0.589 Cl 
HETATM    2  C   UNL     1     -11.378  12.075  64.475  1.00  0.00    -0.330 A  
HETATM    3  C   UNL     1     -10.384  11.201  64.045  1.00  0.00    -0.437 A  
HETATM    4  C   UNL     1      -9.704  10.417  64.979  1.00  0.00    -0.362 A  
HETATM    5  C   UNL     1     -10.003  10.503  66.349  1.00  0.00    -0.271 A  
HETATM    6  C   UNL     1     -10.992  11.403  66.766  1.00  0.00    -0.347 A  
HETATM    7  C   UNL     1     -11.678  12.185  65.830  1.00  0.00    -0.393 A  
ENDROOT
BRANCH   5   8
HETATM    8  C   UNL     1      -9.325   9.582  67.341  1.00  0.00    -0.153 C  
BRANCH   8   9
HETATM    9  C   UNL     1      -9.102  10.224  68.711  1.00  0.00    -0.159 C  
BRANCH   9  10
HETATM   10  C   UNL     1      -9.604   9.388  69.908  1.00  0.00    -0.212 C  
BRANCH  10  11
HETATM   11  S   UNL     1      -8.293   8.225  70.475  1.00  0.00    -0.130 SA 
BRANCH  11  12
HETATM   12  C   UNL     1      -8.952   6.718  71.231  1.00  0.00    -0.139 A  
HETATM   13 CL   UNL     1      -9.329   7.530  73.903  1.00  0.00    -0.316 Cl 
HETATM   14  C   UNL     1     -10.034   4.179  72.008  1.00  0.00    -0.250 A  
HETATM   15  C   UNL     1      -9.406   6.469  72.547  1.00  0.00    -0.141 A  
HETATM   16  C   UNL     1      -9.960   5.222  72.910  1.00  0.00    -0.192 A  
HETATM   17  C   UNL     1      -9.539   4.362  70.732  1.00  0.00    -0.259 A  
HETATM   18  C   UNL     1      -9.004   5.601  70.346  1.00  0.00    -0.140 A  
HETATM   19 CL   UNL     1      -8.393   5.630  68.710  1.00  0.00    -0.103 Cl 
ENDBRANCH  11  12
ENDBRANCH  10  11
BRANCH  10  20
HETATM   20  C   UNL     1     -11.004   8.732  69.877  1.00  0.00    -0.179 C  
BRANCH  20  21
HETATM   21  N   UNL     1     -11.976   9.327  70.785  1.00  0.00    -0.251 NA 
HETATM   22  C   UNL     1     -12.781   8.643  71.656  1.00  0.00    -0.341 A  
HETATM   23  N   UNL     1     -13.561   9.458  72.327  1.00  0.00    -0.468 NA 
HETATM   24  C   UNL     1     -12.325  10.645  70.851  1.00  0.00    -0.401 A  
HETATM   25  C   UNL     1     -13.283  10.709  71.837  1.00  0.00    -0.423 A  
ENDBRANCH  20  21
ENDBRANCH  10  20
ENDBRANCH   9  10
ENDBRANCH   8   9
ENDBRANCH   5   8
TORSDOF 7
ENDMDL
MODEL      197
REMARK 921   NORMALIZED FREE ENERGY PREDICTED BY IDOCK:   -5.02 KCAL/MOL
REMARK 922        TOTAL FREE ENERGY PREDICTED BY IDOCK:   -7.95 KCAL/MOL
REMARK 923 INTER-LIGAND FREE ENERGY PREDICTED BY IDOCK:   -6.75 KCAL/MOL
REMARK 924 INTRA-LIGAND FREE ENERGY PREDICTED BY IDOCK:   -1.20 KCAL/MOL
REMARK 927      BINDING AFFINITY PREDICTED BY RF-SCORE:    0.00 PKD
ROOT
HETATM    1 CL   UNL     1     -14.110  14.924  72.337  1.00  0.00    -0.559 Cl 
HETATM    2  C   UNL     1     -13.179  13.941  71.276  1.00  0.00    -0.282 A  
HETATM    3  C   UNL     1     -12.604  14.504  70.140  1.00  0.00    -0.339 A  
HETATM    4  C   UNL     1     -11.883  13.697  69.259  1.00  0.00    -0.395 A  
HETATM    5  C   UNL     1     -11.722  12.323  69.505  1.00  0.00    -0.398 A  
HETATM    6  C   UNL     1     -12.289  11.777  70.664  1.00  0.00    -0.421 A  
HETATM    7  C   UNL     1     -13.017  12.584  71.544  1.00  0.00    -0.379 A  
ENDROOT
BRANCH   5   8
HETATM    8  C   UNL     1     -11.019  11.441  68.496  1.00  0.00    -0.267 C  
BRANCH   8   9
HETATM    9  C   UNL     1     -11.377  11.772  67.046  1.00  0.00    -0.387 C  
BRANCH   9  10
HETATM   10  C   UNL     1     -10.166  12.032  66.123  1.00  0.00    -0.226 C  
BRANCH  10  11
HETATM   11  S   UNL     1      -9.406  10.439  65.598  1.00  0.00    -0.215 SA 
BRANCH  11  12
HETATM   12  C   UNL     1      -8.507   9.603  66.928  1.00  0.00    -0.120 A  
HETATM   13 CL   UNL     1      -6.088  11.048  66.987  1.00  0.00    -0.072 Cl 
HETATM   14  C   UNL     1      -7.473   8.075  69.123  1.00  0.00    -0.095 A  
HETATM   15  C   UNL     1      -7.245   9.878  67.502  1.00  0.00    -0.089 A  
HETATM   16  C   UNL     1      -6.757   9.133  68.599  1.00  0.00    -0.058 A  
HETATM   17  C   UNL     1      -8.680   7.732  68.546  1.00  0.00    -0.128 A  
HETATM   18  C   UNL     1      -9.190   8.473  67.468  1.00  0.00    -0.133 A  
HETATM   19 CL   UNL     1     -10.706   7.868  66.847  1.00  0.00    -0.350 Cl 
ENDBRANCH  11  12
ENDBRANCH  10  11
BRANCH  10  20
HETATM   20  C   UNL     1      -9.110  13.098  66.493  1.00  0.00    -0.124 C  
BRANCH  20  21
HETATM   21  N   UNL     1      -9.528  14.475  66.264  1.00  0.00    -0.295 NA 
HETATM   22  C   UNL     1     -10.115  14.955  65.125  1.00  0.00    -0.319 A  
HETATM   23  N   UNL     1     -10.359  16.241  65.217  1.00  0.00    -0.596 NA 
HETATM   24  C   UNL     1      -9.314  15.538  67.095  1.00  0.00    -0.216 A  
HETATM   25  C   UNL     1      -9.868  16.615  66.442  1.00  0.00    -0.292 A  
ENDBRANCH  20  21
ENDBRANCH  10  20
ENDBRANCH   9  10
ENDBRANCH   8   9
ENDBRANCH   5   8
TORSDOF 7
ENDMDL
MODEL      198
REMARK 921   NORMALIZED FREE ENERGY PREDICTED BY IDOCK:   -5.02 KCAL/MOL
REMARK 922        TOTAL FREE ENERGY PREDICTED BY IDOCK:   -7.95 KCAL/MOL
REMARK 923 INTER-LIGAND FREE ENERGY PREDICTED BY IDOCK:   -6.82 KCAL/MOL
REMARK 924 INTRA-LIGAND FREE ENERGY PREDICTED BY IDOCK:   -1.14 KCAL/MOL
REMARK 927      BINDING AFFINITY PREDICTED BY RF-SCORE:    0.00 PKD
ROOT
HETATM    1 CL   UNL     1     -13.218  15.864  72.997  1.00  0.00    -0.617 Cl 
HETATM    2  C   UNL     1     -12.955  14.505  71.975  1.00  0.00    -0.341 A  
HETATM    3  C   UNL     1     -13.348  13.238  72.398  1.00  0.00    -0.616 A  
HETATM    4  C   UNL     1     -13.097  12.131  71.585  1.00  0.00    -0.413 A  
HETATM    5  C   UNL     1     -12.460  12.278  70.341  1.00  0.00    -0.221 A  
HETATM    6  C   UNL     1     -12.091  13.562  69.922  1.00  0.00    -0.408 A  
HETATM    7  C   UNL     1     -12.336  14.671  70.739  1.00  0.00    -0.398 A  
ENDROOT
BRANCH   5   8
HETATM    8  C   UNL     1     -12.110  11.061  69.511  1.00  0.00    -0.400 C  
BRANCH   8   9
HETATM    9  C   UNL     1     -10.627  10.690  69.573  1.00  0.00    -0.265 C  
BRANCH   9  10
HETATM   10  C   UNL     1     -10.318   9.381  70.332  1.00  0.00    -0.262 C  
BRANCH  10  11
HETATM   11  S   UNL     1      -8.693   8.698  69.796  1.00  0.00    -0.135 SA 
BRANCH  11  12
HETATM   12  C   UNL     1      -8.835   7.114  68.931  1.00  0.00    -0.130 A  
HETATM   13 CL   UNL     1      -8.112   5.286  70.950  1.00  0.00    -0.105 Cl 
HETATM   14  C   UNL     1      -9.258   4.841  67.235  1.00  0.00    -0.139 A  
HETATM   15  C   UNL     1      -8.664   5.790  69.397  1.00  0.00    -0.111 A  
HETATM   16  C   UNL     1      -8.899   4.679  68.558  1.00  0.00    -0.123 A  
HETATM   17  C   UNL     1      -9.369   6.119  66.723  1.00  0.00    -0.152 A  
HETATM   18  C   UNL     1      -9.158   7.237  67.547  1.00  0.00    -0.124 A  
HETATM   19 CL   UNL     1      -9.305   8.766  66.717  1.00  0.00    -0.209 Cl 
ENDBRANCH  11  12
ENDBRANCH  10  11
BRANCH  10  20
HETATM   20  C   UNL     1     -11.399   8.287  70.485  1.00  0.00    -0.219 C  
BRANCH  20  21
HETATM   21  N   UNL     1     -11.217   7.407  71.633  1.00  0.00    -0.243 NA 
HETATM   22  C   UNL     1     -10.630   7.751  72.820  1.00  0.00    -0.341 A  
HETATM   23  N   UNL     1     -10.600   6.736  73.651  1.00  0.00    -0.332 NA 
HETATM   24  C   UNL     1     -11.504   6.073  71.687  1.00  0.00    -0.230 A  
HETATM   25  C   UNL     1     -11.146   5.685  72.958  1.00  0.00    -0.282 A  
ENDBRANCH  20  21
ENDBRANCH  10  20
ENDBRANCH   9  10
ENDBRANCH   8   9
ENDBRANCH   5   8
TORSDOF 7
ENDMDL
MODEL      199
REMARK 921   NORMALIZED FREE ENERGY PREDICTED BY IDOCK:   -5.02 KCAL/MOL
REMARK 922        TOTAL FREE ENERGY PREDICTED BY IDOCK:   -7.95 KCAL/MOL
REMARK 923 INTER-LIGAND FREE ENERGY PREDICTED BY IDOCK:   -7.35 KCAL/MOL
REMARK 924 INTRA-LIGAND FREE ENERGY PREDICTED BY IDOCK:   -0.60 KCAL/MOL
REMARK 927      BINDING AFFINITY PREDICTED BY RF-SCORE:    0.00 PKD
ROOT
HETATM    1 CL   UNL     1      -9.614  18.980  68.830  1.00  0.00    -0.441 Cl 
HETATM    2  C   UNL     1     -10.236  17.458  68.322  1.00  0.00    -0.362 A  
HETATM    3  C   UNL     1     -10.617  16.517  69.274  1.00  0.00    -0.327 A  
HETATM    4  C   UNL     1     -11.083  15.267  68.861  1.00  0.00    -0.269 A  
HETATM    5  C   UNL     1     -11.180  14.948  67.496  1.00  0.00    -0.334 A  
HETATM    6  C   UNL     1     -10.811  15.914  66.551  1.00  0.00    -0.198 A  
HETATM    7  C   UNL     1     -10.338  17.164  66.965  1.00  0.00    -0.308 A  
ENDROOT
BRANCH   5   8
HETATM    8  C   UNL     1     -11.597  13.559  67.062  1.00  0.00    -0.394 C  
BRANCH   8   9
HETATM    9  C   UNL     1     -10.416  12.654  66.706  1.00  0.00    -0.254 C  
BRANCH   9  10
HETATM   10  C   UNL     1     -10.500  11.223  67.280  1.00  0.00    -0.214 C  
BRANCH  10  11
HETATM   11  S   UNL     1     -10.082  11.224  69.074  1.00  0.00    -0.066 SA 
BRANCH  11  12
HETATM   12  C   UNL     1     -11.092  10.078  70.045  1.00  0.00    -0.295 A  
HETATM   13 CL   UNL     1     -10.145   7.578  69.155  1.00  0.00    -0.187 Cl 
HETATM   14  C   UNL     1     -12.817   8.626  71.816  1.00  0.00    -0.397 A  
HETATM   15  C   UNL     1     -11.074   8.667  70.116  1.00  0.00    -0.192 A  
HETATM   16  C   UNL     1     -11.912   7.964  71.010  1.00  0.00    -0.268 A  
HETATM   17  C   UNL     1     -12.912  10.001  71.727  1.00  0.00    -0.560 A  
HETATM   18  C   UNL     1     -12.074  10.718  70.858  1.00  0.00    -0.370 A  
HETATM   19 CL   UNL     1     -12.366  12.440  70.854  1.00  0.00    -0.438 Cl 
ENDBRANCH  11  12
ENDBRANCH  10  11
BRANCH  10  20
HETATM   20  C   UNL     1      -9.863  10.034  66.525  1.00  0.00    -0.210 C  
BRANCH  20  21
HETATM   21  N   UNL     1      -9.497  10.315  65.143  1.00  0.00    -0.228 NA 
HETATM   22  C   UNL     1      -8.261  10.126  64.588  1.00  0.00    -0.165 A  
HETATM   23  N   UNL     1      -8.242  10.488  63.327  1.00  0.00    -0.144 NA 
HETATM   24  C   UNL     1     -10.286  10.907  64.198  1.00  0.00    -0.364 A  
HETATM   25  C   UNL     1      -9.500  10.972  63.071  1.00  0.00    -0.363 A  
ENDBRANCH  20  21
ENDBRANCH  10  20
ENDBRANCH   9  10
ENDBRANCH   8   9
ENDBRANCH   5   8
TORSDOF 7
ENDMDL
MODEL      200
REMARK 921   NORMALIZED FREE ENERGY PREDICTED BY IDOCK:   -5.01 KCAL/MOL
REMARK 922        TOTAL FREE ENERGY PREDICTED BY IDOCK:   -7.94 KCAL/MOL
REMARK 923 INTER-LIGAND FREE ENERGY PREDICTED BY IDOCK:   -5.76 KCAL/MOL
REMARK 924 INTRA-LIGAND FREE ENERGY PREDICTED BY IDOCK:   -2.18 KCAL/MOL
REMARK 927      BINDING AFFINITY PREDICTED BY RF-SCORE:    0.00 PKD
ROOT
HETATM    1 CL   UNL     1      -8.320   5.707  66.665  1.00  0.00    -0.112 Cl 
HETATM    2  C   UNL     1      -9.000   7.139  67.333  1.00  0.00    -0.122 A  
HETATM    3  C   UNL     1      -8.358   7.780  68.388  1.00  0.00    -0.125 A  
HETATM    4  C   UNL     1      -8.932   8.919  68.956  1.00  0.00    -0.137 A  
HETATM    5  C   UNL     1     -10.146   9.433  68.472  1.00  0.00    -0.208 A  
HETATM    6  C   UNL     1     -10.768   8.788  67.396  1.00  0.00    -0.216 A  
HETATM    7  C   UNL     1     -10.197   7.643  66.830  1.00  0.00    -0.365 A  
ENDROOT
BRANCH   5   8
HETATM    8  C   UNL     1     -10.806  10.612  69.156  1.00  0.00    -0.279 C  
BRANCH   8   9
HETATM    9  C   UNL     1     -10.290  11.966  68.663  1.00  0.00    -0.218 C  
BRANCH   9  10
HETATM   10  C   UNL     1     -11.076  12.565  67.477  1.00  0.00    -0.267 C  
BRANCH  10  11
HETATM   11  S   UNL     1      -9.937  12.942  66.078  1.00  0.00    -0.258 SA 
BRANCH  11  12
HETATM   12  C   UNL     1      -9.095  11.477  65.427  1.00  0.00    -0.052 A  
HETATM   13 CL   UNL     1      -6.876  11.273  67.151  1.00  0.00    -0.104 Cl 
HETATM   14  C   UNL     1      -8.134   9.096  64.152  1.00  0.00    -0.149 A  
HETATM   15  C   UNL     1      -7.940  10.800  65.881  1.00  0.00    -0.140 A  
HETATM   16  C   UNL     1      -7.491   9.614  65.259  1.00  0.00    -0.113 A  
HETATM   17  C   UNL     1      -9.227   9.765  63.638  1.00  0.00    -0.229 A  
HETATM   18  C   UNL     1      -9.700  10.935  64.255  1.00  0.00    -0.294 A  
HETATM   19 CL   UNL     1     -11.064  11.662  63.441  1.00  0.00    -0.461 Cl 
ENDBRANCH  11  12
ENDBRANCH  10  11
BRANCH  10  20
HETATM   20  C   UNL     1     -12.119  13.682  67.708  1.00  0.00    -0.290 C  
BRANCH  20  21
HETATM   21  N   UNL     1     -11.874  14.511  68.880  1.00  0.00    -0.324 NA 
HETATM   22  C   UNL     1     -10.917  15.484  68.988  1.00  0.00    -0.256 A  
HETATM   23  N   UNL     1     -10.935  16.044  70.174  1.00  0.00    -0.349 NA 
HETATM   24  C   UNL     1     -12.480  14.395  70.099  1.00  0.00    -0.339 A  
HETATM   25  C   UNL     1     -11.907  15.376  70.874  1.00  0.00    -0.356 A  
ENDBRANCH  20  21
ENDBRANCH  10  20
ENDBRANCH   9  10
ENDBRANCH   8   9
ENDBRANCH   5   8
TORSDOF 7
ENDMDL
MODEL      201
REMARK 921   NORMALIZED FREE ENERGY PREDICTED BY IDOCK:   -5.00 KCAL/MOL
REMARK 922        TOTAL FREE ENERGY PREDICTED BY IDOCK:   -7.93 KCAL/MOL
REMARK 923 INTER-LIGAND FREE ENERGY PREDICTED BY IDOCK:   -7.27 KCAL/MOL
REMARK 924 INTRA-LIGAND FREE ENERGY PREDICTED BY IDOCK:   -0.66 KCAL/MOL
REMARK 927      BINDING AFFINITY PREDICTED BY RF-SCORE:    0.00 PKD
ROOT
HETATM    1 CL   UNL     1      -9.306  20.275  67.066  1.00  0.00    -0.515 Cl 
HETATM    2  C   UNL     1      -9.502  18.670  67.656  1.00  0.00    -0.293 A  
HETATM    3  C   UNL     1      -8.416  18.005  68.216  1.00  0.00    -0.293 A  
HETATM    4  C   UNL     1      -8.566  16.688  68.657  1.00  0.00    -0.253 A  
HETATM    5  C   UNL     1      -9.802  16.028  68.551  1.00  0.00    -0.216 A  
HETATM    6  C   UNL     1     -10.890  16.720  68.005  1.00  0.00    -0.341 A  
HETATM    7  C   UNL     1     -10.738  18.037  67.557  1.00  0.00    -0.352 A  
ENDROOT
BRANCH   5   8
HETATM    8  C   UNL     1      -9.929  14.572  68.947  1.00  0.00    -0.206 C  
BRANCH   8   9
HETATM    9  C   UNL     1      -9.737  13.606  67.776  1.00  0.00    -0.225 C  
BRANCH   9  10
HETATM   10  C   UNL     1     -10.648  12.360  67.808  1.00  0.00    -0.217 C  
BRANCH  10  11
HETATM   11  S   UNL     1     -10.034  11.148  69.051  1.00  0.00    -0.078 SA 
BRANCH  11  12
HETATM   12  C   UNL     1     -11.295  10.657  70.254  1.00  0.00    -0.319 A  
HETATM   13 CL   UNL     1     -12.531  13.121  70.835  1.00  0.00    -0.440 Cl 
HETATM   14  C   UNL     1     -13.188   9.457  72.042  1.00  0.00    -0.529 A  
HETATM   15  C   UNL     1     -12.298  11.415  70.900  1.00  0.00    -0.381 A  
HETATM   16  C   UNL     1     -13.240  10.808  71.760  1.00  0.00    -0.523 A  
HETATM   17  C   UNL     1     -12.182   8.695  71.483  1.00  0.00    -0.368 A  
HETATM   18  C   UNL     1     -11.248   9.277  70.611  1.00  0.00    -0.276 A  
HETATM   19 CL   UNL     1     -10.029   8.166  70.035  1.00  0.00    -0.189 Cl 
ENDBRANCH  11  12
ENDBRANCH  10  11
BRANCH  10  20
HETATM   20  C   UNL     1     -11.101  11.682  66.494  1.00  0.00    -0.301 C  
BRANCH  20  21
HETATM   21  N   UNL     1     -10.076  10.880  65.838  1.00  0.00    -0.243 NA 
HETATM   22  C   UNL     1      -9.863   9.542  66.029  1.00  0.00    -0.283 A  
HETATM   23  N   UNL     1      -8.856   9.110  65.307  1.00  0.00    -0.191 NA 
HETATM   24  C   UNL     1      -9.094  11.339  65.007  1.00  0.00    -0.070 A  
HETATM   25  C   UNL     1      -8.371  10.220  64.662  1.00  0.00    -0.169 A  
ENDBRANCH  20  21
ENDBRANCH  10  20
ENDBRANCH   9  10
ENDBRANCH   8   9
ENDBRANCH   5   8
TORSDOF 7
ENDMDL
MODEL      202
REMARK 921   NORMALIZED FREE ENERGY PREDICTED BY IDOCK:   -4.97 KCAL/MOL
REMARK 922        TOTAL FREE ENERGY PREDICTED BY IDOCK:   -7.88 KCAL/MOL
REMARK 923 INTER-LIGAND FREE ENERGY PREDICTED BY IDOCK:   -6.99 KCAL/MOL
REMARK 924 INTRA-LIGAND FREE ENERGY PREDICTED BY IDOCK:   -0.89 KCAL/MOL
REMARK 927      BINDING AFFINITY PREDICTED BY RF-SCORE:    0.00 PKD
ROOT
HETATM    1 CL   UNL     1      -8.632  19.129  67.644  1.00  0.00    -0.319 Cl 
HETATM    2  C   UNL     1      -9.559  17.713  67.952  1.00  0.00    -0.282 A  
HETATM    3  C   UNL     1      -9.637  16.716  66.984  1.00  0.00    -0.250 A  
HETATM    4  C   UNL     1     -10.423  15.586  67.219  1.00  0.00    -0.279 A  
HETATM    5  C   UNL     1     -11.131  15.437  68.423  1.00  0.00    -0.301 A  
HETATM    6  C   UNL     1     -11.025  16.440  69.395  1.00  0.00    -0.325 A  
HETATM    7  C   UNL     1     -10.242  17.575  69.158  1.00  0.00    -0.256 A  
ENDROOT
BRANCH   5   8
HETATM    8  C   UNL     1     -12.053  14.253  68.628  1.00  0.00    -0.295 C  
BRANCH   8   9
HETATM    9  C   UNL     1     -11.801  13.110  67.644  1.00  0.00    -0.405 C  
BRANCH   9  10
HETATM   10  C   UNL     1     -10.769  12.063  68.117  1.00  0.00    -0.216 C  
BRANCH  10  11
HETATM   11  S   UNL     1      -9.196  12.240  67.175  1.00  0.00    -0.203 SA 
BRANCH  11  12
HETATM   12  C   UNL     1      -9.160  11.258  65.655  1.00  0.00    -0.189 A  
HETATM   13 CL   UNL     1      -7.662   9.010  66.455  1.00  0.00    -0.098 Cl 
HETATM   14  C   UNL     1      -9.410   9.992  63.094  1.00  0.00    -0.297 A  
HETATM   15  C   UNL     1      -8.613   9.981  65.395  1.00  0.00    -0.151 A  
HETATM   16  C   UNL     1      -8.764   9.358  64.137  1.00  0.00    -0.224 A  
HETATM   17  C   UNL     1      -9.899  11.269  63.288  1.00  0.00    -0.418 A  
HETATM   18  C   UNL     1      -9.776  11.897  64.538  1.00  0.00    -0.107 A  
HETATM   19 CL   UNL     1     -10.418  13.520  64.581  1.00  0.00    -0.435 Cl 
ENDBRANCH  11  12
ENDBRANCH  10  11
BRANCH  10  20
HETATM   20  C   UNL     1     -11.180  10.586  68.311  1.00  0.00    -0.291 C  
BRANCH  20  21
HETATM   21  N   UNL     1     -11.474  10.210  69.688  1.00  0.00    -0.226 NA 
HETATM   22  C   UNL     1     -12.482  10.722  70.459  1.00  0.00    -0.360 A  
HETATM   23  N   UNL     1     -12.480  10.195  71.661  1.00  0.00    -0.408 NA 
HETATM   24  C   UNL     1     -10.741   9.369  70.475  1.00  0.00    -0.276 A  
HETATM   25  C   UNL     1     -11.401   9.347  71.682  1.00  0.00    -0.382 A  
ENDBRANCH  20  21
ENDBRANCH  10  20
ENDBRANCH   9  10
ENDBRANCH   8   9
ENDBRANCH   5   8
TORSDOF 7
ENDMDL
MODEL      203
REMARK 921   NORMALIZED FREE ENERGY PREDICTED BY IDOCK:   -4.97 KCAL/MOL
REMARK 922        TOTAL FREE ENERGY PREDICTED BY IDOCK:   -7.88 KCAL/MOL
REMARK 923 INTER-LIGAND FREE ENERGY PREDICTED BY IDOCK:   -7.02 KCAL/MOL
REMARK 924 INTRA-LIGAND FREE ENERGY PREDICTED BY IDOCK:   -0.86 KCAL/MOL
REMARK 927      BINDING AFFINITY PREDICTED BY RF-SCORE:    0.00 PKD
ROOT
HETATM    1 CL   UNL     1     -13.804  15.659  72.065  1.00  0.00    -0.557 Cl 
HETATM    2  C   UNL     1     -13.173  14.163  71.496  1.00  0.00    -0.353 A  
HETATM    3  C   UNL     1     -12.403  14.136  70.337  1.00  0.00    -0.428 A  
HETATM    4  C   UNL     1     -11.926  12.916  69.855  1.00  0.00    -0.377 A  
HETATM    5  C   UNL     1     -12.205  11.714  70.527  1.00  0.00    -0.451 A  
HETATM    6  C   UNL     1     -12.964  11.762  71.703  1.00  0.00    -0.467 A  
HETATM    7  C   UNL     1     -13.448  12.984  72.184  1.00  0.00    -0.638 A  
ENDROOT
BRANCH   5   8
HETATM    8  C   UNL     1     -11.762  10.389  69.944  1.00  0.00    -0.341 C  
BRANCH   8   9
HETATM    9  C   UNL     1     -10.247  10.179  69.996  1.00  0.00    -0.271 C  
BRANCH   9  10
HETATM   10  C   UNL     1      -9.528  10.309  68.635  1.00  0.00    -0.169 C  
BRANCH  10  11
HETATM   11  S   UNL     1     -10.380   9.290  67.359  1.00  0.00    -0.272 SA 
BRANCH  11  12
HETATM   12  C   UNL     1      -9.863   9.683  65.669  1.00  0.00    -0.299 A  
HETATM   13 CL   UNL     1     -11.321  12.038  65.151  1.00  0.00    -0.371 Cl 
HETATM   14  C   UNL     1      -8.732   9.986  63.052  1.00  0.00    -0.216 A  
HETATM   15  C   UNL     1     -10.186  10.779  64.837  1.00  0.00    -0.320 A  
HETATM   16  C   UNL     1      -9.603  10.930  63.560  1.00  0.00    -0.354 A  
HETATM   17  C   UNL     1      -8.444   8.866  63.807  1.00  0.00    -0.147 A  
HETATM   18  C   UNL     1      -8.999   8.709  65.087  1.00  0.00    -0.058 A  
HETATM   19 CL   UNL     1      -8.551   7.215  65.873  1.00  0.00    -0.155 Cl 
ENDBRANCH  11  12
ENDBRANCH  10  11
BRANCH  10  20
HETATM   20  C   UNL     1      -7.989  10.203  68.546  1.00  0.00    -0.104 C  
BRANCH  20  21
HETATM   21  N   UNL     1      -7.328  11.377  67.989  1.00  0.00    -0.086 NA 
HETATM   22  C   UNL     1      -6.094  11.396  67.399  1.00  0.00    -0.074 A  
HETATM   23  N   UNL     1      -5.768  12.606  67.011  1.00  0.00    -0.310 NA 
HETATM   24  C   UNL     1      -7.775  12.666  68.049  1.00  0.00    -0.139 A  
HETATM   25  C   UNL     1      -6.809  13.406  67.407  1.00  0.00    -0.066 A  
ENDBRANCH  20  21
ENDBRANCH  10  20
ENDBRANCH   9  10
ENDBRANCH   8   9
ENDBRANCH   5   8
TORSDOF 7
ENDMDL
MODEL      204
REMARK 921   NORMALIZED FREE ENERGY PREDICTED BY IDOCK:   -4.97 KCAL/MOL
REMARK 922        TOTAL FREE ENERGY PREDICTED BY IDOCK:   -7.88 KCAL/MOL
REMARK 923 INTER-LIGAND FREE ENERGY PREDICTED BY IDOCK:   -7.10 KCAL/MOL
REMARK 924 INTRA-LIGAND FREE ENERGY PREDICTED BY IDOCK:   -0.78 KCAL/MOL
REMARK 927      BINDING AFFINITY PREDICTED BY RF-SCORE:    0.00 PKD
ROOT
HETATM    1 CL   UNL     1      -9.796   3.680  65.621  1.00  0.00    -0.106 Cl 
HETATM    2  C   UNL     1      -9.635   5.285  66.220  1.00  0.00    -0.161 A  
HETATM    3  C   UNL     1     -10.663   5.845  66.972  1.00  0.00    -0.396 A  
HETATM    4  C   UNL     1     -10.549   7.162  67.423  1.00  0.00    -0.372 A  
HETATM    5  C   UNL     1      -9.407   7.927  67.135  1.00  0.00    -0.190 A  
HETATM    6  C   UNL     1      -8.373   7.341  66.394  1.00  0.00    -0.124 A  
HETATM    7  C   UNL     1      -8.489   6.023  65.937  1.00  0.00    -0.143 A  
ENDROOT
BRANCH   5   8
HETATM    8  C   UNL     1      -9.335   9.382  67.549  1.00  0.00    -0.147 C  
BRANCH   8   9
HETATM    9  C   UNL     1     -10.702  10.066  67.604  1.00  0.00    -0.340 C  
BRANCH   9  10
HETATM   10  C   UNL     1     -10.689  11.570  67.255  1.00  0.00    -0.244 C  
BRANCH  10  11
HETATM   11  S   UNL     1      -9.565  12.483  68.394  1.00  0.00    -0.129 SA 
BRANCH  11  12
HETATM   12  C   UNL     1     -10.089  14.188  68.700  1.00  0.00    -0.229 A  
HETATM   13 CL   UNL     1     -12.305  13.816  70.400  1.00  0.00    -0.421 Cl 
HETATM   14  C   UNL     1     -10.530  17.006  68.990  1.00  0.00    -0.337 A  
HETATM   15  C   UNL     1     -11.115  14.703  69.523  1.00  0.00    -0.266 A  
HETATM   16  C   UNL     1     -11.307  16.094  69.677  1.00  0.00    -0.316 A  
HETATM   17  C   UNL     1      -9.560  16.541  68.124  1.00  0.00    -0.226 A  
HETATM   18  C   UNL     1      -9.342  15.163  67.973  1.00  0.00    -0.187 A  
HETATM   19 CL   UNL     1      -8.103  14.765  66.808  1.00  0.00    -0.082 Cl 
ENDBRANCH  11  12
ENDBRANCH  10  11
BRANCH  10  20
HETATM   20  C   UNL     1     -12.010  12.329  66.994  1.00  0.00    -0.143 C  
BRANCH  20  21
HETATM   21  N   UNL     1     -12.108  12.947  65.678  1.00  0.00    -0.438 NA 
HETATM   22  C   UNL     1     -12.562  14.212  65.419  1.00  0.00    -0.466 A  
HETATM   23  N   UNL     1     -12.545  14.473  64.134  1.00  0.00    -0.768 NA 
HETATM   24  C   UNL     1     -11.865  12.344  64.477  1.00  0.00    -0.384 A  
HETATM   25  C   UNL     1     -12.109  13.318  63.536  1.00  0.00    -0.482 A  
ENDBRANCH  20  21
ENDBRANCH  10  20
ENDBRANCH   9  10
ENDBRANCH   8   9
ENDBRANCH   5   8
TORSDOF 7
ENDMDL
MODEL      205
REMARK 921   NORMALIZED FREE ENERGY PREDICTED BY IDOCK:   -4.94 KCAL/MOL
REMARK 922        TOTAL FREE ENERGY PREDICTED BY IDOCK:   -7.85 KCAL/MOL
REMARK 923 INTER-LIGAND FREE ENERGY PREDICTED BY IDOCK:   -6.76 KCAL/MOL
REMARK 924 INTRA-LIGAND FREE ENERGY PREDICTED BY IDOCK:   -1.09 KCAL/MOL
REMARK 927      BINDING AFFINITY PREDICTED BY RF-SCORE:    0.00 PKD
ROOT
HETATM    1 CL   UNL     1      -9.612   4.075  66.730  1.00  0.00    -0.225 Cl 
HETATM    2  C   UNL     1      -9.617   5.436  67.782  1.00  0.00    -0.128 A  
HETATM    3  C   UNL     1      -8.420   6.076  68.086  1.00  0.00    -0.115 A  
HETATM    4  C   UNL     1      -8.421   7.155  68.973  1.00  0.00    -0.129 A  
HETATM    5  C   UNL     1      -9.615   7.610  69.556  1.00  0.00    -0.163 A  
HETATM    6  C   UNL     1     -10.814   6.967  69.223  1.00  0.00    -0.270 A  
HETATM    7  C   UNL     1     -10.813   5.882  68.339  1.00  0.00    -0.322 A  
ENDROOT
BRANCH   5   8
HETATM    8  C   UNL     1      -9.591   8.719  70.586  1.00  0.00    -0.240 C  
BRANCH   8   9
HETATM    9  C   UNL     1      -9.331  10.101  69.984  1.00  0.00    -0.062 C  
BRANCH   9  10
HETATM   10  C   UNL     1     -10.111  10.399  68.686  1.00  0.00    -0.176 C  
BRANCH  10  11
HETATM   11  S   UNL     1      -9.218  11.652  67.673  1.00  0.00    -0.183 SA 
BRANCH  11  12
HETATM   12  C   UNL     1     -10.106  12.118  66.166  1.00  0.00    -0.228 A  
HETATM   13 CL   UNL     1     -11.037  14.697  66.816  1.00  0.00    -0.328 Cl 
HETATM   14  C   UNL     1     -11.321  12.492  63.596  1.00  0.00    -0.555 A  
HETATM   15  C   UNL     1     -10.761  13.321  65.816  1.00  0.00    -0.277 A  
HETATM   16  C   UNL     1     -11.334  13.501  64.538  1.00  0.00    -0.386 A  
HETATM   17  C   UNL     1     -10.750  11.278  63.924  1.00  0.00    -0.451 A  
HETATM   18  C   UNL     1     -10.158  11.086  65.182  1.00  0.00    -0.289 A  
HETATM   19 CL   UNL     1      -9.523   9.478  65.428  1.00  0.00    -0.330 Cl 
ENDBRANCH  11  12
ENDBRANCH  10  11
BRANCH  10  20
HETATM   20  C   UNL     1     -11.636  10.648  68.725  1.00  0.00    -0.239 C  
BRANCH  20  21
HETATM   21  N   UNL     1     -12.089  11.491  69.825  1.00  0.00    -0.315 NA 
HETATM   22  C   UNL     1     -11.938  12.848  69.908  1.00  0.00    -0.307 A  
HETATM   23  N   UNL     1     -12.435  13.317  71.028  1.00  0.00    -0.370 NA 
HETATM   24  C   UNL     1     -12.642  11.066  70.999  1.00  0.00    -0.411 A  
HETATM   25  C   UNL     1     -12.881  12.216  71.715  1.00  0.00    -0.262 A  
ENDBRANCH  20  21
ENDBRANCH  10  20
ENDBRANCH   9  10
ENDBRANCH   8   9
ENDBRANCH   5   8
TORSDOF 7
ENDMDL
MODEL      206
REMARK 921   NORMALIZED FREE ENERGY PREDICTED BY IDOCK:   -4.94 KCAL/MOL
REMARK 922        TOTAL FREE ENERGY PREDICTED BY IDOCK:   -7.84 KCAL/MOL
REMARK 923 INTER-LIGAND FREE ENERGY PREDICTED BY IDOCK:   -6.83 KCAL/MOL
REMARK 924 INTRA-LIGAND FREE ENERGY PREDICTED BY IDOCK:   -1.01 KCAL/MOL
REMARK 927      BINDING AFFINITY PREDICTED BY RF-SCORE:    0.00 PKD
ROOT
HETATM    1 CL   UNL     1      -9.347  20.834  67.429  1.00  0.00    -0.488 Cl 
HETATM    2  C   UNL     1      -9.441  19.153  67.787  1.00  0.00    -0.303 A  
HETATM    3  C   UNL     1      -8.302  18.473  68.206  1.00  0.00    -0.344 A  
HETATM    4  C   UNL     1      -8.370  17.101  68.456  1.00  0.00    -0.262 A  
HETATM    5  C   UNL     1      -9.576  16.398  68.299  1.00  0.00    -0.221 A  
HETATM    6  C   UNL     1     -10.718  17.102  67.896  1.00  0.00    -0.355 A  
HETATM    7  C   UNL     1     -10.648  18.475  67.639  1.00  0.00    -0.450 A  
ENDROOT
BRANCH   5   8
HETATM    8  C   UNL     1      -9.616  14.895  68.482  1.00  0.00    -0.215 C  
BRANCH   8   9
HETATM    9  C   UNL     1     -10.066  14.142  67.229  1.00  0.00    -0.256 C  
BRANCH   9  10
HETATM   10  C   UNL     1     -10.123  12.607  67.381  1.00  0.00    -0.218 C  
BRANCH  10  11
HETATM   11  S   UNL     1      -8.480  11.864  67.007  1.00  0.00    -0.178 SA 
BRANCH  11  12
HETATM   12  C   UNL     1      -7.543  11.416  68.490  1.00  0.00    -0.129 A  
HETATM   13 CL   UNL     1      -8.922   9.123  69.374  1.00  0.00    -0.143 Cl 
HETATM   14  C   UNL     1      -5.759  11.011  70.698  1.00  0.00    -0.122 A  
HETATM   15  C   UNL     1      -7.682  10.321  69.372  1.00  0.00    -0.146 A  
HETATM   16  C   UNL     1      -6.782  10.119  70.442  1.00  0.00    -0.134 A  
HETATM   17  C   UNL     1      -5.631  12.130  69.899  1.00  0.00    -0.112 A  
HETATM   18  C   UNL     1      -6.505  12.337  68.819  1.00  0.00    -0.082 A  
HETATM   19 CL   UNL     1      -6.213  13.823  67.948  1.00  0.00    -0.145 Cl 
ENDBRANCH  11  12
ENDBRANCH  10  11
BRANCH  10  20
HETATM   20  C   UNL     1     -11.291  11.799  66.771  1.00  0.00    -0.320 C  
BRANCH  20  21
HETATM   21  N   UNL     1     -11.586  12.111  65.379  1.00  0.00    -0.349 NA 
HETATM   22  C   UNL     1     -12.576  12.948  64.938  1.00  0.00    -0.458 A  
HETATM   23  N   UNL     1     -12.601  13.011  63.628  1.00  0.00    -0.731 NA 
HETATM   24  C   UNL     1     -11.003  11.550  64.279  1.00  0.00    -0.341 A  
HETATM   25  C   UNL     1     -11.622  12.147  63.205  1.00  0.00    -0.332 A  
ENDBRANCH  20  21
ENDBRANCH  10  20
ENDBRANCH   9  10
ENDBRANCH   8   9
ENDBRANCH   5   8
TORSDOF 7
ENDMDL
MODEL      207
REMARK 921   NORMALIZED FREE ENERGY PREDICTED BY IDOCK:   -4.93 KCAL/MOL
REMARK 922        TOTAL FREE ENERGY PREDICTED BY IDOCK:   -7.83 KCAL/MOL
REMARK 923 INTER-LIGAND FREE ENERGY PREDICTED BY IDOCK:   -5.41 KCAL/MOL
REMARK 924 INTRA-LIGAND FREE ENERGY PREDICTED BY IDOCK:   -2.43 KCAL/MOL
REMARK 927      BINDING AFFINITY PREDICTED BY RF-SCORE:    0.00 PKD
ROOT
HETATM    1 CL   UNL     1     -10.362   7.623  73.366  1.00  0.00    -0.399 Cl 
HETATM    2  C   UNL     1      -9.967   8.532  71.959  1.00  0.00    -0.313 A  
HETATM    3  C   UNL     1     -10.985   9.093  71.193  1.00  0.00    -0.390 A  
HETATM    4  C   UNL     1     -10.665   9.796  70.030  1.00  0.00    -0.326 A  
HETATM    5  C   UNL     1      -9.329   9.951  69.624  1.00  0.00    -0.247 A  
HETATM    6  C   UNL     1      -8.317   9.397  70.417  1.00  0.00    -0.234 A  
HETATM    7  C   UNL     1      -8.636   8.688  71.580  1.00  0.00    -0.254 A  
ENDROOT
BRANCH   5   8
HETATM    8  C   UNL     1      -9.001  10.633  68.313  1.00  0.00    -0.143 C  
BRANCH   8   9
HETATM    9  C   UNL     1      -7.748  10.075  67.635  1.00  0.00    -0.091 C  
BRANCH   9  10
HETATM   10  C   UNL     1      -8.020   9.034  66.527  1.00  0.00    -0.103 C  
BRANCH  10  11
HETATM   11  S   UNL     1      -7.510   7.355  67.085  1.00  0.00    -0.108 SA 
BRANCH  11  12
HETATM   12  C   UNL     1      -8.676   6.604  68.249  1.00  0.00    -0.118 A  
HETATM   13 CL   UNL     1     -11.147   7.564  67.292  1.00  0.00    -0.161 Cl 
HETATM   14  C   UNL     1     -10.172   5.170  70.231  1.00  0.00    -0.342 A  
HETATM   15  C   UNL     1     -10.089   6.640  68.291  1.00  0.00    -0.159 A  
HETATM   16  C   UNL     1     -10.815   5.910  69.258  1.00  0.00    -0.414 A  
HETATM   17  C   UNL     1      -8.792   5.163  70.264  1.00  0.00    -0.144 A  
HETATM   18  C   UNL     1      -8.053   5.867  69.299  1.00  0.00    -0.106 A  
HETATM   19 CL   UNL     1      -6.323   5.773  69.525  1.00  0.00    -0.038 Cl 
ENDBRANCH  11  12
ENDBRANCH  10  11
BRANCH  10  20
HETATM   20  C   UNL     1      -7.614   9.320  65.063  1.00  0.00    -0.107 C  
BRANCH  20  21
HETATM   21  N   UNL     1      -8.596  10.074  64.295  1.00  0.00    -0.173 NA 
HETATM   22  C   UNL     1      -8.337  10.818  63.175  1.00  0.00    -0.053 A  
HETATM   23  N   UNL     1      -9.425  11.392  62.720  1.00  0.00    -0.355 NA 
HETATM   24  C   UNL     1      -9.912  10.254  64.612  1.00  0.00    -0.307 A  
HETATM   25  C   UNL     1     -10.414  11.045  63.605  1.00  0.00    -0.322 A  
ENDBRANCH  20  21
ENDBRANCH  10  20
ENDBRANCH   9  10
ENDBRANCH   8   9
ENDBRANCH   5   8
TORSDOF 7
ENDMDL
MODEL      208
REMARK 921   NORMALIZED FREE ENERGY PREDICTED BY IDOCK:   -4.92 KCAL/MOL
REMARK 922        TOTAL FREE ENERGY PREDICTED BY IDOCK:   -7.81 KCAL/MOL
REMARK 923 INTER-LIGAND FREE ENERGY PREDICTED BY IDOCK:   -6.33 KCAL/MOL
REMARK 924 INTRA-LIGAND FREE ENERGY PREDICTED BY IDOCK:   -1.48 KCAL/MOL
REMARK 927      BINDING AFFINITY PREDICTED BY RF-SCORE:    0.00 PKD
ROOT
HETATM    1 CL   UNL     1      -7.187  19.278  68.727  1.00  0.00    -0.367 Cl 
HETATM    2  C   UNL     1      -7.498  17.651  68.261  1.00  0.00    -0.251 A  
HETATM    3  C   UNL     1      -7.867  17.368  66.950  1.00  0.00    -0.258 A  
HETATM    4  C   UNL     1      -8.158  16.053  66.584  1.00  0.00    -0.311 A  
HETATM    5  C   UNL     1      -8.076  15.008  67.519  1.00  0.00    -0.200 A  
HETATM    6  C   UNL     1      -7.683  15.308  68.829  1.00  0.00    -0.147 A  
HETATM    7  C   UNL     1      -7.397  16.626  69.198  1.00  0.00    -0.217 A  
ENDROOT
BRANCH   5   8
HETATM    8  C   UNL     1      -8.484  13.601  67.135  1.00  0.00    -0.186 C  
BRANCH   8   9
HETATM    9  C   UNL     1      -9.428  12.946  68.145  1.00  0.00    -0.218 C  
BRANCH   9  10
HETATM   10  C   UNL     1     -10.715  12.349  67.536  1.00  0.00    -0.228 C  
BRANCH  10  11
HETATM   11  S   UNL     1     -12.156  13.442  67.885  1.00  0.00    -0.146 SA 
BRANCH  11  12
HETATM   12  C   UNL     1     -12.009  14.342  69.449  1.00  0.00    -0.337 A  
HETATM   13 CL   UNL     1     -11.030  16.840  68.588  1.00  0.00    -0.328 Cl 
HETATM   14  C   UNL     1     -12.005  15.425  72.104  1.00  0.00    -0.514 A  
HETATM   15  C   UNL     1     -11.626  15.677  69.712  1.00  0.00    -0.352 A  
HETATM   16  C   UNL     1     -11.652  16.206  71.021  1.00  0.00    -0.434 A  
HETATM   17  C   UNL     1     -12.320  14.096  71.897  1.00  0.00    -0.281 A  
HETATM   18  C   UNL     1     -12.319  13.558  70.600  1.00  0.00    -0.358 A  
HETATM   19 CL   UNL     1     -12.705  11.856  70.539  1.00  0.00    -0.173 Cl 
ENDBRANCH  11  12
ENDBRANCH  10  11
BRANCH  10  20
HETATM   20  C   UNL     1     -11.051  10.852  67.718  1.00  0.00    -0.309 C  
BRANCH  20  21
HETATM   21  N   UNL     1      -9.946  10.034  68.202  1.00  0.00    -0.149 NA 
HETATM   22  C   UNL     1      -9.711   9.696  69.507  1.00  0.00    -0.203 A  
HETATM   23  N   UNL     1      -8.629   8.964  69.625  1.00  0.00    -0.127 NA 
HETATM   24  C   UNL     1      -8.905   9.553  67.460  1.00  0.00    -0.125 A  
HETATM   25  C   UNL     1      -8.120   8.865  68.355  1.00  0.00    -0.109 A  
ENDBRANCH  20  21
ENDBRANCH  10  20
ENDBRANCH   9  10
ENDBRANCH   8   9
ENDBRANCH   5   8
TORSDOF 7
ENDMDL
MODEL      209
REMARK 921   NORMALIZED FREE ENERGY PREDICTED BY IDOCK:   -4.89 KCAL/MOL
REMARK 922        TOTAL FREE ENERGY PREDICTED BY IDOCK:   -7.77 KCAL/MOL
REMARK 923 INTER-LIGAND FREE ENERGY PREDICTED BY IDOCK:   -6.70 KCAL/MOL
REMARK 924 INTRA-LIGAND FREE ENERGY PREDICTED BY IDOCK:   -1.06 KCAL/MOL
REMARK 927      BINDING AFFINITY PREDICTED BY RF-SCORE:    0.00 PKD
ROOT
HETATM    1 CL   UNL     1     -12.808  14.046  65.243  1.00  0.00    -0.481 Cl 
HETATM    2  C   UNL     1     -11.792  12.670  65.431  1.00  0.00    -0.427 A  
HETATM    3  C   UNL     1     -11.209  12.086  64.310  1.00  0.00    -0.421 A  
HETATM    4  C   UNL     1     -10.419  10.945  64.460  1.00  0.00    -0.393 A  
HETATM    5  C   UNL     1     -10.196  10.382  65.728  1.00  0.00    -0.305 A  
HETATM    6  C   UNL     1     -10.773  10.995  66.847  1.00  0.00    -0.325 A  
HETATM    7  C   UNL     1     -11.570  12.135  66.697  1.00  0.00    -0.416 A  
ENDROOT
BRANCH   5   8
HETATM    8  C   UNL     1      -9.414   9.092  65.867  1.00  0.00    -0.326 C  
BRANCH   8   9
HETATM    9  C   UNL     1     -10.157   8.015  66.660  1.00  0.00    -0.329 C  
BRANCH   9  10
HETATM   10  C   UNL     1      -9.316   6.766  67.001  1.00  0.00    -0.143 C  
BRANCH  10  11
HETATM   11  S   UNL     1      -8.602   6.917  68.693  1.00  0.00    -0.122 SA 
BRANCH  11  12
HETATM   12  C   UNL     1      -9.698   7.761  69.859  1.00  0.00    -0.176 A  
HETATM   13 CL   UNL     1      -8.927  10.452  69.532  1.00  0.00    -0.170 Cl 
HETATM   14  C   UNL     1     -11.650   8.706  71.735  1.00  0.00    -0.403 A  
HETATM   15  C   UNL     1      -9.861   9.137  70.140  1.00  0.00    -0.198 A  
HETATM   16  C   UNL     1     -10.843   9.591  71.048  1.00  0.00    -0.423 A  
HETATM   17  C   UNL     1     -11.476   7.350  71.539  1.00  0.00    -0.292 A  
HETATM   18  C   UNL     1     -10.518   6.881  70.625  1.00  0.00    -0.210 A  
HETATM   19 CL   UNL     1     -10.416   5.139  70.539  1.00  0.00    -0.313 Cl 
ENDBRANCH  11  12
ENDBRANCH  10  11
BRANCH  10  20
HETATM   20  C   UNL     1      -8.305   6.196  65.981  1.00  0.00    -0.136 C  
BRANCH  20  21
HETATM   21  N   UNL     1      -8.799   5.072  65.196  1.00  0.00    -0.153 NA 
HETATM   22  C   UNL     1      -9.877   4.289  65.509  1.00  0.00    -0.215 A  
HETATM   23  N   UNL     1     -10.061   3.348  64.614  1.00  0.00    -0.124 NA 
HETATM   24  C   UNL     1      -8.217   4.543  64.079  1.00  0.00    -0.106 A  
HETATM   25  C   UNL     1      -9.035   3.497  63.716  1.00  0.00    -0.095 A  
ENDBRANCH  20  21
ENDBRANCH  10  20
ENDBRANCH   9  10
ENDBRANCH   8   9
ENDBRANCH   5   8
TORSDOF 7
ENDMDL
MODEL      210
REMARK 921   NORMALIZED FREE ENERGY PREDICTED BY IDOCK:   -4.88 KCAL/MOL
REMARK 922        TOTAL FREE ENERGY PREDICTED BY IDOCK:   -7.76 KCAL/MOL
REMARK 923 INTER-LIGAND FREE ENERGY PREDICTED BY IDOCK:   -6.74 KCAL/MOL
REMARK 924 INTRA-LIGAND FREE ENERGY PREDICTED BY IDOCK:   -1.02 KCAL/MOL
REMARK 927      BINDING AFFINITY PREDICTED BY RF-SCORE:    0.00 PKD
ROOT
HETATM    1 CL   UNL     1     -13.727  15.664  72.531  1.00  0.00    -0.633 Cl 
HETATM    2  C   UNL     1     -13.201  14.257  71.691  1.00  0.00    -0.356 A  
HETATM    3  C   UNL     1     -12.498  14.390  70.497  1.00  0.00    -0.416 A  
HETATM    4  C   UNL     1     -12.108  13.247  69.796  1.00  0.00    -0.355 A  
HETATM    5  C   UNL     1     -12.407  11.964  70.282  1.00  0.00    -0.287 A  
HETATM    6  C   UNL     1     -13.097  11.849  71.496  1.00  0.00    -0.377 A  
HETATM    7  C   UNL     1     -13.494  12.993  72.196  1.00  0.00    -0.638 A  
ENDROOT
BRANCH   5   8
HETATM    8  C   UNL     1     -12.061  10.736  69.468  1.00  0.00    -0.344 C  
BRANCH   8   9
HETATM    9  C   UNL     1     -11.317   9.666  70.269  1.00  0.00    -0.311 C  
BRANCH   9  10
HETATM   10  C   UNL     1      -9.827   9.498  69.898  1.00  0.00    -0.226 C  
BRANCH  10  11
HETATM   11  S   UNL     1      -9.573   9.817  68.101  1.00  0.00    -0.144 SA 
BRANCH  11  12
HETATM   12  C   UNL     1      -9.416  11.575  67.703  1.00  0.00    -0.168 A  
HETATM   13 CL   UNL     1     -11.588  11.968  65.951  1.00  0.00    -0.405 Cl 
HETATM   14  C   UNL     1      -8.863  14.373  67.403  1.00  0.00    -0.211 A  
HETATM   15  C   UNL     1     -10.231  12.419  66.914  1.00  0.00    -0.225 A  
HETATM   16  C   UNL     1      -9.962  13.800  66.794  1.00  0.00    -0.270 A  
HETATM   17  C   UNL     1      -8.004  13.569  68.127  1.00  0.00    -0.149 A  
HETATM   18  C   UNL     1      -8.266  12.198  68.273  1.00  0.00    -0.168 A  
HETATM   19 CL   UNL     1      -7.051  11.339  69.188  1.00  0.00    -0.116 Cl 
ENDBRANCH  11  12
ENDBRANCH  10  11
BRANCH  10  20
HETATM   20  C   UNL     1      -9.024   8.277  70.401  1.00  0.00    -0.146 C  
BRANCH  20  21
HETATM   21  N   UNL     1      -9.336   7.023  69.729  1.00  0.00    -0.147 NA 
HETATM   22  C   UNL     1     -10.523   6.346  69.805  1.00  0.00    -0.215 A  
HETATM   23  N   UNL     1     -10.490   5.240  69.101  1.00  0.00    -0.198 NA 
HETATM   24  C   UNL     1      -8.473   6.257  68.997  1.00  0.00    -0.120 A  
HETATM   25  C   UNL     1      -9.219   5.175  68.589  1.00  0.00    -0.119 A  
ENDBRANCH  20  21
ENDBRANCH  10  20
ENDBRANCH   9  10
ENDBRANCH   8   9
ENDBRANCH   5   8
TORSDOF 7
ENDMDL
MODEL      211
REMARK 921   NORMALIZED FREE ENERGY PREDICTED BY IDOCK:   -4.86 KCAL/MOL
REMARK 922        TOTAL FREE ENERGY PREDICTED BY IDOCK:   -7.73 KCAL/MOL
REMARK 923 INTER-LIGAND FREE ENERGY PREDICTED BY IDOCK:   -6.76 KCAL/MOL
REMARK 924 INTRA-LIGAND FREE ENERGY PREDICTED BY IDOCK:   -0.97 KCAL/MOL
REMARK 927      BINDING AFFINITY PREDICTED BY RF-SCORE:    0.00 PKD
ROOT
HETATM    1 CL   UNL     1      -6.606   8.152  62.552  1.00  0.00    -0.086 Cl 
HETATM    2  C   UNL     1      -7.416   9.167  63.681  1.00  0.00    -0.106 A  
HETATM    3  C   UNL     1      -6.694   9.772  64.705  1.00  0.00    -0.114 A  
HETATM    4  C   UNL     1      -7.359  10.563  65.645  1.00  0.00    -0.126 A  
HETATM    5  C   UNL     1      -8.747  10.762  65.567  1.00  0.00    -0.196 A  
HETATM    6  C   UNL     1      -9.455  10.162  64.518  1.00  0.00    -0.364 A  
HETATM    7  C   UNL     1      -8.790   9.365  63.580  1.00  0.00    -0.198 A  
ENDROOT
BRANCH   5   8
HETATM    8  C   UNL     1      -9.470  11.543  66.644  1.00  0.00    -0.208 C  
BRANCH   8   9
HETATM    9  C   UNL     1     -10.985  11.326  66.638  1.00  0.00    -0.326 C  
BRANCH   9  10
HETATM   10  C   UNL     1     -11.757  12.118  67.715  1.00  0.00    -0.320 C  
BRANCH  10  11
HETATM   11  S   UNL     1     -12.327  13.734  67.040  1.00  0.00    -0.122 SA 
BRANCH  11  12
HETATM   12  C   UNL     1     -11.373  15.143  67.657  1.00  0.00    -0.321 A  
HETATM   13 CL   UNL     1     -12.543  15.570  70.185  1.00  0.00    -0.371 Cl 
HETATM   14  C   UNL     1      -9.590  17.298  68.285  1.00  0.00    -0.288 A  
HETATM   15  C   UNL     1     -11.421  15.815  68.899  1.00  0.00    -0.378 A  
HETATM   16  C   UNL     1     -10.521  16.860  69.206  1.00  0.00    -0.319 A  
HETATM   17  C   UNL     1      -9.556  16.712  67.036  1.00  0.00    -0.250 A  
HETATM   18  C   UNL     1     -10.430  15.659  66.720  1.00  0.00    -0.297 A  
HETATM   19 CL   UNL     1     -10.267  15.071  65.083  1.00  0.00    -0.412 Cl 
ENDBRANCH  11  12
ENDBRANCH  10  11
BRANCH  10  20
HETATM   20  C   UNL     1     -11.199  12.240  69.152  1.00  0.00    -0.242 C  
BRANCH  20  21
HETATM   21  N   UNL     1     -11.617  11.180  70.060  1.00  0.00    -0.321 NA 
HETATM   22  C   UNL     1     -11.152   9.893  70.058  1.00  0.00    -0.285 A  
HETATM   23  N   UNL     1     -11.733   9.173  70.987  1.00  0.00    -0.289 NA 
HETATM   24  C   UNL     1     -12.610  11.257  70.995  1.00  0.00    -0.394 A  
HETATM   25  C   UNL     1     -12.641  10.012  71.581  1.00  0.00    -0.427 A  
ENDBRANCH  20  21
ENDBRANCH  10  20
ENDBRANCH   9  10
ENDBRANCH   8   9
ENDBRANCH   5   8
TORSDOF 7
ENDMDL
MODEL      212
REMARK 921   NORMALIZED FREE ENERGY PREDICTED BY IDOCK:   -4.86 KCAL/MOL
REMARK 922        TOTAL FREE ENERGY PREDICTED BY IDOCK:   -7.73 KCAL/MOL
REMARK 923 INTER-LIGAND FREE ENERGY PREDICTED BY IDOCK:   -7.13 KCAL/MOL
REMARK 924 INTRA-LIGAND FREE ENERGY PREDICTED BY IDOCK:   -0.60 KCAL/MOL
REMARK 927      BINDING AFFINITY PREDICTED BY RF-SCORE:    0.00 PKD
ROOT
HETATM    1 CL   UNL     1      -6.922   7.871  65.747  1.00  0.00    -0.056 Cl 
HETATM    2  C   UNL     1      -8.108   8.649  66.721  1.00  0.00    -0.101 A  
HETATM    3  C   UNL     1      -9.436   8.669  66.305  1.00  0.00    -0.307 A  
HETATM    4  C   UNL     1     -10.390   9.336  67.077  1.00  0.00    -0.325 A  
HETATM    5  C   UNL     1     -10.030   9.981  68.271  1.00  0.00    -0.173 A  
HETATM    6  C   UNL     1      -8.693   9.934  68.685  1.00  0.00    -0.124 A  
HETATM    7  C   UNL     1      -7.735   9.271  67.910  1.00  0.00    -0.088 A  
ENDROOT
BRANCH   5   8
HETATM    8  C   UNL     1     -11.054  10.780  69.050  1.00  0.00    -0.308 C  
BRANCH   8   9
HETATM    9  C   UNL     1     -11.804  11.803  68.195  1.00  0.00    -0.324 C  
BRANCH   9  10
HETATM   10  C   UNL     1     -10.975  13.041  67.790  1.00  0.00    -0.251 C  
BRANCH  10  11
HETATM   11  S   UNL     1     -11.979  14.574  67.974  1.00  0.00    -0.211 SA 
BRANCH  11  12
HETATM   12  C   UNL     1     -11.026  16.089  67.707  1.00  0.00    -0.307 A  
HETATM   13 CL   UNL     1     -10.730  16.099  64.905  1.00  0.00    -0.387 Cl 
HETATM   14  C   UNL     1      -9.605  18.579  67.716  1.00  0.00    -0.311 A  
HETATM   15  C   UNL     1     -10.593  16.707  66.512  1.00  0.00    -0.203 A  
HETATM   16  C   UNL     1      -9.915  17.946  66.528  1.00  0.00    -0.357 A  
HETATM   17  C   UNL     1      -9.952  17.974  68.907  1.00  0.00    -0.347 A  
HETATM   18  C   UNL     1     -10.643  16.753  68.911  1.00  0.00    -0.350 A  
HETATM   19 CL   UNL     1     -10.961  16.123  70.509  1.00  0.00    -0.322 Cl 
ENDBRANCH  11  12
ENDBRANCH  10  11
BRANCH  10  20
HETATM   20  C   UNL     1     -10.136  13.036  66.492  1.00  0.00    -0.270 C  
BRANCH  20  21
HETATM   21  N   UNL     1     -10.869  12.650  65.293  1.00  0.00    -0.281 NA 
HETATM   22  C   UNL     1     -10.314  12.238  64.113  1.00  0.00    -0.369 A  
HETATM   23  N   UNL     1     -11.235  11.976  63.216  1.00  0.00    -0.364 NA 
HETATM   24  C   UNL     1     -12.220  12.731  65.106  1.00  0.00    -0.477 A  
HETATM   25  C   UNL     1     -12.428  12.276  63.825  1.00  0.00    -0.515 A  
ENDBRANCH  20  21
ENDBRANCH  10  20
ENDBRANCH   9  10
ENDBRANCH   8   9
ENDBRANCH   5   8
TORSDOF 7
ENDMDL
MODEL      213
REMARK 921   NORMALIZED FREE ENERGY PREDICTED BY IDOCK:   -4.86 KCAL/MOL
REMARK 922        TOTAL FREE ENERGY PREDICTED BY IDOCK:   -7.73 KCAL/MOL
REMARK 923 INTER-LIGAND FREE ENERGY PREDICTED BY IDOCK:   -5.45 KCAL/MOL
REMARK 924 INTRA-LIGAND FREE ENERGY PREDICTED BY IDOCK:   -2.27 KCAL/MOL
REMARK 927      BINDING AFFINITY PREDICTED BY RF-SCORE:    0.00 PKD
ROOT
HETATM    1 CL   UNL     1      -7.855   7.758  72.567  1.00  0.00    -0.119 Cl 
HETATM    2  C   UNL     1      -8.722   7.913  71.089  1.00  0.00    -0.136 A  
HETATM    3  C   UNL     1      -8.646   6.902  70.137  1.00  0.00    -0.141 A  
HETATM    4  C   UNL     1      -9.318   7.047  68.921  1.00  0.00    -0.139 A  
HETATM    5  C   UNL     1     -10.076   8.198  68.648  1.00  0.00    -0.211 A  
HETATM    6  C   UNL     1     -10.158   9.197  69.626  1.00  0.00    -0.206 A  
HETATM    7  C   UNL     1      -9.481   9.054  70.842  1.00  0.00    -0.331 A  
ENDROOT
BRANCH   5   8
HETATM    8  C   UNL     1     -10.721   8.387  67.292  1.00  0.00    -0.230 C  
BRANCH   8   9
HETATM    9  C   UNL     1      -9.713   8.629  66.167  1.00  0.00    -0.292 C  
BRANCH   9  10
HETATM   10  C   UNL     1      -9.530  10.110  65.770  1.00  0.00    -0.208 C  
BRANCH  10  11
HETATM   11  S   UNL     1      -7.754  10.587  65.871  1.00  0.00    -0.140 SA 
BRANCH  11  12
HETATM   12  C   UNL     1      -7.078  10.476  67.546  1.00  0.00    -0.089 A  
HETATM   13 CL   UNL     1      -7.657  13.034  68.575  1.00  0.00    -0.129 Cl 
HETATM   14  C   UNL     1      -5.966   9.858  70.116  1.00  0.00    -0.058 A  
HETATM   15  C   UNL     1      -7.093  11.405  68.610  1.00  0.00    -0.095 A  
HETATM   16  C   UNL     1      -6.564  11.081  69.879  1.00  0.00    -0.142 A  
HETATM   17  C   UNL     1      -5.871   8.948  69.082  1.00  0.00    -0.039 A  
HETATM   18  C   UNL     1      -6.409   9.245  67.820  1.00  0.00    -0.059 A  
HETATM   19 CL   UNL     1      -6.160   7.991  66.631  1.00  0.00    -0.048 Cl 
ENDBRANCH  11  12
ENDBRANCH  10  11
BRANCH  10  20
HETATM   20  C   UNL     1     -10.468  11.199  66.339  1.00  0.00    -0.260 C  
BRANCH  20  21
HETATM   21  N   UNL     1     -11.201  11.958  65.333  1.00  0.00    -0.314 NA 
HETATM   22  C   UNL     1     -12.198  12.862  65.582  1.00  0.00    -0.463 A  
HETATM   23  N   UNL     1     -12.674  13.368  64.469  1.00  0.00    -0.659 NA 
HETATM   24  C   UNL     1     -11.095  11.825  63.978  1.00  0.00    -0.390 A  
HETATM   25  C   UNL     1     -11.991  12.732  63.462  1.00  0.00    -0.555 A  
ENDBRANCH  20  21
ENDBRANCH  10  20
ENDBRANCH   9  10
ENDBRANCH   8   9
ENDBRANCH   5   8
TORSDOF 7
ENDMDL
MODEL      214
REMARK 921   NORMALIZED FREE ENERGY PREDICTED BY IDOCK:   -4.84 KCAL/MOL
REMARK 922        TOTAL FREE ENERGY PREDICTED BY IDOCK:   -7.70 KCAL/MOL
REMARK 923 INTER-LIGAND FREE ENERGY PREDICTED BY IDOCK:   -5.24 KCAL/MOL
REMARK 924 INTRA-LIGAND FREE ENERGY PREDICTED BY IDOCK:   -2.45 KCAL/MOL
REMARK 927      BINDING AFFINITY PREDICTED BY RF-SCORE:    0.00 PKD
ROOT
HETATM    1 CL   UNL     1      -5.925   9.062  72.054  1.00  0.00    -0.079 Cl 
HETATM    2  C   UNL     1      -7.194   9.302  70.917  1.00  0.00    -0.102 A  
HETATM    3  C   UNL     1      -7.098  10.331  69.985  1.00  0.00    -0.161 A  
HETATM    4  C   UNL     1      -8.147  10.550  69.090  1.00  0.00    -0.152 A  
HETATM    5  C   UNL     1      -9.296   9.743  69.111  1.00  0.00    -0.185 A  
HETATM    6  C   UNL     1      -9.367   8.699  70.043  1.00  0.00    -0.165 A  
HETATM    7  C   UNL     1      -8.319   8.482  70.944  1.00  0.00    -0.166 A  
ENDROOT
BRANCH   5   8
HETATM    8  C   UNL     1     -10.465  10.049  68.200  1.00  0.00    -0.250 C  
BRANCH   8   9
HETATM    9  C   UNL     1     -10.531   9.139  66.971  1.00  0.00    -0.311 C  
BRANCH   9  10
HETATM   10  C   UNL     1     -10.006   9.774  65.666  1.00  0.00    -0.282 C  
BRANCH  10  11
HETATM   11  S   UNL     1      -8.592   8.799  65.001  1.00  0.00    -0.139 SA 
BRANCH  11  12
HETATM   12  C   UNL     1      -7.434   8.256  66.281  1.00  0.00    -0.079 A  
HETATM   13 CL   UNL     1      -8.822   6.093  67.437  1.00  0.00    -0.108 Cl 
HETATM   14  C   UNL     1      -5.304   7.671  68.110  1.00  0.00    -0.027 A  
HETATM   15  C   UNL     1      -7.501   7.171  67.185  1.00  0.00    -0.098 A  
HETATM   16  C   UNL     1      -6.435   6.879  68.064  1.00  0.00    -0.050 A  
HETATM   17  C   UNL     1      -5.230   8.780  67.290  1.00  0.00    -0.033 A  
HETATM   18  C   UNL     1      -6.271   9.075  66.395  1.00  0.00    -0.064 A  
HETATM   19 CL   UNL     1      -6.017  10.534  65.470  1.00  0.00    -0.127 Cl 
ENDBRANCH  11  12
ENDBRANCH  10  11
BRANCH  10  20
HETATM   20  C   UNL     1      -9.769  11.299  65.573  1.00  0.00    -0.229 C  
BRANCH  20  21
HETATM   21  N   UNL     1     -10.859  12.049  64.962  1.00  0.00    -0.294 NA 
HETATM   22  C   UNL     1     -12.021  12.421  65.581  1.00  0.00    -0.386 A  
HETATM   23  N   UNL     1     -12.812  13.073  64.762  1.00  0.00    -0.745 NA 
HETATM   24  C   UNL     1     -10.956  12.418  63.650  1.00  0.00    -0.470 A  
HETATM   25  C   UNL     1     -12.158  13.081  63.557  1.00  0.00    -0.542 A  
ENDBRANCH  20  21
ENDBRANCH  10  20
ENDBRANCH   9  10
ENDBRANCH   8   9
ENDBRANCH   5   8
TORSDOF 7
ENDMDL
MODEL      215
REMARK 921   NORMALIZED FREE ENERGY PREDICTED BY IDOCK:   -4.84 KCAL/MOL
REMARK 922        TOTAL FREE ENERGY PREDICTED BY IDOCK:   -7.70 KCAL/MOL
REMARK 923 INTER-LIGAND FREE ENERGY PREDICTED BY IDOCK:   -7.08 KCAL/MOL
REMARK 924 INTRA-LIGAND FREE ENERGY PREDICTED BY IDOCK:   -0.62 KCAL/MOL
REMARK 927      BINDING AFFINITY PREDICTED BY RF-SCORE:    0.00 PKD
ROOT
HETATM    1 CL   UNL     1      -9.825   4.071  69.827  1.00  0.00    -0.252 Cl 
HETATM    2  C   UNL     1      -9.614   5.740  69.468  1.00  0.00    -0.141 A  
HETATM    3  C   UNL     1      -8.555   6.142  68.659  1.00  0.00    -0.113 A  
HETATM    4  C   UNL     1      -8.361   7.501  68.402  1.00  0.00    -0.125 A  
HETATM    5  C   UNL     1      -9.225   8.469  68.942  1.00  0.00    -0.146 A  
HETATM    6  C   UNL     1     -10.297   8.044  69.737  1.00  0.00    -0.219 A  
HETATM    7  C   UNL     1     -10.488   6.684  70.000  1.00  0.00    -0.250 A  
ENDROOT
BRANCH   5   8
HETATM    8  C   UNL     1      -8.950   9.943  68.733  1.00  0.00    -0.140 C  
BRANCH   8   9
HETATM    9  C   UNL     1     -10.189  10.822  68.908  1.00  0.00    -0.219 C  
BRANCH   9  10
HETATM   10  C   UNL     1     -10.010  12.290  68.464  1.00  0.00    -0.170 C  
BRANCH  10  11
HETATM   11  S   UNL     1     -11.643  13.139  68.380  1.00  0.00    -0.360 SA 
BRANCH  11  12
HETATM   12  C   UNL     1     -12.270  13.644  70.001  1.00  0.00    -0.329 A  
HETATM   13 CL   UNL     1     -13.029  11.174  71.123  1.00  0.00    -0.437 Cl 
HETATM   14  C   UNL     1     -13.085  14.846  72.474  1.00  0.00    -0.480 A  
HETATM   15  C   UNL     1     -12.753  12.875  71.084  1.00  0.00    -0.276 A  
HETATM   16  C   UNL     1     -13.129  13.476  72.305  1.00  0.00    -0.488 A  
HETATM   17  C   UNL     1     -12.682  15.638  71.416  1.00  0.00    -0.535 A  
HETATM   18  C   UNL     1     -12.286  15.057  70.201  1.00  0.00    -0.333 A  
HETATM   19 CL   UNL     1     -11.848  16.216  68.971  1.00  0.00    -0.277 Cl 
ENDBRANCH  11  12
ENDBRANCH  10  11
BRANCH  10  20
HETATM   20  C   UNL     1      -9.097  12.644  67.268  1.00  0.00    -0.191 C  
BRANCH  20  21
HETATM   21  N   UNL     1      -9.481  13.849  66.544  1.00  0.00    -0.283 NA 
HETATM   22  C   UNL     1     -10.178  13.889  65.368  1.00  0.00    -0.337 A  
HETATM   23  N   UNL     1     -10.354  15.122  64.957  1.00  0.00    -0.378 NA 
HETATM   24  C   UNL     1      -9.125  15.131  66.855  1.00  0.00    -0.247 A  
HETATM   25  C   UNL     1      -9.706  15.906  65.878  1.00  0.00    -0.351 A  
ENDBRANCH  20  21
ENDBRANCH  10  20
ENDBRANCH   9  10
ENDBRANCH   8   9
ENDBRANCH   5   8
TORSDOF 7
ENDMDL
MODEL      216
REMARK 921   NORMALIZED FREE ENERGY PREDICTED BY IDOCK:   -4.83 KCAL/MOL
REMARK 922        TOTAL FREE ENERGY PREDICTED BY IDOCK:   -7.69 KCAL/MOL
REMARK 923 INTER-LIGAND FREE ENERGY PREDICTED BY IDOCK:   -6.52 KCAL/MOL
REMARK 924 INTRA-LIGAND FREE ENERGY PREDICTED BY IDOCK:   -1.17 KCAL/MOL
REMARK 927      BINDING AFFINITY PREDICTED BY RF-SCORE:    0.00 PKD
ROOT
HETATM    1 CL   UNL     1     -12.505  15.666  74.141  1.00  0.00    -0.745 Cl 
HETATM    2  C   UNL     1     -12.407  15.325  72.457  1.00  0.00    -0.369 A  
HETATM    3  C   UNL     1     -13.025  14.187  71.947  1.00  0.00    -0.441 A  
HETATM    4  C   UNL     1     -12.911  13.890  70.588  1.00  0.00    -0.291 A  
HETATM    5  C   UNL     1     -12.187  14.729  69.724  1.00  0.00    -0.337 A  
HETATM    6  C   UNL     1     -11.589  15.881  70.250  1.00  0.00    -0.365 A  
HETATM    7  C   UNL     1     -11.698  16.176  71.613  1.00  0.00    -0.558 A  
ENDROOT
BRANCH   5   8
HETATM    8  C   UNL     1     -11.991  14.348  68.272  1.00  0.00    -0.323 C  
BRANCH   8   9
HETATM    9  C   UNL     1     -12.148  12.849  68.011  1.00  0.00    -0.202 C  
BRANCH   9  10
HETATM   10  C   UNL     1     -10.870  12.014  68.243  1.00  0.00    -0.229 C  
BRANCH  10  11
HETATM   11  S   UNL     1      -9.460  12.722  67.292  1.00  0.00    -0.211 SA 
BRANCH  11  12
HETATM   12  C   UNL     1      -7.972  12.965  68.294  1.00  0.00    -0.151 A  
HETATM   13 CL   UNL     1      -7.467  10.352  69.221  1.00  0.00    -0.106 Cl 
HETATM   14  C   UNL     1      -5.601  13.759  69.698  1.00  0.00    -0.094 A  
HETATM   15  C   UNL     1      -7.170  12.035  68.994  1.00  0.00    -0.053 A  
HETATM   16  C   UNL     1      -5.991  12.435  69.661  1.00  0.00    -0.124 A  
HETATM   17  C   UNL     1      -6.395  14.708  69.084  1.00  0.00    -0.106 A  
HETATM   18  C   UNL     1      -7.559  14.326  68.399  1.00  0.00    -0.124 A  
HETATM   19 CL   UNL     1      -8.452  15.665  67.720  1.00  0.00    -0.153 Cl 
ENDBRANCH  11  12
ENDBRANCH  10  11
BRANCH  10  20
HETATM   20  C   UNL     1     -10.915  10.471  68.173  1.00  0.00    -0.277 C  
BRANCH  20  21
HETATM   21  N   UNL     1     -11.221   9.812  69.437  1.00  0.00    -0.167 NA 
HETATM   22  C   UNL     1     -10.853   8.541  69.787  1.00  0.00    -0.175 A  
HETATM   23  N   UNL     1     -11.292   8.229  70.983  1.00  0.00    -0.265 NA 
HETATM   24  C   UNL     1     -12.007  10.304  70.439  1.00  0.00    -0.303 A  
HETATM   25  C   UNL     1     -12.009   9.321  71.402  1.00  0.00    -0.351 A  
ENDBRANCH  20  21
ENDBRANCH  10  20
ENDBRANCH   9  10
ENDBRANCH   8   9
ENDBRANCH   5   8
TORSDOF 7
ENDMDL
MODEL      217
REMARK 921   NORMALIZED FREE ENERGY PREDICTED BY IDOCK:   -4.83 KCAL/MOL
REMARK 922        TOTAL FREE ENERGY PREDICTED BY IDOCK:   -7.69 KCAL/MOL
REMARK 923 INTER-LIGAND FREE ENERGY PREDICTED BY IDOCK:   -5.63 KCAL/MOL
REMARK 924 INTRA-LIGAND FREE ENERGY PREDICTED BY IDOCK:   -2.06 KCAL/MOL
REMARK 927      BINDING AFFINITY PREDICTED BY RF-SCORE:    0.00 PKD
ROOT
HETATM    1 CL   UNL     1      -6.588   9.655  63.454  1.00  0.00    -0.104 Cl 
HETATM    2  C   UNL     1      -7.712  10.028  64.702  1.00  0.00    -0.146 A  
HETATM    3  C   UNL     1      -9.076   9.878  64.467  1.00  0.00    -0.296 A  
HETATM    4  C   UNL     1      -9.989  10.221  65.467  1.00  0.00    -0.364 A  
HETATM    5  C   UNL     1      -9.551  10.708  66.709  1.00  0.00    -0.200 A  
HETATM    6  C   UNL     1      -8.174  10.833  66.935  1.00  0.00    -0.130 A  
HETATM    7  C   UNL     1      -7.259  10.496  65.932  1.00  0.00    -0.135 A  
ENDROOT
BRANCH   5   8
HETATM    8  C   UNL     1     -10.551  11.164  67.750  1.00  0.00    -0.248 C  
BRANCH   8   9
HETATM    9  C   UNL     1     -10.036  11.036  69.185  1.00  0.00    -0.142 C  
BRANCH   9  10
HETATM   10  C   UNL     1     -10.990  10.305  70.153  1.00  0.00    -0.314 C  
BRANCH  10  11
HETATM   11  S   UNL     1     -10.799   8.481  69.988  1.00  0.00    -0.190 SA 
BRANCH  11  12
HETATM   12  C   UNL     1      -9.256   7.994  69.177  1.00  0.00    -0.151 A  
HETATM   13 CL   UNL     1      -7.323   9.110  70.897  1.00  0.00    -0.120 Cl 
HETATM   14  C   UNL     1      -7.070   6.959  67.637  1.00  0.00    -0.085 A  
HETATM   15  C   UNL     1      -7.910   8.190  69.563  1.00  0.00    -0.104 A  
HETATM   16  C   UNL     1      -6.843   7.655  68.808  1.00  0.00    -0.065 A  
HETATM   17  C   UNL     1      -8.368   6.804  67.191  1.00  0.00    -0.121 A  
HETATM   18  C   UNL     1      -9.442   7.313  67.938  1.00  0.00    -0.135 A  
HETATM   19 CL   UNL     1     -11.003   7.054  67.198  1.00  0.00    -0.429 Cl 
ENDBRANCH  11  12
ENDBRANCH  10  11
BRANCH  10  20
HETATM   20  C   UNL     1     -12.470  10.736  70.275  1.00  0.00    -0.317 C  
BRANCH  20  21
HETATM   21  N   UNL     1     -12.681  12.003  70.963  1.00  0.00    -0.304 NA 
HETATM   22  C   UNL     1     -13.300  12.164  72.173  1.00  0.00    -0.333 A  
HETATM   23  N   UNL     1     -13.351  13.428  72.520  1.00  0.00    -0.527 NA 
HETATM   24  C   UNL     1     -12.395  13.248  70.479  1.00  0.00    -0.316 A  
HETATM   25  C   UNL     1     -12.786  14.114  71.474  1.00  0.00    -0.354 A  
ENDBRANCH  20  21
ENDBRANCH  10  20
ENDBRANCH   9  10
ENDBRANCH   8   9
ENDBRANCH   5   8
TORSDOF 7
ENDMDL
MODEL      218
REMARK 921   NORMALIZED FREE ENERGY PREDICTED BY IDOCK:   -4.83 KCAL/MOL
REMARK 922        TOTAL FREE ENERGY PREDICTED BY IDOCK:   -7.69 KCAL/MOL
REMARK 923 INTER-LIGAND FREE ENERGY PREDICTED BY IDOCK:   -6.60 KCAL/MOL
REMARK 924 INTRA-LIGAND FREE ENERGY PREDICTED BY IDOCK:   -1.08 KCAL/MOL
REMARK 927      BINDING AFFINITY PREDICTED BY RF-SCORE:    0.00 PKD
ROOT
HETATM    1 CL   UNL     1      -9.855   5.181  66.116  1.00  0.00    -0.191 Cl 
HETATM    2  C   UNL     1      -9.445   6.816  66.459  1.00  0.00    -0.150 A  
HETATM    3  C   UNL     1      -8.148   7.265  66.229  1.00  0.00    -0.121 A  
HETATM    4  C   UNL     1      -7.807   8.581  66.546  1.00  0.00    -0.096 A  
HETATM    5  C   UNL     1      -8.757   9.463  67.088  1.00  0.00    -0.134 A  
HETATM    6  C   UNL     1     -10.063   9.000  67.295  1.00  0.00    -0.297 A  
HETATM    7  C   UNL     1     -10.404   7.680  66.982  1.00  0.00    -0.400 A  
ENDROOT
BRANCH   5   8
HETATM    8  C   UNL     1      -8.352  10.858  67.515  1.00  0.00    -0.117 C  
BRANCH   8   9
HETATM    9  C   UNL     1      -9.403  11.558  68.378  1.00  0.00    -0.194 C  
BRANCH   9  10
HETATM   10  C   UNL     1     -10.185  12.681  67.664  1.00  0.00    -0.217 C  
BRANCH  10  11
HETATM   11  S   UNL     1     -10.022  14.265  68.589  1.00  0.00    -0.212 SA 
BRANCH  11  12
HETATM   12  C   UNL     1      -8.988  15.485  67.742  1.00  0.00    -0.173 A  
HETATM   13 CL   UNL     1     -10.502  16.018  65.426  1.00  0.00    -0.417 Cl 
HETATM   14  C   UNL     1      -7.115  17.434  66.783  1.00  0.00    -0.245 A  
HETATM   15  C   UNL     1      -9.204  16.205  66.544  1.00  0.00    -0.272 A  
HETATM   16  C   UNL     1      -8.286  17.179  66.095  1.00  0.00    -0.269 A  
HETATM   17  C   UNL     1      -6.836  16.704  67.921  1.00  0.00    -0.158 A  
HETATM   18  C   UNL     1      -7.746  15.745  68.393  1.00  0.00    -0.128 A  
HETATM   19 CL   UNL     1      -7.203  14.897  69.821  1.00  0.00    -0.169 Cl 
ENDBRANCH  11  12
ENDBRANCH  10  11
BRANCH  10  20
HETATM   20  C   UNL     1     -11.624  12.438  67.156  1.00  0.00    -0.365 C  
BRANCH  20  21
HETATM   21  N   UNL     1     -11.775  12.483  65.707  1.00  0.00    -0.406 NA 
HETATM   22  C   UNL     1     -12.741  13.171  65.024  1.00  0.00    -0.392 A  
HETATM   23  N   UNL     1     -12.623  13.002  63.728  1.00  0.00    -0.712 NA 
HETATM   24  C   UNL     1     -11.052  11.773  64.792  1.00  0.00    -0.296 A  
HETATM   25  C   UNL     1     -11.571  12.136  63.571  1.00  0.00    -0.474 A  
ENDBRANCH  20  21
ENDBRANCH  10  20
ENDBRANCH   9  10
ENDBRANCH   8   9
ENDBRANCH   5   8
TORSDOF 7
ENDMDL
MODEL      219
REMARK 921   NORMALIZED FREE ENERGY PREDICTED BY IDOCK:   -4.83 KCAL/MOL
REMARK 922        TOTAL FREE ENERGY PREDICTED BY IDOCK:   -7.68 KCAL/MOL
REMARK 923 INTER-LIGAND FREE ENERGY PREDICTED BY IDOCK:   -6.17 KCAL/MOL
REMARK 924 INTRA-LIGAND FREE ENERGY PREDICTED BY IDOCK:   -1.51 KCAL/MOL
REMARK 927      BINDING AFFINITY PREDICTED BY RF-SCORE:    0.00 PKD
ROOT
HETATM    1 CL   UNL     1     -13.626  12.972  72.492  1.00  0.00    -0.643 Cl 
HETATM    2  C   UNL     1     -12.715  12.226  71.237  1.00  0.00    -0.251 A  
HETATM    3  C   UNL     1     -12.507  10.850  71.261  1.00  0.00    -0.493 A  
HETATM    4  C   UNL     1     -11.733  10.252  70.264  1.00  0.00    -0.388 A  
HETATM    5  C   UNL     1     -11.167  11.018  69.232  1.00  0.00    -0.321 A  
HETATM    6  C   UNL     1     -11.404  12.399  69.212  1.00  0.00    -0.315 A  
HETATM    7  C   UNL     1     -12.174  12.999  70.213  1.00  0.00    -0.368 A  
ENDROOT
BRANCH   5   8
HETATM    8  C   UNL     1     -10.254  10.374  68.211  1.00  0.00    -0.184 C  
BRANCH   8   9
HETATM    9  C   UNL     1      -8.905   9.944  68.789  1.00  0.00    -0.136 C  
BRANCH   9  10
HETATM   10  C   UNL     1      -8.301   8.674  68.150  1.00  0.00    -0.127 C  
BRANCH  10  11
HETATM   11  S   UNL     1      -7.993   7.392  69.436  1.00  0.00    -0.126 SA 
BRANCH  11  12
HETATM   12  C   UNL     1      -9.240   7.383  70.748  1.00  0.00    -0.159 A  
HETATM   13 CL   UNL     1     -11.457   6.248  69.431  1.00  0.00    -0.463 Cl 
HETATM   14  C   UNL     1     -10.874   7.472  73.103  1.00  0.00    -0.448 A  
HETATM   15  C   UNL     1     -10.563   6.887  70.760  1.00  0.00    -0.220 A  
HETATM   16  C   UNL     1     -11.350   6.914  71.932  1.00  0.00    -0.297 A  
HETATM   17  C   UNL     1      -9.610   8.029  73.114  1.00  0.00    -0.344 A  
HETATM   18  C   UNL     1      -8.806   7.993  71.963  1.00  0.00    -0.156 A  
HETATM   19 CL   UNL     1      -7.258   8.779  72.156  1.00  0.00    -0.054 Cl 
ENDBRANCH  11  12
ENDBRANCH  10  11
BRANCH  10  20
HETATM   20  C   UNL     1      -7.142   8.781  67.132  1.00  0.00    -0.075 C  
BRANCH  20  21
HETATM   21  N   UNL     1      -7.542   8.643  65.737  1.00  0.00    -0.088 NA 
HETATM   22  C   UNL     1      -7.661   7.464  65.052  1.00  0.00    -0.114 A  
HETATM   23  N   UNL     1      -8.023   7.669  63.808  1.00  0.00    -0.121 NA 
HETATM   24  C   UNL     1      -7.762   9.658  64.851  1.00  0.00    -0.120 A  
HETATM   25  C   UNL     1      -8.093   9.032  63.671  1.00  0.00    -0.164 A  
ENDBRANCH  20  21
ENDBRANCH  10  20
ENDBRANCH   9  10
ENDBRANCH   8   9
ENDBRANCH   5   8
TORSDOF 7
ENDMDL
MODEL      220
REMARK 921   NORMALIZED FREE ENERGY PREDICTED BY IDOCK:   -4.82 KCAL/MOL
REMARK 922        TOTAL FREE ENERGY PREDICTED BY IDOCK:   -7.68 KCAL/MOL
REMARK 923 INTER-LIGAND FREE ENERGY PREDICTED BY IDOCK:   -6.43 KCAL/MOL
REMARK 924 INTRA-LIGAND FREE ENERGY PREDICTED BY IDOCK:   -1.25 KCAL/MOL
REMARK 927      BINDING AFFINITY PREDICTED BY RF-SCORE:    0.00 PKD
ROOT
HETATM    1 CL   UNL     1     -10.107   3.876  64.458  1.00  0.00    -0.211 Cl 
HETATM    2  C   UNL     1     -10.163   4.494  66.063  1.00  0.00    -0.260 A  
HETATM    3  C   UNL     1      -9.481   3.834  67.080  1.00  0.00    -0.234 A  
HETATM    4  C   UNL     1      -9.561   4.313  68.389  1.00  0.00    -0.197 A  
HETATM    5  C   UNL     1     -10.315   5.459  68.694  1.00  0.00    -0.229 A  
HETATM    6  C   UNL     1     -10.978   6.123  67.654  1.00  0.00    -0.400 A  
HETATM    7  C   UNL     1     -10.903   5.640  66.343  1.00  0.00    -0.172 A  
ENDROOT
BRANCH   5   8
HETATM    8  C   UNL     1     -10.471   5.915  70.129  1.00  0.00    -0.329 C  
BRANCH   8   9
HETATM    9  C   UNL     1     -11.732   6.747  70.368  1.00  0.00    -0.418 C  
BRANCH   9  10
HETATM   10  C   UNL     1     -11.559   7.912  71.367  1.00  0.00    -0.272 C  
BRANCH  10  11
HETATM   11  S   UNL     1     -10.152   8.988  70.861  1.00  0.00    -0.287 SA 
BRANCH  11  12
HETATM   12  C   UNL     1     -10.408   9.794  69.260  1.00  0.00    -0.215 A  
HETATM   13 CL   UNL     1      -8.472   8.521  67.657  1.00  0.00    -0.128 Cl 
HETATM   14  C   UNL     1     -11.185  11.240  66.910  1.00  0.00    -0.300 A  
HETATM   15  C   UNL     1      -9.794   9.570  68.007  1.00  0.00    -0.155 A  
HETATM   16  C   UNL     1     -10.202  10.272  66.852  1.00  0.00    -0.286 A  
HETATM   17  C   UNL     1     -11.762  11.535  68.129  1.00  0.00    -0.357 A  
HETATM   18  C   UNL     1     -11.383  10.835  69.285  1.00  0.00    -0.286 A  
HETATM   19 CL   UNL     1     -12.192  11.372  70.737  1.00  0.00    -0.479 Cl 
ENDBRANCH  11  12
ENDBRANCH  10  11
BRANCH  10  20
HETATM   20  C   UNL     1     -11.588   7.653  72.890  1.00  0.00    -0.228 C  
BRANCH  20  21
HETATM   21  N   UNL     1     -10.667   6.622  73.351  1.00  0.00    -0.293 NA 
HETATM   22  C   UNL     1     -10.991   5.320  73.619  1.00  0.00    -0.255 A  
HETATM   23  N   UNL     1      -9.947   4.642  74.032  1.00  0.00    -0.153 NA 
HETATM   24  C   UNL     1      -9.356   6.798  73.691  1.00  0.00    -0.166 A  
HETATM   25  C   UNL     1      -8.920   5.551  74.078  1.00  0.00    -0.119 A  
ENDBRANCH  20  21
ENDBRANCH  10  20
ENDBRANCH   9  10
ENDBRANCH   8   9
ENDBRANCH   5   8
TORSDOF 7
ENDMDL
MODEL      221
REMARK 921   NORMALIZED FREE ENERGY PREDICTED BY IDOCK:   -4.82 KCAL/MOL
REMARK 922        TOTAL FREE ENERGY PREDICTED BY IDOCK:   -7.67 KCAL/MOL
REMARK 923 INTER-LIGAND FREE ENERGY PREDICTED BY IDOCK:   -6.87 KCAL/MOL
REMARK 924 INTRA-LIGAND FREE ENERGY PREDICTED BY IDOCK:   -0.80 KCAL/MOL
REMARK 927      BINDING AFFINITY PREDICTED BY RF-SCORE:    0.00 PKD
ROOT
HETATM    1 CL   UNL     1     -13.489  15.420  73.106  1.00  0.00    -0.578 Cl 
HETATM    2  C   UNL     1     -12.995  14.242  71.953  1.00  0.00    -0.350 A  
HETATM    3  C   UNL     1     -13.242  12.894  72.195  1.00  0.00    -0.552 A  
HETATM    4  C   UNL     1     -12.805  11.937  71.278  1.00  0.00    -0.391 A  
HETATM    5  C   UNL     1     -12.124  12.315  70.108  1.00  0.00    -0.364 A  
HETATM    6  C   UNL     1     -11.902  13.677  69.870  1.00  0.00    -0.389 A  
HETATM    7  C   UNL     1     -12.335  14.637  70.792  1.00  0.00    -0.398 A  
ENDROOT
BRANCH   5   8
HETATM    8  C   UNL     1     -11.573  11.264  69.169  1.00  0.00    -0.387 C  
BRANCH   8   9
HETATM    9  C   UNL     1     -10.065  11.052  69.312  1.00  0.00    -0.121 C  
BRANCH   9  10
HETATM   10  C   UNL     1      -9.589   9.602  69.075  1.00  0.00    -0.168 C  
BRANCH  10  11
HETATM   11  S   UNL     1     -10.518   8.842  67.678  1.00  0.00    -0.232 SA 
BRANCH  11  12
HETATM   12  C   UNL     1      -9.471   7.864  66.572  1.00  0.00    -0.214 A  
HETATM   13 CL   UNL     1      -9.960   5.242  67.482  1.00  0.00    -0.185 Cl 
HETATM   14  C   UNL     1      -7.766   6.694  64.585  1.00  0.00    -0.112 A  
HETATM   15  C   UNL     1      -9.301   6.465  66.461  1.00  0.00    -0.155 A  
HETATM   16  C   UNL     1      -8.477   5.900  65.463  1.00  0.00    -0.154 A  
HETATM   17  C   UNL     1      -7.853   8.067  64.704  1.00  0.00    -0.140 A  
HETATM   18  C   UNL     1      -8.682   8.647  65.677  1.00  0.00    -0.182 A  
HETATM   19 CL   UNL     1      -8.633  10.392  65.701  1.00  0.00    -0.165 Cl 
ENDBRANCH  11  12
ENDBRANCH  10  11
BRANCH  10  20
HETATM   20  C   UNL     1      -9.406   8.630  70.262  1.00  0.00    -0.167 C  
BRANCH  20  21
HETATM   21  N   UNL     1     -10.646   8.081  70.797  1.00  0.00    -0.211 NA 
HETATM   22  C   UNL     1     -11.474   8.699  71.694  1.00  0.00    -0.305 A  
HETATM   23  N   UNL     1     -12.503   7.942  71.995  1.00  0.00    -0.311 NA 
HETATM   24  C   UNL     1     -11.139   6.826  70.579  1.00  0.00    -0.298 A  
HETATM   25  C   UNL     1     -12.307   6.774  71.304  1.00  0.00    -0.344 A  
ENDBRANCH  20  21
ENDBRANCH  10  20
ENDBRANCH   9  10
ENDBRANCH   8   9
ENDBRANCH   5   8
TORSDOF 7
ENDMDL
MODEL      222
REMARK 921   NORMALIZED FREE ENERGY PREDICTED BY IDOCK:   -4.81 KCAL/MOL
REMARK 922        TOTAL FREE ENERGY PREDICTED BY IDOCK:   -7.66 KCAL/MOL
REMARK 923 INTER-LIGAND FREE ENERGY PREDICTED BY IDOCK:   -6.32 KCAL/MOL
REMARK 924 INTRA-LIGAND FREE ENERGY PREDICTED BY IDOCK:   -1.34 KCAL/MOL
REMARK 927      BINDING AFFINITY PREDICTED BY RF-SCORE:    0.00 PKD
ROOT
HETATM    1 CL   UNL     1     -14.394   7.279  71.746  1.00  0.00    -0.573 Cl 
HETATM    2  C   UNL     1     -12.744   7.605  71.385  1.00  0.00    -0.327 A  
HETATM    3  C   UNL     1     -12.052   6.770  70.513  1.00  0.00    -0.332 A  
HETATM    4  C   UNL     1     -10.701   7.011  70.253  1.00  0.00    -0.266 A  
HETATM    5  C   UNL     1     -10.032   8.091  70.853  1.00  0.00    -0.207 A  
HETATM    6  C   UNL     1     -10.749   8.933  71.712  1.00  0.00    -0.432 A  
HETATM    7  C   UNL     1     -12.101   8.688  71.978  1.00  0.00    -0.442 A  
ENDROOT
BRANCH   5   8
HETATM    8  C   UNL     1      -8.546   8.287  70.637  1.00  0.00    -0.139 C  
BRANCH   8   9
HETATM    9  C   UNL     1      -8.098   7.997  69.203  1.00  0.00    -0.119 C  
BRANCH   9  10
HETATM   10  C   UNL     1      -8.325   9.154  68.207  1.00  0.00    -0.120 C  
BRANCH  10  11
HETATM   11  S   UNL     1      -9.703   8.748  67.054  1.00  0.00    -0.219 SA 
BRANCH  11  12
HETATM   12  C   UNL     1     -10.331  10.187  66.155  1.00  0.00    -0.167 A  
HETATM   13 CL   UNL     1      -9.070   9.902  63.651  1.00  0.00    -0.283 Cl 
HETATM   14  C   UNL     1     -11.613  12.514  65.075  1.00  0.00    -0.392 A  
HETATM   15  C   UNL     1     -10.129  10.600  64.818  1.00  0.00    -0.344 A  
HETATM   16  C   UNL     1     -10.785  11.734  64.291  1.00  0.00    -0.395 A  
HETATM   17  C   UNL     1     -11.783  12.182  66.405  1.00  0.00    -0.394 A  
HETATM   18  C   UNL     1     -11.155  11.047  66.941  1.00  0.00    -0.213 A  
HETATM   19 CL   UNL     1     -11.456  10.810  68.645  1.00  0.00    -0.355 Cl 
ENDBRANCH  11  12
ENDBRANCH  10  11
BRANCH  10  20
HETATM   20  C   UNL     1      -7.129   9.820  67.488  1.00  0.00    -0.088 C  
BRANCH  20  21
HETATM   21  N   UNL     1      -6.831  11.176  67.929  1.00  0.00    -0.067 NA 
HETATM   22  C   UNL     1      -6.407  11.537  69.179  1.00  0.00    -0.078 A  
HETATM   23  N   UNL     1      -6.240  12.835  69.272  1.00  0.00    -0.098 NA 
HETATM   24  C   UNL     1      -7.020  12.323  67.212  1.00  0.00    -0.142 A  
HETATM   25  C   UNL     1      -6.615  13.336  68.051  1.00  0.00    -0.129 A  
ENDBRANCH  20  21
ENDBRANCH  10  20
ENDBRANCH   9  10
ENDBRANCH   8   9
ENDBRANCH   5   8
TORSDOF 7
ENDMDL
MODEL      223
REMARK 921   NORMALIZED FREE ENERGY PREDICTED BY IDOCK:   -4.80 KCAL/MOL
REMARK 922        TOTAL FREE ENERGY PREDICTED BY IDOCK:   -7.65 KCAL/MOL
REMARK 923 INTER-LIGAND FREE ENERGY PREDICTED BY IDOCK:   -6.79 KCAL/MOL
REMARK 924 INTRA-LIGAND FREE ENERGY PREDICTED BY IDOCK:   -0.86 KCAL/MOL
REMARK 927      BINDING AFFINITY PREDICTED BY RF-SCORE:    0.00 PKD
ROOT
HETATM    1 CL   UNL     1     -14.144  15.677  72.357  1.00  0.00    -0.625 Cl 
HETATM    2  C   UNL     1     -13.425  14.240  71.742  1.00  0.00    -0.381 A  
HETATM    3  C   UNL     1     -12.639  14.299  70.595  1.00  0.00    -0.424 A  
HETATM    4  C   UNL     1     -12.090  13.126  70.074  1.00  0.00    -0.375 A  
HETATM    5  C   UNL     1     -12.313  11.886  70.696  1.00  0.00    -0.405 A  
HETATM    6  C   UNL     1     -13.089  11.847  71.861  1.00  0.00    -0.474 A  
HETATM    7  C   UNL     1     -13.645  13.022  72.380  1.00  0.00    -0.628 A  
ENDROOT
BRANCH   5   8
HETATM    8  C   UNL     1     -11.791  10.610  70.070  1.00  0.00    -0.403 C  
BRANCH   8   9
HETATM    9  C   UNL     1     -10.265  10.562  69.974  1.00  0.00    -0.024 C  
BRANCH   9  10
HETATM   10  C   UNL     1      -9.698  10.770  68.552  1.00  0.00    -0.182 C  
BRANCH  10  11
HETATM   11  S   UNL     1      -8.316   9.595  68.233  1.00  0.00    -0.118 SA 
BRANCH  11  12
HETATM   12  C   UNL     1      -8.058   9.258  66.473  1.00  0.00    -0.104 A  
HETATM   13 CL   UNL     1      -9.444   6.827  66.141  1.00  0.00    -0.116 Cl 
HETATM   14  C   UNL     1      -7.488   9.143  63.665  1.00  0.00    -0.106 A  
HETATM   15  C   UNL     1      -8.544   8.214  65.653  1.00  0.00    -0.158 A  
HETATM   16  C   UNL     1      -8.276   8.182  64.267  1.00  0.00    -0.095 A  
HETATM   17  C   UNL     1      -6.939  10.142  64.445  1.00  0.00    -0.106 A  
HETATM   18  C   UNL     1      -7.209  10.201  65.821  1.00  0.00    -0.128 A  
HETATM   19 CL   UNL     1      -6.397  11.509  66.646  1.00  0.00    -0.133 Cl 
ENDBRANCH  11  12
ENDBRANCH  10  11
BRANCH  10  20
HETATM   20  C   UNL     1      -9.400  12.193  68.026  1.00  0.00    -0.197 C  
BRANCH  20  21
HETATM   21  N   UNL     1     -10.358  12.695  67.050  1.00  0.00    -0.232 NA 
HETATM   22  C   UNL     1     -11.331  11.959  66.431  1.00  0.00    -0.339 A  
HETATM   23  N   UNL     1     -12.024  12.692  65.591  1.00  0.00    -0.440 NA 
HETATM   24  C   UNL     1     -10.385  13.949  66.510  1.00  0.00    -0.286 A  
HETATM   25  C   UNL     1     -11.446  13.935  65.635  1.00  0.00    -0.318 A  
ENDBRANCH  20  21
ENDBRANCH  10  20
ENDBRANCH   9  10
ENDBRANCH   8   9
ENDBRANCH   5   8
TORSDOF 7
ENDMDL
MODEL      224
REMARK 921   NORMALIZED FREE ENERGY PREDICTED BY IDOCK:   -4.79 KCAL/MOL
REMARK 922        TOTAL FREE ENERGY PREDICTED BY IDOCK:   -7.63 KCAL/MOL
REMARK 923 INTER-LIGAND FREE ENERGY PREDICTED BY IDOCK:   -6.59 KCAL/MOL
REMARK 924 INTRA-LIGAND FREE ENERGY PREDICTED BY IDOCK:   -1.04 KCAL/MOL
REMARK 927      BINDING AFFINITY PREDICTED BY RF-SCORE:    0.00 PKD
ROOT
HETATM    1 CL   UNL     1      -9.973   8.159  68.786  1.00  0.00    -0.189 Cl 
HETATM    2  C   UNL     1     -10.063   9.800  68.275  1.00  0.00    -0.163 A  
HETATM    3  C   UNL     1      -8.926  10.431  67.781  1.00  0.00    -0.131 A  
HETATM    4  C   UNL     1      -8.991  11.774  67.404  1.00  0.00    -0.173 A  
HETATM    5  C   UNL     1     -10.191  12.496  67.510  1.00  0.00    -0.219 A  
HETATM    6  C   UNL     1     -11.331  11.839  67.990  1.00  0.00    -0.355 A  
HETATM    7  C   UNL     1     -11.265  10.495  68.373  1.00  0.00    -0.339 A  
ENDROOT
BRANCH   5   8
HETATM    8  C   UNL     1     -10.227  13.975  67.188  1.00  0.00    -0.258 C  
BRANCH   8   9
HETATM    9  C   UNL     1      -8.867  14.538  66.771  1.00  0.00    -0.248 C  
BRANCH   9  10
HETATM   10  C   UNL     1      -8.695  16.055  67.005  1.00  0.00    -0.210 C  
BRANCH  10  11
HETATM   11  S   UNL     1      -6.910  16.508  66.988  1.00  0.00    -0.214 SA 
BRANCH  11  12
HETATM   12  C   UNL     1      -6.549  18.026  67.905  1.00  0.00    -0.193 A  
HETATM   13 CL   UNL     1      -6.899  19.997  65.921  1.00  0.00    -0.263 Cl 
HETATM   14  C   UNL     1      -5.991  20.171  69.724  1.00  0.00    -0.387 A  
HETATM   15  C   UNL     1      -6.601  19.381  67.503  1.00  0.00    -0.208 A  
HETATM   16  C   UNL     1      -6.348  20.429  68.415  1.00  0.00    -0.350 A  
HETATM   17  C   UNL     1      -5.863  18.860  70.137  1.00  0.00    -0.242 A  
HETATM   18  C   UNL     1      -6.130  17.805  69.250  1.00  0.00    -0.233 A  
HETATM   19 CL   UNL     1      -5.878  16.220  69.940  1.00  0.00    -0.180 Cl 
ENDBRANCH  11  12
ENDBRANCH  10  11
BRANCH  10  20
HETATM   20  C   UNL     1      -9.476  16.771  68.129  1.00  0.00    -0.234 C  
BRANCH  20  21
HETATM   21  N   UNL     1      -9.928  18.116  67.797  1.00  0.00    -0.312 NA 
HETATM   22  C   UNL     1     -10.254  18.565  66.546  1.00  0.00    -0.410 A  
HETATM   23  N   UNL     1     -10.609  19.828  66.568  1.00  0.00    -0.482 NA 
HETATM   24  C   UNL     1     -10.004  19.181  68.649  1.00  0.00    -0.419 A  
HETATM   25  C   UNL     1     -10.461  20.222  67.874  1.00  0.00    -0.181 A  
ENDBRANCH  20  21
ENDBRANCH  10  20
ENDBRANCH   9  10
ENDBRANCH   8   9
ENDBRANCH   5   8
TORSDOF 7
ENDMDL
MODEL      225
REMARK 921   NORMALIZED FREE ENERGY PREDICTED BY IDOCK:   -4.78 KCAL/MOL
REMARK 922        TOTAL FREE ENERGY PREDICTED BY IDOCK:   -7.62 KCAL/MOL
REMARK 923 INTER-LIGAND FREE ENERGY PREDICTED BY IDOCK:   -6.51 KCAL/MOL
REMARK 924 INTRA-LIGAND FREE ENERGY PREDICTED BY IDOCK:   -1.11 KCAL/MOL
REMARK 927      BINDING AFFINITY PREDICTED BY RF-SCORE:    0.00 PKD
ROOT
HETATM    1 CL   UNL     1      -6.303   4.633  68.532  1.00  0.00    -0.035 Cl 
HETATM    2  C   UNL     1      -7.375   5.831  67.919  1.00  0.00    -0.077 A  
HETATM    3  C   UNL     1      -7.184   6.334  66.635  1.00  0.00    -0.074 A  
HETATM    4  C   UNL     1      -8.030   7.336  66.155  1.00  0.00    -0.112 A  
HETATM    5  C   UNL     1      -9.076   7.839  66.945  1.00  0.00    -0.171 A  
HETATM    6  C   UNL     1      -9.266   7.307  68.227  1.00  0.00    -0.133 A  
HETATM    7  C   UNL     1      -8.415   6.307  68.712  1.00  0.00    -0.119 A  
ENDROOT
BRANCH   5   8
HETATM    8  C   UNL     1      -9.927   8.989  66.450  1.00  0.00    -0.370 C  
BRANCH   8   9
HETATM    9  C   UNL     1      -9.109  10.201  66.004  1.00  0.00    -0.185 C  
BRANCH   9  10
HETATM   10  C   UNL     1      -9.849  11.553  66.098  1.00  0.00    -0.221 C  
BRANCH  10  11
HETATM   11  S   UNL     1      -9.263  12.505  67.562  1.00  0.00    -0.197 SA 
BRANCH  11  12
HETATM   12  C   UNL     1     -10.568  12.826  68.775  1.00  0.00    -0.189 A  
HETATM   13 CL   UNL     1     -11.227  10.220  69.619  1.00  0.00    -0.296 Cl 
HETATM   14  C   UNL     1     -12.513  13.767  70.660  1.00  0.00    -0.429 A  
HETATM   15  C   UNL     1     -11.287  11.943  69.611  1.00  0.00    -0.195 A  
HETATM   16  C   UNL     1     -12.225  12.420  70.553  1.00  0.00    -0.382 A  
HETATM   17  C   UNL     1     -11.881  14.656  69.813  1.00  0.00    -0.366 A  
HETATM   18  C   UNL     1     -10.931  14.202  68.884  1.00  0.00    -0.259 A  
HETATM   19 CL   UNL     1     -10.268  15.464  67.876  1.00  0.00    -0.237 Cl 
ENDBRANCH  11  12
ENDBRANCH  10  11
BRANCH  10  20
HETATM   20  C   UNL     1     -11.383  11.623  65.922  1.00  0.00    -0.199 C  
BRANCH  20  21
HETATM   21  N   UNL     1     -11.847  12.681  65.032  1.00  0.00    -0.373 NA 
HETATM   22  C   UNL     1     -11.946  12.596  63.670  1.00  0.00    -0.535 A  
HETATM   23  N   UNL     1     -12.380  13.719  63.151  1.00  0.00    -0.650 NA 
HETATM   24  C   UNL     1     -12.161  13.961  65.388  1.00  0.00    -0.444 A  
HETATM   25  C   UNL     1     -12.522  14.577  64.212  1.00  0.00    -0.264 A  
ENDBRANCH  20  21
ENDBRANCH  10  20
ENDBRANCH   9  10
ENDBRANCH   8   9
ENDBRANCH   5   8
TORSDOF 7
ENDMDL
MODEL      226
REMARK 921   NORMALIZED FREE ENERGY PREDICTED BY IDOCK:   -4.78 KCAL/MOL
REMARK 922        TOTAL FREE ENERGY PREDICTED BY IDOCK:   -7.61 KCAL/MOL
REMARK 923 INTER-LIGAND FREE ENERGY PREDICTED BY IDOCK:   -6.04 KCAL/MOL
REMARK 924 INTRA-LIGAND FREE ENERGY PREDICTED BY IDOCK:   -1.57 KCAL/MOL
REMARK 927      BINDING AFFINITY PREDICTED BY RF-SCORE:    0.00 PKD
ROOT
HETATM    1 CL   UNL     1      -7.304  17.106  68.623  1.00  0.00    -0.227 Cl 
HETATM    2  C   UNL     1      -7.263  15.388  68.528  1.00  0.00    -0.114 A  
HETATM    3  C   UNL     1      -8.013  14.734  67.555  1.00  0.00    -0.207 A  
HETATM    4  C   UNL     1      -8.011  13.339  67.505  1.00  0.00    -0.186 A  
HETATM    5  C   UNL     1      -7.255  12.585  68.418  1.00  0.00    -0.111 A  
HETATM    6  C   UNL     1      -6.490  13.260  69.377  1.00  0.00    -0.097 A  
HETATM    7  C   UNL     1      -6.497  14.658  69.432  1.00  0.00    -0.132 A  
ENDROOT
BRANCH   5   8
HETATM    8  C   UNL     1      -7.334  11.073  68.414  1.00  0.00    -0.096 C  
BRANCH   8   9
HETATM    9  C   UNL     1      -8.457  10.526  67.531  1.00  0.00    -0.118 C  
BRANCH   9  10
HETATM   10  C   UNL     1      -9.660   9.941  68.303  1.00  0.00    -0.140 C  
BRANCH  10  11
HETATM   11  S   UNL     1     -11.239  10.399  67.472  1.00  0.00    -0.027 SA 
BRANCH  11  12
HETATM   12  C   UNL     1     -11.053  11.741  66.272  1.00  0.00    -0.311 A  
HETATM   13 CL   UNL     1      -9.918  10.396  64.072  1.00  0.00    -0.366 Cl 
HETATM   14  C   UNL     1     -11.010  14.108  64.655  1.00  0.00    -0.393 A  
HETATM   15  C   UNL     1     -10.594  11.726  64.935  1.00  0.00    -0.294 A  
HETATM   16  C   UNL     1     -10.600  12.894  64.141  1.00  0.00    -0.442 A  
HETATM   17  C   UNL     1     -11.402  14.178  65.977  1.00  0.00    -0.330 A  
HETATM   18  C   UNL     1     -11.421  13.024  66.776  1.00  0.00    -0.345 A  
HETATM   19 CL   UNL     1     -11.908  13.315  68.428  1.00  0.00    -0.389 Cl 
ENDBRANCH  11  12
ENDBRANCH  10  11
BRANCH  10  20
HETATM   20  C   UNL     1      -9.743  10.065  69.841  1.00  0.00    -0.203 C  
BRANCH  20  21
HETATM   21  N   UNL     1     -10.819   9.299  70.457  1.00  0.00    -0.243 NA 
HETATM   22  C   UNL     1     -11.777   9.796  71.298  1.00  0.00    -0.394 A  
HETATM   23  N   UNL     1     -12.596   8.854  71.700  1.00  0.00    -0.329 NA 
HETATM   24  C   UNL     1     -10.995   7.946  70.388  1.00  0.00    -0.249 A  
HETATM   25  C   UNL     1     -12.122   7.697  71.137  1.00  0.00    -0.298 A  
ENDBRANCH  20  21
ENDBRANCH  10  20
ENDBRANCH   9  10
ENDBRANCH   8   9
ENDBRANCH   5   8
TORSDOF 7
ENDMDL
MODEL      227
REMARK 921   NORMALIZED FREE ENERGY PREDICTED BY IDOCK:   -4.77 KCAL/MOL
REMARK 922        TOTAL FREE ENERGY PREDICTED BY IDOCK:   -7.60 KCAL/MOL
REMARK 923 INTER-LIGAND FREE ENERGY PREDICTED BY IDOCK:   -7.04 KCAL/MOL
REMARK 924 INTRA-LIGAND FREE ENERGY PREDICTED BY IDOCK:   -0.56 KCAL/MOL
REMARK 927      BINDING AFFINITY PREDICTED BY RF-SCORE:    0.00 PKD
ROOT
HETATM    1 CL   UNL     1      -6.763   8.604  62.358  1.00  0.00    -0.095 Cl 
HETATM    2  C   UNL     1      -7.532   9.566  63.560  1.00  0.00    -0.114 A  
HETATM    3  C   UNL     1      -6.799  10.020  64.652  1.00  0.00    -0.130 A  
HETATM    4  C   UNL     1      -7.434  10.765  65.648  1.00  0.00    -0.034 A  
HETATM    5  C   UNL     1      -8.802  11.071  65.559  1.00  0.00    -0.179 A  
HETATM    6  C   UNL     1      -9.520  10.623  64.443  1.00  0.00    -0.317 A  
HETATM    7  C   UNL     1      -8.886   9.871  63.448  1.00  0.00    -0.253 A  
ENDROOT
BRANCH   5   8
HETATM    8  C   UNL     1      -9.500  11.798  66.689  1.00  0.00    -0.215 C  
BRANCH   8   9
HETATM    9  C   UNL     1      -8.977  13.219  66.910  1.00  0.00    -0.212 C  
BRANCH   9  10
HETATM   10  C   UNL     1      -9.557  13.937  68.148  1.00  0.00    -0.218 C  
BRANCH  10  11
HETATM   11  S   UNL     1     -11.396  13.843  68.141  1.00  0.00    -0.314 SA 
BRANCH  11  12
HETATM   12  C   UNL     1     -12.091  13.331  69.732  1.00  0.00    -0.290 A  
HETATM   13 CL   UNL     1     -12.388  15.801  71.055  1.00  0.00    -0.460 Cl 
HETATM   14  C   UNL     1     -13.244  12.117  72.060  1.00  0.00    -0.496 A  
HETATM   15  C   UNL     1     -12.528  14.097  70.837  1.00  0.00    -0.365 A  
HETATM   16  C   UNL     1     -13.116  13.489  71.968  1.00  0.00    -0.481 A  
HETATM   17  C   UNL     1     -12.768  11.329  71.030  1.00  0.00    -0.457 A  
HETATM   18  C   UNL     1     -12.198  11.917  69.890  1.00  0.00    -0.199 A  
HETATM   19 CL   UNL     1     -11.619  10.763  68.713  1.00  0.00    -0.357 Cl 
ENDBRANCH  11  12
ENDBRANCH  10  11
BRANCH  10  20
HETATM   20  C   UNL     1      -9.037  15.332  68.563  1.00  0.00    -0.192 C  
BRANCH  20  21
HETATM   21  N   UNL     1      -9.583  16.441  67.790  1.00  0.00    -0.230 NA 
HETATM   22  C   UNL     1      -9.117  16.882  66.582  1.00  0.00    -0.255 A  
HETATM   23  N   UNL     1      -9.809  17.908  66.147  1.00  0.00    -0.502 NA 
HETATM   24  C   UNL     1     -10.579  17.290  68.181  1.00  0.00    -0.386 A  
HETATM   25  C   UNL     1     -10.726  18.170  67.133  1.00  0.00    -0.288 A  
ENDBRANCH  20  21
ENDBRANCH  10  20
ENDBRANCH   9  10
ENDBRANCH   8   9
ENDBRANCH   5   8
TORSDOF 7
ENDMDL
MODEL      228
REMARK 921   NORMALIZED FREE ENERGY PREDICTED BY IDOCK:   -4.76 KCAL/MOL
REMARK 922        TOTAL FREE ENERGY PREDICTED BY IDOCK:   -7.59 KCAL/MOL
REMARK 923 INTER-LIGAND FREE ENERGY PREDICTED BY IDOCK:   -6.59 KCAL/MOL
REMARK 924 INTRA-LIGAND FREE ENERGY PREDICTED BY IDOCK:   -1.00 KCAL/MOL
REMARK 927      BINDING AFFINITY PREDICTED BY RF-SCORE:    0.00 PKD
ROOT
HETATM    1 CL   UNL     1      -6.769  21.310  66.798  1.00  0.00    -0.329 Cl 
HETATM    2  C   UNL     1      -7.322  19.802  67.417  1.00  0.00    -0.251 A  
HETATM    3  C   UNL     1      -8.608  19.701  67.937  1.00  0.00    -0.360 A  
HETATM    4  C   UNL     1      -9.041  18.487  68.476  1.00  0.00    -0.353 A  
HETATM    5  C   UNL     1      -8.197  17.364  68.494  1.00  0.00    -0.268 A  
HETATM    6  C   UNL     1      -6.913  17.478  67.948  1.00  0.00    -0.185 A  
HETATM    7  C   UNL     1      -6.477  18.695  67.413  1.00  0.00    -0.194 A  
ENDROOT
BRANCH   5   8
HETATM    8  C   UNL     1      -8.643  16.082  69.165  1.00  0.00    -0.247 C  
BRANCH   8   9
HETATM    9  C   UNL     1     -10.161  15.976  69.325  1.00  0.00    -0.249 C  
BRANCH   9  10
HETATM   10  C   UNL     1     -10.735  14.556  69.132  1.00  0.00    -0.252 C  
BRANCH  10  11
HETATM   11  S   UNL     1      -9.956  13.740  67.676  1.00  0.00    -0.242 SA 
BRANCH  11  12
HETATM   12  C   UNL     1      -8.929  12.317  68.118  1.00  0.00    -0.192 A  
HETATM   13 CL   UNL     1      -6.377  13.490  68.332  1.00  0.00    -0.084 Cl 
HETATM   14  C   UNL     1      -7.692   9.845  68.879  1.00  0.00    -0.085 A  
HETATM   15  C   UNL     1      -7.553  12.234  68.427  1.00  0.00    -0.128 A  
HETATM   16  C   UNL     1      -6.960  11.015  68.824  1.00  0.00    -0.081 A  
HETATM   17  C   UNL     1      -9.025   9.872  68.519  1.00  0.00    -0.122 A  
HETATM   18  C   UNL     1      -9.636  11.078  68.140  1.00  0.00    -0.171 A  
HETATM   19 CL   UNL     1     -11.313  10.908  67.684  1.00  0.00    -0.376 Cl 
ENDBRANCH  11  12
ENDBRANCH  10  11
BRANCH  10  20
HETATM   20  C   UNL     1     -12.259  14.307  69.205  1.00  0.00    -0.237 C  
BRANCH  20  21
HETATM   21  N   UNL     1     -12.817  14.327  70.551  1.00  0.00    -0.326 NA 
HETATM   22  C   UNL     1     -13.362  15.415  71.176  1.00  0.00    -0.508 A  
HETATM   23  N   UNL     1     -13.762  15.118  72.390  1.00  0.00    -0.452 NA 
HETATM   24  C   UNL     1     -12.798  13.301  71.452  1.00  0.00    -0.322 A  
HETATM   25  C   UNL     1     -13.420  13.802  72.572  1.00  0.00    -0.578 A  
ENDBRANCH  20  21
ENDBRANCH  10  20
ENDBRANCH   9  10
ENDBRANCH   8   9
ENDBRANCH   5   8
TORSDOF 7
ENDMDL
MODEL      229
REMARK 921   NORMALIZED FREE ENERGY PREDICTED BY IDOCK:   -4.75 KCAL/MOL
REMARK 922        TOTAL FREE ENERGY PREDICTED BY IDOCK:   -7.58 KCAL/MOL
REMARK 923 INTER-LIGAND FREE ENERGY PREDICTED BY IDOCK:   -6.71 KCAL/MOL
REMARK 924 INTRA-LIGAND FREE ENERGY PREDICTED BY IDOCK:   -0.87 KCAL/MOL
REMARK 927      BINDING AFFINITY PREDICTED BY RF-SCORE:    0.00 PKD
ROOT
HETATM    1 CL   UNL     1     -12.081   7.440  72.535  1.00  0.00    -0.174 Cl 
HETATM    2  C   UNL     1     -11.289   8.582  71.520  1.00  0.00    -0.283 A  
HETATM    3  C   UNL     1     -11.979   9.707  71.079  1.00  0.00    -0.427 A  
HETATM    4  C   UNL     1     -11.348  10.611  70.222  1.00  0.00    -0.401 A  
HETATM    5  C   UNL     1     -10.023  10.407  69.805  1.00  0.00    -0.167 A  
HETATM    6  C   UNL     1      -9.336   9.280  70.276  1.00  0.00    -0.277 A  
HETATM    7  C   UNL     1      -9.969   8.370  71.130  1.00  0.00    -0.245 A  
ENDROOT
BRANCH   5   8
HETATM    8  C   UNL     1      -9.381  11.343  68.804  1.00  0.00    -0.115 C  
BRANCH   8   9
HETATM    9  C   UNL     1     -10.086  12.697  68.701  1.00  0.00    -0.131 C  
BRANCH   9  10
HETATM   10  C   UNL     1     -10.709  13.000  67.321  1.00  0.00    -0.250 C  
BRANCH  10  11
HETATM   11  S   UNL     1     -11.336  11.451  66.546  1.00  0.00     0.001 SA 
BRANCH  11  12
HETATM   12  C   UNL     1     -10.529  11.060  64.974  1.00  0.00    -0.277 A  
HETATM   13 CL   UNL     1     -11.730  12.918  63.230  1.00  0.00    -0.528 Cl 
HETATM   14  C   UNL     1      -8.972  10.187  62.730  1.00  0.00    -0.268 A  
HETATM   15  C   UNL     1     -10.642  11.668  63.703  1.00  0.00    -0.433 A  
HETATM   16  C   UNL     1      -9.852  11.245  62.612  1.00  0.00    -0.130 A  
HETATM   17  C   UNL     1      -8.882   9.523  63.938  1.00  0.00    -0.240 A  
HETATM   18  C   UNL     1      -9.645   9.942  65.039  1.00  0.00    -0.297 A  
HETATM   19 CL   UNL     1      -9.427   8.959  66.466  1.00  0.00    -0.249 Cl 
ENDBRANCH  11  12
ENDBRANCH  10  11
BRANCH  10  20
HETATM   20  C   UNL     1      -9.977  13.912  66.310  1.00  0.00    -0.306 C  
BRANCH  20  21
HETATM   21  N   UNL     1      -9.997  15.330  66.644  1.00  0.00    -0.246 NA 
HETATM   22  C   UNL     1     -10.842  15.931  67.537  1.00  0.00    -0.305 A  
HETATM   23  N   UNL     1     -10.624  17.223  67.607  1.00  0.00    -0.364 NA 
HETATM   24  C   UNL     1      -9.254  16.314  66.055  1.00  0.00    -0.316 A  
HETATM   25  C   UNL     1      -9.634  17.473  66.691  1.00  0.00    -0.282 A  
ENDBRANCH  20  21
ENDBRANCH  10  20
ENDBRANCH   9  10
ENDBRANCH   8   9
ENDBRANCH   5   8
TORSDOF 7
ENDMDL
MODEL      230
REMARK 921   NORMALIZED FREE ENERGY PREDICTED BY IDOCK:   -4.75 KCAL/MOL
REMARK 922        TOTAL FREE ENERGY PREDICTED BY IDOCK:   -7.58 KCAL/MOL
REMARK 923 INTER-LIGAND FREE ENERGY PREDICTED BY IDOCK:   -6.65 KCAL/MOL
REMARK 924 INTRA-LIGAND FREE ENERGY PREDICTED BY IDOCK:   -0.93 KCAL/MOL
REMARK 927      BINDING AFFINITY PREDICTED BY RF-SCORE:    0.00 PKD
ROOT
HETATM    1 CL   UNL     1     -13.236   7.035  72.063  1.00  0.00    -0.226 Cl 
HETATM    2  C   UNL     1     -12.243   8.088  71.132  1.00  0.00    -0.245 A  
HETATM    3  C   UNL     1     -12.390   9.466  71.261  1.00  0.00    -0.422 A  
HETATM    4  C   UNL     1     -11.612  10.319  70.476  1.00  0.00    -0.424 A  
HETATM    5  C   UNL     1     -10.677   9.806  69.561  1.00  0.00    -0.255 A  
HETATM    6  C   UNL     1     -10.529   8.418  69.458  1.00  0.00    -0.225 A  
HETATM    7  C   UNL     1     -11.312   7.562  70.241  1.00  0.00    -0.219 A  
ENDROOT
BRANCH   5   8
HETATM    8  C   UNL     1      -9.908  10.738  68.648  1.00  0.00    -0.187 C  
BRANCH   8   9
HETATM    9  C   UNL     1     -10.222  12.216  68.886  1.00  0.00    -0.057 C  
BRANCH   9  10
HETATM   10  C   UNL     1     -11.040  12.893  67.764  1.00  0.00    -0.259 C  
BRANCH  10  11
HETATM   11  S   UNL     1      -9.955  13.297  66.332  1.00  0.00    -0.292 SA 
BRANCH  11  12
HETATM   12  C   UNL     1      -8.836  14.683  66.652  1.00  0.00    -0.209 A  
HETATM   13 CL   UNL     1      -6.868  13.478  68.269  1.00  0.00    -0.094 Cl 
HETATM   14  C   UNL     1      -7.298  17.096  66.841  1.00  0.00    -0.242 A  
HETATM   15  C   UNL     1      -7.611  14.737  67.355  1.00  0.00    -0.202 A  
HETATM   16  C   UNL     1      -6.851  15.925  67.420  1.00  0.00    -0.228 A  
HETATM   17  C   UNL     1      -8.523  17.102  66.202  1.00  0.00    -0.238 A  
HETATM   18  C   UNL     1      -9.283  15.925  66.110  1.00  0.00    -0.349 A  
HETATM   19 CL   UNL     1     -10.817  16.135  65.302  1.00  0.00    -0.384 Cl 
ENDBRANCH  11  12
ENDBRANCH  10  11
BRANCH  10  20
HETATM   20  C   UNL     1     -12.034  14.030  68.093  1.00  0.00    -0.347 C  
BRANCH  20  21
HETATM   21  N   UNL     1     -12.022  14.467  69.483  1.00  0.00    -0.315 NA 
HETATM   22  C   UNL     1     -11.083  15.278  70.060  1.00  0.00    -0.287 A  
HETATM   23  N   UNL     1     -11.339  15.477  71.331  1.00  0.00    -0.385 NA 
HETATM   24  C   UNL     1     -12.878  14.064  70.468  1.00  0.00    -0.220 A  
HETATM   25  C   UNL     1     -12.458  14.729  71.597  1.00  0.00    -0.335 A  
ENDBRANCH  20  21
ENDBRANCH  10  20
ENDBRANCH   9  10
ENDBRANCH   8   9
ENDBRANCH   5   8
TORSDOF 7
ENDMDL
MODEL      231
REMARK 921   NORMALIZED FREE ENERGY PREDICTED BY IDOCK:   -4.75 KCAL/MOL
REMARK 922        TOTAL FREE ENERGY PREDICTED BY IDOCK:   -7.57 KCAL/MOL
REMARK 923 INTER-LIGAND FREE ENERGY PREDICTED BY IDOCK:   -6.21 KCAL/MOL
REMARK 924 INTRA-LIGAND FREE ENERGY PREDICTED BY IDOCK:   -1.36 KCAL/MOL
REMARK 927      BINDING AFFINITY PREDICTED BY RF-SCORE:    0.00 PKD
ROOT
HETATM    1 CL   UNL     1     -10.693  19.654  67.011  1.00  0.00    -0.595 Cl 
HETATM    2  C   UNL     1      -9.947  18.104  67.058  1.00  0.00    -0.338 A  
HETATM    3  C   UNL     1     -10.059  17.252  65.964  1.00  0.00    -0.275 A  
HETATM    4  C   UNL     1      -9.488  15.979  66.019  1.00  0.00    -0.384 A  
HETATM    5  C   UNL     1      -8.793  15.548  67.161  1.00  0.00    -0.233 A  
HETATM    6  C   UNL     1      -8.672  16.427  68.245  1.00  0.00    -0.201 A  
HETATM    7  C   UNL     1      -9.249  17.700  68.193  1.00  0.00    -0.282 A  
ENDROOT
BRANCH   5   8
HETATM    8  C   UNL     1      -8.259  14.134  67.246  1.00  0.00    -0.200 C  
BRANCH   8   9
HETATM    9  C   UNL     1      -9.214  13.089  66.668  1.00  0.00    -0.222 C  
BRANCH   9  10
HETATM   10  C   UNL     1      -9.502  11.890  67.597  1.00  0.00    -0.182 C  
BRANCH  10  11
HETATM   11  S   UNL     1     -11.317  11.662  67.808  1.00  0.00    -0.292 SA 
BRANCH  11  12
HETATM   12  C   UNL     1     -11.960  12.414  69.324  1.00  0.00    -0.253 A  
HETATM   13 CL   UNL     1     -11.939  15.153  68.663  1.00  0.00    -0.312 Cl 
HETATM   14  C   UNL     1     -13.081  13.185  71.848  1.00  0.00    -0.482 A  
HETATM   15  C   UNL     1     -12.254  13.762  69.631  1.00  0.00    -0.305 A  
HETATM   16  C   UNL     1     -12.828  14.126  70.869  1.00  0.00    -0.404 A  
HETATM   17  C   UNL     1     -12.746  11.867  71.611  1.00  0.00    -0.340 A  
HETATM   18  C   UNL     1     -12.192  11.483  70.379  1.00  0.00    -0.355 A  
HETATM   19 CL   UNL     1     -11.799   9.784  70.279  1.00  0.00    -0.249 Cl 
ENDBRANCH  11  12
ENDBRANCH  10  11
BRANCH  10  20
HETATM   20  C   UNL     1      -8.725  11.718  68.922  1.00  0.00     0.131 C  
BRANCH  20  21
HETATM   21  N   UNL     1      -7.665  10.719  68.883  1.00  0.00    -0.120 NA 
HETATM   22  C   UNL     1      -6.737  10.498  69.864  1.00  0.00    -0.142 A  
HETATM   23  N   UNL     1      -5.904   9.542  69.527  1.00  0.00    -0.033 NA 
HETATM   24  C   UNL     1      -7.350   9.910  67.829  1.00  0.00    -0.089 A  
HETATM   25  C   UNL     1      -6.278   9.164  68.263  1.00  0.00    -0.054 A  
ENDBRANCH  20  21
ENDBRANCH  10  20
ENDBRANCH   9  10
ENDBRANCH   8   9
ENDBRANCH   5   8
TORSDOF 7
ENDMDL
MODEL      232
REMARK 921   NORMALIZED FREE ENERGY PREDICTED BY IDOCK:   -4.74 KCAL/MOL
REMARK 922        TOTAL FREE ENERGY PREDICTED BY IDOCK:   -7.57 KCAL/MOL
REMARK 923 INTER-LIGAND FREE ENERGY PREDICTED BY IDOCK:   -6.13 KCAL/MOL
REMARK 924 INTRA-LIGAND FREE ENERGY PREDICTED BY IDOCK:   -1.44 KCAL/MOL
REMARK 927      BINDING AFFINITY PREDICTED BY RF-SCORE:    0.00 PKD
ROOT
HETATM    1 CL   UNL     1     -10.773   4.424  64.771  1.00  0.00    -0.160 Cl 
HETATM    2  C   UNL     1     -10.435   4.846  66.404  1.00  0.00    -0.280 A  
HETATM    3  C   UNL     1      -9.732   3.959  67.213  1.00  0.00    -0.178 A  
HETATM    4  C   UNL     1      -9.493   4.286  68.550  1.00  0.00    -0.216 A  
HETATM    5  C   UNL     1      -9.947   5.502  69.088  1.00  0.00    -0.256 A  
HETATM    6  C   UNL     1     -10.635   6.391  68.254  1.00  0.00    -0.312 A  
HETATM    7  C   UNL     1     -10.879   6.062  66.916  1.00  0.00    -0.396 A  
ENDROOT
BRANCH   5   8
HETATM    8  C   UNL     1      -9.764   5.803  70.561  1.00  0.00    -0.225 C  
BRANCH   8   9
HETATM    9  C   UNL     1     -11.072   6.150  71.276  1.00  0.00    -0.351 C  
BRANCH   9  10
HETATM   10  C   UNL     1     -10.928   7.161  72.434  1.00  0.00    -0.251 C  
BRANCH  10  11
HETATM   11  S   UNL     1      -9.734   8.488  71.983  1.00  0.00    -0.323 SA 
BRANCH  11  12
HETATM   12  C   UNL     1     -10.343   9.586  70.678  1.00  0.00    -0.302 A  
HETATM   13 CL   UNL     1     -12.826  10.406  71.727  1.00  0.00    -0.551 Cl 
HETATM   14  C   UNL     1     -10.895  11.292  68.441  1.00  0.00    -0.248 A  
HETATM   15  C   UNL     1     -11.516  10.372  70.608  1.00  0.00    -0.349 A  
HETATM   16  C   UNL     1     -11.764  11.227  69.512  1.00  0.00    -0.415 A  
HETATM   17  C   UNL     1      -9.771  10.489  68.441  1.00  0.00    -0.166 A  
HETATM   18  C   UNL     1      -9.498   9.647  69.531  1.00  0.00    -0.199 A  
HETATM   19 CL   UNL     1      -8.056   8.681  69.335  1.00  0.00    -0.109 Cl 
ENDBRANCH  11  12
ENDBRANCH  10  11
BRANCH  10  20
HETATM   20  C   UNL     1     -10.746   6.670  73.888  1.00  0.00    -0.117 C  
BRANCH  20  21
HETATM   21  N   UNL     1      -9.955   5.455  74.027  1.00  0.00    -0.183 NA 
HETATM   22  C   UNL     1     -10.448   4.199  74.255  1.00  0.00    -0.240 A  
HETATM   23  N   UNL     1      -9.484   3.315  74.348  1.00  0.00    -0.092 NA 
HETATM   24  C   UNL     1      -8.592   5.372  74.058  1.00  0.00    -0.115 A  
HETATM   25  C   UNL     1      -8.322   4.033  74.223  1.00  0.00    -0.090 A  
ENDBRANCH  20  21
ENDBRANCH  10  20
ENDBRANCH   9  10
ENDBRANCH   8   9
ENDBRANCH   5   8
TORSDOF 7
ENDMDL
MODEL      233
REMARK 921   NORMALIZED FREE ENERGY PREDICTED BY IDOCK:   -4.74 KCAL/MOL
REMARK 922        TOTAL FREE ENERGY PREDICTED BY IDOCK:   -7.56 KCAL/MOL
REMARK 923 INTER-LIGAND FREE ENERGY PREDICTED BY IDOCK:   -6.43 KCAL/MOL
REMARK 924 INTRA-LIGAND FREE ENERGY PREDICTED BY IDOCK:   -1.13 KCAL/MOL
REMARK 927      BINDING AFFINITY PREDICTED BY RF-SCORE:    0.00 PKD
ROOT
HETATM    1 CL   UNL     1      -7.826   6.031  66.954  1.00  0.00    -0.101 Cl 
HETATM    2  C   UNL     1      -8.396   7.594  67.394  1.00  0.00    -0.116 A  
HETATM    3  C   UNL     1      -7.679   8.355  68.312  1.00  0.00    -0.106 A  
HETATM    4  C   UNL     1      -8.164   9.606  68.699  1.00  0.00    -0.105 A  
HETATM    5  C   UNL     1      -9.363  10.111  68.168  1.00  0.00    -0.140 A  
HETATM    6  C   UNL     1     -10.060   9.340  67.230  1.00  0.00    -0.291 A  
HETATM    7  C   UNL     1      -9.578   8.084  66.846  1.00  0.00    -0.265 A  
ENDROOT
BRANCH   5   8
HETATM    8  C   UNL     1      -9.926  11.426  68.665  1.00  0.00    -0.209 C  
BRANCH   8   9
HETATM    9  C   UNL     1     -11.401  11.626  68.312  1.00  0.00    -0.348 C  
BRANCH   9  10
HETATM   10  C   UNL     1     -12.234  12.347  69.393  1.00  0.00    -0.065 C  
BRANCH  10  11
HETATM   11  S   UNL     1     -12.134  14.173  69.169  1.00  0.00    -0.274 SA 
BRANCH  11  12
HETATM   12  C   UNL     1     -11.235  14.661  67.676  1.00  0.00    -0.321 A  
HETATM   13 CL   UNL     1     -13.010  13.852  65.642  1.00  0.00    -0.479 Cl 
HETATM   14  C   UNL     1      -9.536  15.655  65.590  1.00  0.00    -0.319 A  
HETATM   15  C   UNL     1     -11.602  14.587  66.313  1.00  0.00    -0.360 A  
HETATM   16  C   UNL     1     -10.768  15.102  65.297  1.00  0.00    -0.422 A  
HETATM   17  C   UNL     1      -9.112  15.684  66.904  1.00  0.00    -0.260 A  
HETATM   18  C   UNL     1      -9.936  15.194  67.930  1.00  0.00    -0.221 A  
HETATM   19 CL   UNL     1      -9.216  15.279  69.519  1.00  0.00    -0.230 Cl 
ENDBRANCH  11  12
ENDBRANCH  10  11
BRANCH  10  20
HETATM   20  C   UNL     1     -12.130  11.927  70.877  1.00  0.00    -0.134 C  
BRANCH  20  21
HETATM   21  N   UNL     1     -12.305  10.501  71.121  1.00  0.00    -0.374 NA 
HETATM   22  C   UNL     1     -13.503   9.855  71.271  1.00  0.00    -0.280 A  
HETATM   23  N   UNL     1     -13.331   8.574  71.495  1.00  0.00    -0.319 NA 
HETATM   24  C   UNL     1     -11.315   9.587  71.343  1.00  0.00    -0.392 A  
HETATM   25  C   UNL     1     -11.971   8.394  71.538  1.00  0.00    -0.299 A  
ENDBRANCH  20  21
ENDBRANCH  10  20
ENDBRANCH   9  10
ENDBRANCH   8   9
ENDBRANCH   5   8
TORSDOF 7
ENDMDL
MODEL      234
REMARK 921   NORMALIZED FREE ENERGY PREDICTED BY IDOCK:   -4.74 KCAL/MOL
REMARK 922        TOTAL FREE ENERGY PREDICTED BY IDOCK:   -7.56 KCAL/MOL
REMARK 923 INTER-LIGAND FREE ENERGY PREDICTED BY IDOCK:   -6.78 KCAL/MOL
REMARK 924 INTRA-LIGAND FREE ENERGY PREDICTED BY IDOCK:   -0.78 KCAL/MOL
REMARK 927      BINDING AFFINITY PREDICTED BY RF-SCORE:    0.00 PKD
ROOT
HETATM    1 CL   UNL     1      -8.399   6.518  69.514  1.00  0.00    -0.129 Cl 
HETATM    2  C   UNL     1      -8.986   7.786  68.510  1.00  0.00    -0.133 A  
HETATM    3  C   UNL     1      -8.691   9.109  68.827  1.00  0.00    -0.132 A  
HETATM    4  C   UNL     1      -9.202  10.139  68.035  1.00  0.00    -0.142 A  
HETATM    5  C   UNL     1     -10.006   9.859  66.917  1.00  0.00    -0.268 A  
HETATM    6  C   UNL     1     -10.276   8.522  66.601  1.00  0.00    -0.345 A  
HETATM    7  C   UNL     1      -9.769   7.489  67.397  1.00  0.00    -0.204 A  
ENDROOT
BRANCH   5   8
HETATM    8  C   UNL     1     -10.631  10.985  66.121  1.00  0.00    -0.288 C  
BRANCH   8   9
HETATM    9  C   UNL     1      -9.737  12.222  66.015  1.00  0.00    -0.254 C  
BRANCH   9  10
HETATM   10  C   UNL     1     -10.419  13.550  66.410  1.00  0.00    -0.287 C  
BRANCH  10  11
HETATM   11  S   UNL     1      -9.281  14.577  67.432  1.00  0.00    -0.208 SA 
BRANCH  11  12
HETATM   12  C   UNL     1      -9.559  16.355  67.243  1.00  0.00    -0.234 A  
HETATM   13 CL   UNL     1     -11.158  16.447  64.925  1.00  0.00    -0.338 Cl 
HETATM   14  C   UNL     1      -9.822  19.208  67.355  1.00  0.00    -0.404 A  
HETATM   15  C   UNL     1     -10.334  17.073  66.304  1.00  0.00    -0.306 A  
HETATM   16  C   UNL     1     -10.475  18.476  66.384  1.00  0.00    -0.443 A  
HETATM   17  C   UNL     1      -9.002  18.551  68.251  1.00  0.00    -0.332 A  
HETATM   18  C   UNL     1      -8.864  17.155  68.199  1.00  0.00    -0.237 A  
HETATM   19 CL   UNL     1      -7.757  16.508  69.384  1.00  0.00    -0.142 Cl 
ENDBRANCH  11  12
ENDBRANCH  10  11
BRANCH  10  20
HETATM   20  C   UNL     1     -11.868  13.560  66.947  1.00  0.00    -0.407 C  
BRANCH  20  21
HETATM   21  N   UNL     1     -11.981  13.516  68.400  1.00  0.00    -0.363 NA 
HETATM   22  C   UNL     1     -11.963  12.385  69.170  1.00  0.00    -0.240 A  
HETATM   23  N   UNL     1     -12.101  12.672  70.443  1.00  0.00    -0.352 NA 
HETATM   24  C   UNL     1     -12.226  14.574  69.228  1.00  0.00    -0.229 A  
HETATM   25  C   UNL     1     -12.262  14.033  70.492  1.00  0.00    -0.365 A  
ENDBRANCH  20  21
ENDBRANCH  10  20
ENDBRANCH   9  10
ENDBRANCH   8   9
ENDBRANCH   5   8
TORSDOF 7
ENDMDL
MODEL      235
REMARK 921   NORMALIZED FREE ENERGY PREDICTED BY IDOCK:   -4.74 KCAL/MOL
REMARK 922        TOTAL FREE ENERGY PREDICTED BY IDOCK:   -7.56 KCAL/MOL
REMARK 923 INTER-LIGAND FREE ENERGY PREDICTED BY IDOCK:   -5.64 KCAL/MOL
REMARK 924 INTRA-LIGAND FREE ENERGY PREDICTED BY IDOCK:   -1.92 KCAL/MOL
REMARK 927      BINDING AFFINITY PREDICTED BY RF-SCORE:    0.00 PKD
ROOT
HETATM    1 CL   UNL     1      -9.402  18.660  67.270  1.00  0.00    -0.289 Cl 
HETATM    2  C   UNL     1      -8.994  17.009  67.534  1.00  0.00    -0.219 A  
HETATM    3  C   UNL     1      -8.849  16.153  66.446  1.00  0.00    -0.355 A  
HETATM    4  C   UNL     1      -8.558  14.805  66.663  1.00  0.00    -0.170 A  
HETATM    5  C   UNL     1      -8.403  14.300  67.965  1.00  0.00    -0.157 A  
HETATM    6  C   UNL     1      -8.533  15.180  69.047  1.00  0.00    -0.214 A  
HETATM    7  C   UNL     1      -8.829  16.530  68.831  1.00  0.00    -0.244 A  
ENDROOT
BRANCH   5   8
HETATM    8  C   UNL     1      -8.181  12.820  68.192  1.00  0.00    -0.167 C  
BRANCH   8   9
HETATM    9  C   UNL     1      -8.584  11.955  66.996  1.00  0.00    -0.176 C  
BRANCH   9  10
HETATM   10  C   UNL     1      -9.378  10.681  67.356  1.00  0.00    -0.143 C  
BRANCH  10  11
HETATM   11  S   UNL     1     -11.187  11.028  67.348  1.00  0.00    -0.224 SA 
BRANCH  11  12
HETATM   12  C   UNL     1     -11.666  12.356  68.481  1.00  0.00    -0.326 A  
HETATM   13 CL   UNL     1     -11.949  10.964  70.915  1.00  0.00    -0.433 Cl 
HETATM   14  C   UNL     1     -12.313  14.737  69.940  1.00  0.00    -0.328 A  
HETATM   15  C   UNL     1     -11.905  12.338  69.874  1.00  0.00    -0.311 A  
HETATM   16  C   UNL     1     -12.199  13.521  70.586  1.00  0.00    -0.434 A  
HETATM   17  C   UNL     1     -12.153  14.785  68.570  1.00  0.00    -0.210 A  
HETATM   18  C   UNL     1     -11.841  13.622  67.848  1.00  0.00    -0.366 A  
HETATM   19 CL   UNL     1     -11.715  13.871  66.124  1.00  0.00    -0.369 Cl 
ENDBRANCH  11  12
ENDBRANCH  10  11
BRANCH  10  20
HETATM   20  C   UNL     1      -8.950   9.800  68.552  1.00  0.00    -0.124 C  
BRANCH  20  21
HETATM   21  N   UNL     1      -7.908   8.827  68.250  1.00  0.00    -0.101 NA 
HETATM   22  C   UNL     1      -6.634   8.837  68.750  1.00  0.00    -0.054 A  
HETATM   23  N   UNL     1      -5.927   7.838  68.278  1.00  0.00    -0.038 NA 
HETATM   24  C   UNL     1      -7.986   7.808  67.344  1.00  0.00    -0.119 A  
HETATM   25  C   UNL     1      -6.759   7.187  67.403  1.00  0.00    -0.068 A  
ENDBRANCH  20  21
ENDBRANCH  10  20
ENDBRANCH   9  10
ENDBRANCH   8   9
ENDBRANCH   5   8
TORSDOF 7
ENDMDL
MODEL      236
REMARK 921   NORMALIZED FREE ENERGY PREDICTED BY IDOCK:   -4.73 KCAL/MOL
REMARK 922        TOTAL FREE ENERGY PREDICTED BY IDOCK:   -7.55 KCAL/MOL
REMARK 923 INTER-LIGAND FREE ENERGY PREDICTED BY IDOCK:   -6.35 KCAL/MOL
REMARK 924 INTRA-LIGAND FREE ENERGY PREDICTED BY IDOCK:   -1.20 KCAL/MOL
REMARK 927      BINDING AFFINITY PREDICTED BY RF-SCORE:    0.00 PKD
ROOT
HETATM    1 CL   UNL     1     -12.084  14.661  64.258  1.00  0.00    -0.481 Cl 
HETATM    2  C   UNL     1     -11.424  13.124  64.657  1.00  0.00    -0.333 A  
HETATM    3  C   UNL     1     -11.452  12.684  65.977  1.00  0.00    -0.414 A  
HETATM    4  C   UNL     1     -10.879  11.454  66.307  1.00  0.00    -0.318 A  
HETATM    5  C   UNL     1     -10.282  10.649  65.323  1.00  0.00    -0.351 A  
HETATM    6  C   UNL     1     -10.281  11.097  63.996  1.00  0.00    -0.419 A  
HETATM    7  C   UNL     1     -10.850  12.333  63.666  1.00  0.00    -0.522 A  
ENDROOT
BRANCH   5   8
HETATM    8  C   UNL     1      -9.582   9.362  65.706  1.00  0.00    -0.340 C  
BRANCH   8   9
HETATM    9  C   UNL     1      -8.469   9.560  66.737  1.00  0.00    -0.129 C  
BRANCH   9  10
HETATM   10  C   UNL     1      -8.418   8.490  67.849  1.00  0.00    -0.130 C  
BRANCH  10  11
HETATM   11  S   UNL     1      -8.145   9.282  69.489  1.00  0.00    -0.121 SA 
BRANCH  11  12
HETATM   12  C   UNL     1      -9.189   8.594  70.798  1.00  0.00    -0.185 A  
HETATM   13 CL   UNL     1      -7.577   6.505  71.786  1.00  0.00    -0.093 Cl 
HETATM   14  C   UNL     1     -11.100   7.868  72.810  1.00  0.00    -0.462 A  
HETATM   15  C   UNL     1      -8.943   7.554  71.724  1.00  0.00    -0.122 A  
HETATM   16  C   UNL     1      -9.881   7.223  72.725  1.00  0.00    -0.219 A  
HETATM   17  C   UNL     1     -11.406   8.843  71.881  1.00  0.00    -0.446 A  
HETATM   18  C   UNL     1     -10.477   9.200  70.891  1.00  0.00    -0.278 A  
HETATM   19 CL   UNL     1     -11.056  10.422  69.785  1.00  0.00    -0.319 Cl 
ENDBRANCH  11  12
ENDBRANCH  10  11
BRANCH  10  20
HETATM   20  C   UNL     1      -7.580   7.204  67.666  1.00  0.00    -0.110 C  
BRANCH  20  21
HETATM   21  N   UNL     1      -8.205   5.991  68.177  1.00  0.00    -0.113 NA 
HETATM   22  C   UNL     1      -7.562   4.815  68.455  1.00  0.00    -0.077 A  
HETATM   23  N   UNL     1      -8.400   3.902  68.886  1.00  0.00    -0.072 NA 
HETATM   24  C   UNL     1      -9.541   5.784  68.368  1.00  0.00    -0.125 A  
HETATM   25  C   UNL     1      -9.636   4.495  68.840  1.00  0.00    -0.166 A  
ENDBRANCH  20  21
ENDBRANCH  10  20
ENDBRANCH   9  10
ENDBRANCH   8   9
ENDBRANCH   5   8
TORSDOF 7
ENDMDL
MODEL      237
REMARK 921   NORMALIZED FREE ENERGY PREDICTED BY IDOCK:   -4.73 KCAL/MOL
REMARK 922        TOTAL FREE ENERGY PREDICTED BY IDOCK:   -7.54 KCAL/MOL
REMARK 923 INTER-LIGAND FREE ENERGY PREDICTED BY IDOCK:   -6.79 KCAL/MOL
REMARK 924 INTRA-LIGAND FREE ENERGY PREDICTED BY IDOCK:   -0.75 KCAL/MOL
REMARK 927      BINDING AFFINITY PREDICTED BY RF-SCORE:    0.00 PKD
ROOT
HETATM    1 CL   UNL     1     -13.456  15.822  72.501  1.00  0.00    -0.583 Cl 
HETATM    2  C   UNL     1     -13.128  14.256  71.866  1.00  0.00    -0.365 A  
HETATM    3  C   UNL     1     -13.637  13.132  72.508  1.00  0.00    -0.595 A  
HETATM    4  C   UNL     1     -13.337  11.860  72.016  1.00  0.00    -0.425 A  
HETATM    5  C   UNL     1     -12.533  11.700  70.874  1.00  0.00    -0.440 A  
HETATM    6  C   UNL     1     -12.046  12.843  70.228  1.00  0.00    -0.377 A  
HETATM    7  C   UNL     1     -12.342  14.117  70.725  1.00  0.00    -0.439 A  
ENDROOT
BRANCH   5   8
HETATM    8  C   UNL     1     -12.137  10.316  70.405  1.00  0.00    -0.373 C  
BRANCH   8   9
HETATM    9  C   UNL     1     -10.624  10.097  70.367  1.00  0.00    -0.287 C  
BRANCH   9  10
HETATM   10  C   UNL     1     -10.147   8.758  70.969  1.00  0.00    -0.237 C  
BRANCH  10  11
HETATM   11  S   UNL     1     -11.013   7.347  70.162  1.00  0.00    -0.239 SA 
BRANCH  11  12
HETATM   12  C   UNL     1     -10.132   5.775  70.333  1.00  0.00    -0.210 A  
HETATM   13 CL   UNL     1      -8.784   5.595  67.866  1.00  0.00    -0.108 Cl 
HETATM   14  C   UNL     1      -8.859   3.304  71.038  1.00  0.00    -0.142 A  
HETATM   15  C   UNL     1      -9.224   5.127  69.465  1.00  0.00    -0.119 A  
HETATM   16  C   UNL     1      -8.585   3.923  69.834  1.00  0.00    -0.104 A  
HETATM   17  C   UNL     1      -9.791   3.871  71.885  1.00  0.00    -0.248 A  
HETATM   18  C   UNL     1     -10.422   5.078  71.544  1.00  0.00    -0.155 A  
HETATM   19 CL   UNL     1     -11.596   5.620  72.718  1.00  0.00    -0.330 Cl 
ENDBRANCH  11  12
ENDBRANCH  10  11
BRANCH  10  20
HETATM   20  C   UNL     1     -10.030   8.581  72.500  1.00  0.00    -0.252 C  
BRANCH  20  21
HETATM   21  N   UNL     1      -8.714   8.162  72.967  1.00  0.00    -0.222 NA 
HETATM   22  C   UNL     1      -8.395   7.806  74.249  1.00  0.00    -0.243 A  
HETATM   23  N   UNL     1      -7.126   7.494  74.357  1.00  0.00    -0.108 NA 
HETATM   24  C   UNL     1      -7.560   8.152  72.238  1.00  0.00    -0.117 A  
HETATM   25  C   UNL     1      -6.595   7.701  73.109  1.00  0.00    -0.069 A  
ENDBRANCH  20  21
ENDBRANCH  10  20
ENDBRANCH   9  10
ENDBRANCH   8   9
ENDBRANCH   5   8
TORSDOF 7
ENDMDL
MODEL      238
REMARK 921   NORMALIZED FREE ENERGY PREDICTED BY IDOCK:   -4.72 KCAL/MOL
REMARK 922        TOTAL FREE ENERGY PREDICTED BY IDOCK:   -7.54 KCAL/MOL
REMARK 923 INTER-LIGAND FREE ENERGY PREDICTED BY IDOCK:   -6.88 KCAL/MOL
REMARK 924 INTRA-LIGAND FREE ENERGY PREDICTED BY IDOCK:   -0.66 KCAL/MOL
REMARK 927      BINDING AFFINITY PREDICTED BY RF-SCORE:    0.00 PKD
ROOT
HETATM    1 CL   UNL     1      -7.017   8.040  64.134  1.00  0.00    -0.068 Cl 
HETATM    2  C   UNL     1      -7.698   9.400  64.937  1.00  0.00    -0.111 A  
HETATM    3  C   UNL     1      -7.095   9.893  66.090  1.00  0.00    -0.103 A  
HETATM    4  C   UNL     1      -7.672  10.972  66.763  1.00  0.00    -0.146 A  
HETATM    5  C   UNL     1      -8.850  11.573  66.288  1.00  0.00    -0.186 A  
HETATM    6  C   UNL     1      -9.432  11.077  65.115  1.00  0.00    -0.265 A  
HETATM    7  C   UNL     1      -8.858   9.993  64.443  1.00  0.00    -0.239 A  
ENDROOT
BRANCH   5   8
HETATM    8  C   UNL     1      -9.517  12.680  67.076  1.00  0.00    -0.220 C  
BRANCH   8   9
HETATM    9  C   UNL     1      -9.226  14.078  66.527  1.00  0.00    -0.240 C  
BRANCH   9  10
HETATM   10  C   UNL     1     -10.228  15.168  66.964  1.00  0.00    -0.262 C  
BRANCH  10  11
HETATM   11  S   UNL     1      -9.834  15.757  68.664  1.00  0.00    -0.219 SA 
BRANCH  11  12
HETATM   12  C   UNL     1      -8.621  17.100  68.693  1.00  0.00    -0.260 A  
HETATM   13 CL   UNL     1     -10.099  19.238  67.606  1.00  0.00    -0.450 Cl 
HETATM   14  C   UNL     1      -6.450  18.949  68.989  1.00  0.00    -0.300 A  
HETATM   15  C   UNL     1      -8.744  18.462  68.335  1.00  0.00    -0.317 A  
HETATM   16  C   UNL     1      -7.675  19.368  68.509  1.00  0.00    -0.380 A  
HETATM   17  C   UNL     1      -6.269  17.613  69.286  1.00  0.00    -0.239 A  
HETATM   18  C   UNL     1      -7.326  16.701  69.139  1.00  0.00    -0.217 A  
HETATM   19 CL   UNL     1      -6.898  15.052  69.525  1.00  0.00    -0.161 Cl 
ENDBRANCH  11  12
ENDBRANCH  10  11
BRANCH  10  20
HETATM   20  C   UNL     1     -11.745  14.977  66.740  1.00  0.00    -0.154 C  
BRANCH  20  21
HETATM   21  N   UNL     1     -12.093  14.183  65.569  1.00  0.00    -0.395 NA 
HETATM   22  C   UNL     1     -12.168  14.644  64.282  1.00  0.00    -0.408 A  
HETATM   23  N   UNL     1     -12.522  13.692  63.452  1.00  0.00    -0.800 NA 
HETATM   24  C   UNL     1     -12.503  12.880  65.563  1.00  0.00    -0.402 A  
HETATM   25  C   UNL     1     -12.730  12.587  64.238  1.00  0.00    -0.341 A  
ENDBRANCH  20  21
ENDBRANCH  10  20
ENDBRANCH   9  10
ENDBRANCH   8   9
ENDBRANCH   5   8
TORSDOF 7
ENDMDL
MODEL      239
REMARK 921   NORMALIZED FREE ENERGY PREDICTED BY IDOCK:   -4.72 KCAL/MOL
REMARK 922        TOTAL FREE ENERGY PREDICTED BY IDOCK:   -7.53 KCAL/MOL
REMARK 923 INTER-LIGAND FREE ENERGY PREDICTED BY IDOCK:   -6.49 KCAL/MOL
REMARK 924 INTRA-LIGAND FREE ENERGY PREDICTED BY IDOCK:   -1.04 KCAL/MOL
REMARK 927      BINDING AFFINITY PREDICTED BY RF-SCORE:    0.00 PKD
ROOT
HETATM    1 CL   UNL     1      -7.782   6.256  68.424  1.00  0.00    -0.102 Cl 
HETATM    2  C   UNL     1      -8.747   7.591  68.919  1.00  0.00    -0.132 A  
HETATM    3  C   UNL     1      -8.511   8.193  70.151  1.00  0.00    -0.127 A  
HETATM    4  C   UNL     1      -9.321   9.250  70.570  1.00  0.00    -0.316 A  
HETATM    5  C   UNL     1     -10.368   9.722  69.760  1.00  0.00    -0.274 A  
HETATM    6  C   UNL     1     -10.578   9.118  68.514  1.00  0.00    -0.209 A  
HETATM    7  C   UNL     1      -9.771   8.055  68.097  1.00  0.00    -0.179 A  
ENDROOT
BRANCH   5   8
HETATM    8  C   UNL     1     -11.297  10.806  70.264  1.00  0.00    -0.374 C  
BRANCH   8   9
HETATM    9  C   UNL     1     -12.223  11.363  69.180  1.00  0.00    -0.242 C  
BRANCH   9  10
HETATM   10  C   UNL     1     -11.909  12.811  68.743  1.00  0.00    -0.307 C  
BRANCH  10  11
HETATM   11  S   UNL     1     -11.181  12.826  67.051  1.00  0.00    -0.309 SA 
BRANCH  11  12
HETATM   12  C   UNL     1      -9.878  14.066  66.845  1.00  0.00    -0.267 A  
HETATM   13 CL   UNL     1     -11.118  15.929  65.133  1.00  0.00    -0.349 Cl 
HETATM   14  C   UNL     1      -7.604  15.812  66.852  1.00  0.00    -0.235 A  
HETATM   15  C   UNL     1      -9.877  15.295  66.147  1.00  0.00    -0.307 A  
HETATM   16  C   UNL     1      -8.759  16.158  66.179  1.00  0.00    -0.358 A  
HETATM   17  C   UNL     1      -7.542  14.589  67.490  1.00  0.00    -0.211 A  
HETATM   18  C   UNL     1      -8.650  13.727  67.487  1.00  0.00    -0.193 A  
HETATM   19 CL   UNL     1      -8.371  12.212  68.310  1.00  0.00    -0.169 Cl 
ENDBRANCH  11  12
ENDBRANCH  10  11
BRANCH  10  20
HETATM   20  C   UNL     1     -11.192  13.785  69.705  1.00  0.00    -0.115 C  
BRANCH  20  21
HETATM   21  N   UNL     1     -12.041  14.349  70.746  1.00  0.00    -0.318 NA 
HETATM   22  C   UNL     1     -11.642  15.228  71.716  1.00  0.00    -0.427 A  
HETATM   23  N   UNL     1     -12.634  15.539  72.517  1.00  0.00    -0.367 NA 
HETATM   24  C   UNL     1     -13.343  14.022  70.998  1.00  0.00    -0.177 A  
HETATM   25  C   UNL     1     -13.700  14.797  72.078  1.00  0.00    -0.428 A  
ENDBRANCH  20  21
ENDBRANCH  10  20
ENDBRANCH   9  10
ENDBRANCH   8   9
ENDBRANCH   5   8
TORSDOF 7
ENDMDL
MODEL      240
REMARK 921   NORMALIZED FREE ENERGY PREDICTED BY IDOCK:   -4.71 KCAL/MOL
REMARK 922        TOTAL FREE ENERGY PREDICTED BY IDOCK:   -7.52 KCAL/MOL
REMARK 923 INTER-LIGAND FREE ENERGY PREDICTED BY IDOCK:   -6.68 KCAL/MOL
REMARK 924 INTRA-LIGAND FREE ENERGY PREDICTED BY IDOCK:   -0.85 KCAL/MOL
REMARK 927      BINDING AFFINITY PREDICTED BY RF-SCORE:    0.00 PKD
ROOT
HETATM    1 CL   UNL     1      -7.071   6.576  68.537  1.00  0.00    -0.080 Cl 
HETATM    2  C   UNL     1      -8.235   7.749  69.014  1.00  0.00    -0.126 A  
HETATM    3  C   UNL     1      -7.966   8.587  70.093  1.00  0.00    -0.105 A  
HETATM    4  C   UNL     1      -8.929   9.511  70.505  1.00  0.00    -0.265 A  
HETATM    5  C   UNL     1     -10.163   9.613  69.841  1.00  0.00    -0.279 A  
HETATM    6  C   UNL     1     -10.408   8.776  68.745  1.00  0.00    -0.234 A  
HETATM    7  C   UNL     1      -9.446   7.846  68.335  1.00  0.00    -0.150 A  
ENDROOT
BRANCH   5   8
HETATM    8  C   UNL     1     -11.233  10.552  70.355  1.00  0.00    -0.378 C  
BRANCH   8   9
HETATM    9  C   UNL     1     -12.053  11.204  69.240  1.00  0.00    -0.377 C  
BRANCH   9  10
HETATM   10  C   UNL     1     -11.605  12.631  68.856  1.00  0.00    -0.317 C  
BRANCH  10  11
HETATM   11  S   UNL     1     -10.329  12.567  67.529  1.00  0.00    -0.222 SA 
BRANCH  11  12
HETATM   12  C   UNL     1     -11.024  12.703  65.863  1.00  0.00    -0.278 A  
HETATM   13 CL   UNL     1     -12.492  15.101  66.042  1.00  0.00     0.463 Cl 
HETATM   14  C   UNL     1     -11.844  12.582  63.118  1.00  0.00    -0.346 A  
HETATM   15  C   UNL     1     -11.815  13.715  65.273  1.00  0.00    -0.349 A  
HETATM   16  C   UNL     1     -12.192  13.656  63.913  1.00  0.00    -0.429 A  
HETATM   17  C   UNL     1     -11.129  11.540  63.675  1.00  0.00    -0.469 A  
HETATM   18  C   UNL     1     -10.728  11.590  65.020  1.00  0.00    -0.290 A  
HETATM   19 CL   UNL     1      -9.868  10.168  65.556  1.00  0.00    -0.343 Cl 
ENDBRANCH  11  12
ENDBRANCH  10  11
BRANCH  10  20
HETATM   20  C   UNL     1     -11.269  13.671  69.949  1.00  0.00     0.041 C  
BRANCH  20  21
HETATM   21  N   UNL     1     -12.412  14.120  70.735  1.00  0.00    -0.343 NA 
HETATM   22  C   UNL     1     -13.195  13.330  71.532  1.00  0.00    -0.299 A  
HETATM   23  N   UNL     1     -14.155  14.023  72.096  1.00  0.00    -0.519 NA 
HETATM   24  C   UNL     1     -12.959  15.371  70.732  1.00  0.00    -0.453 A  
HETATM   25  C   UNL     1     -14.016  15.298  71.609  1.00  0.00    -0.529 A  
ENDBRANCH  20  21
ENDBRANCH  10  20
ENDBRANCH   9  10
ENDBRANCH   8   9
ENDBRANCH   5   8
TORSDOF 7
ENDMDL
MODEL      241
REMARK 921   NORMALIZED FREE ENERGY PREDICTED BY IDOCK:   -4.69 KCAL/MOL
REMARK 922        TOTAL FREE ENERGY PREDICTED BY IDOCK:   -7.49 KCAL/MOL
REMARK 923 INTER-LIGAND FREE ENERGY PREDICTED BY IDOCK:   -6.32 KCAL/MOL
REMARK 924 INTRA-LIGAND FREE ENERGY PREDICTED BY IDOCK:   -1.17 KCAL/MOL
REMARK 927      BINDING AFFINITY PREDICTED BY RF-SCORE:    0.00 PKD
ROOT
HETATM    1 CL   UNL     1      -7.691   7.657  63.189  1.00  0.00    -0.122 Cl 
HETATM    2  C   UNL     1      -8.667   9.012  63.606  1.00  0.00    -0.077 A  
HETATM    3  C   UNL     1      -8.900  10.009  62.664  1.00  0.00    -0.246 A  
HETATM    4  C   UNL     1      -9.659  11.127  63.017  1.00  0.00    -0.389 A  
HETATM    5  C   UNL     1     -10.196  11.257  64.309  1.00  0.00    -0.383 A  
HETATM    6  C   UNL     1      -9.968  10.234  65.238  1.00  0.00    -0.387 A  
HETATM    7  C   UNL     1      -9.204   9.116  64.886  1.00  0.00    -0.135 A  
ENDROOT
BRANCH   5   8
HETATM    8  C   UNL     1     -10.936  12.516  64.708  1.00  0.00    -0.339 C  
BRANCH   8   9
HETATM    9  C   UNL     1     -11.557  12.438  66.104  1.00  0.00    -0.452 C  
BRANCH   9  10
HETATM   10  C   UNL     1     -10.943  13.404  67.141  1.00  0.00    -0.280 C  
BRANCH  10  11
HETATM   11  S   UNL     1      -9.561  14.360  66.387  1.00  0.00    -0.292 SA 
BRANCH  11  12
HETATM   12  C   UNL     1      -9.699  16.145  66.651  1.00  0.00    -0.244 A  
HETATM   13 CL   UNL     1      -8.402  16.465  69.132  1.00  0.00    -0.221 Cl 
HETATM   14  C   UNL     1     -10.057  18.990  66.642  1.00  0.00    -0.453 A  
HETATM   15  C   UNL     1      -9.199  16.966  67.688  1.00  0.00    -0.228 A  
HETATM   16  C   UNL     1      -9.361  18.368  67.660  1.00  0.00    -0.274 A  
HETATM   17  C   UNL     1     -10.619  18.217  65.646  1.00  0.00    -0.107 A  
HETATM   18  C   UNL     1     -10.452  16.823  65.647  1.00  0.00    -0.269 A  
HETATM   19 CL   UNL     1     -11.265  16.012  64.331  1.00  0.00    -0.366 Cl 
ENDBRANCH  11  12
ENDBRANCH  10  11
BRANCH  10  20
HETATM   20  C   UNL     1     -10.615  12.918  68.571  1.00  0.00    -0.253 C  
BRANCH  20  21
HETATM   21  N   UNL     1      -9.847  11.681  68.634  1.00  0.00    -0.193 NA 
HETATM   22  C   UNL     1     -10.355  10.435  68.881  1.00  0.00    -0.209 A  
HETATM   23  N   UNL     1      -9.409   9.526  68.890  1.00  0.00    -0.146 NA 
HETATM   24  C   UNL     1      -8.488  11.565  68.562  1.00  0.00    -0.143 A  
HETATM   25  C   UNL     1      -8.242  10.217  68.688  1.00  0.00    -0.111 A  
ENDBRANCH  20  21
ENDBRANCH  10  20
ENDBRANCH   9  10
ENDBRANCH   8   9
ENDBRANCH   5   8
TORSDOF 7
ENDMDL
MODEL      242
REMARK 921   NORMALIZED FREE ENERGY PREDICTED BY IDOCK:   -4.69 KCAL/MOL
REMARK 922        TOTAL FREE ENERGY PREDICTED BY IDOCK:   -7.49 KCAL/MOL
REMARK 923 INTER-LIGAND FREE ENERGY PREDICTED BY IDOCK:   -6.50 KCAL/MOL
REMARK 924 INTRA-LIGAND FREE ENERGY PREDICTED BY IDOCK:   -0.99 KCAL/MOL
REMARK 927      BINDING AFFINITY PREDICTED BY RF-SCORE:    0.00 PKD
ROOT
HETATM    1 CL   UNL     1      -9.046   9.822  63.287  1.00  0.00    -0.280 Cl 
HETATM    2  C   UNL     1      -9.033  10.078  64.988  1.00  0.00    -0.199 A  
HETATM    3  C   UNL     1      -7.926  10.672  65.587  1.00  0.00    -0.136 A  
HETATM    4  C   UNL     1      -7.900  10.842  66.973  1.00  0.00    -0.132 A  
HETATM    5  C   UNL     1      -8.979  10.429  67.772  1.00  0.00    -0.131 A  
HETATM    6  C   UNL     1     -10.094   9.852  67.150  1.00  0.00    -0.270 A  
HETATM    7  C   UNL     1     -10.118   9.676  65.762  1.00  0.00    -0.274 A  
ENDROOT
BRANCH   5   8
HETATM    8  C   UNL     1      -8.900  10.533  69.280  1.00  0.00    -0.135 C  
BRANCH   8   9
HETATM    9  C   UNL     1      -9.605   9.386  70.005  1.00  0.00    -0.256 C  
BRANCH   9  10
HETATM   10  C   UNL     1     -10.852   9.801  70.816  1.00  0.00    -0.333 C  
BRANCH  10  11
HETATM   11  S   UNL     1     -11.416   8.410  71.884  1.00  0.00    -0.345 SA 
BRANCH  11  12
HETATM   12  C   UNL     1     -10.248   7.027  71.933  1.00  0.00    -0.187 A  
HETATM   13 CL   UNL     1      -8.649   7.700  74.152  1.00  0.00    -0.282 Cl 
HETATM   14  C   UNL     1      -8.670   4.645  71.707  1.00  0.00    -0.134 A  
HETATM   15  C   UNL     1      -9.214   6.726  72.847  1.00  0.00    -0.134 A  
HETATM   16  C   UNL     1      -8.459   5.538  72.740  1.00  0.00    -0.120 A  
HETATM   17  C   UNL     1      -9.626   4.936  70.755  1.00  0.00    -0.251 A  
HETATM   18  C   UNL     1     -10.400   6.103  70.856  1.00  0.00    -0.215 A  
HETATM   19 CL   UNL     1     -11.529   6.321  69.542  1.00  0.00    -0.480 Cl 
ENDBRANCH  11  12
ENDBRANCH  10  11
BRANCH  10  20
HETATM   20  C   UNL     1     -12.028  10.534  70.130  1.00  0.00    -0.316 C  
BRANCH  20  21
HETATM   21  N   UNL     1     -12.484  11.733  70.821  1.00  0.00    -0.348 NA 
HETATM   22  C   UNL     1     -12.166  13.021  70.484  1.00  0.00    -0.313 A  
HETATM   23  N   UNL     1     -12.718  13.881  71.307  1.00  0.00    -0.351 NA 
HETATM   24  C   UNL     1     -13.216  11.778  71.973  1.00  0.00    -0.355 A  
HETATM   25  C   UNL     1     -13.378  13.118  72.237  1.00  0.00    -0.522 A  
ENDBRANCH  20  21
ENDBRANCH  10  20
ENDBRANCH   9  10
ENDBRANCH   8   9
ENDBRANCH   5   8
TORSDOF 7
ENDMDL
MODEL      243
REMARK 921   NORMALIZED FREE ENERGY PREDICTED BY IDOCK:   -4.68 KCAL/MOL
REMARK 922        TOTAL FREE ENERGY PREDICTED BY IDOCK:   -7.47 KCAL/MOL
REMARK 923 INTER-LIGAND FREE ENERGY PREDICTED BY IDOCK:   -6.37 KCAL/MOL
REMARK 924 INTRA-LIGAND FREE ENERGY PREDICTED BY IDOCK:   -1.11 KCAL/MOL
REMARK 927      BINDING AFFINITY PREDICTED BY RF-SCORE:    0.00 PKD
ROOT
HETATM    1 CL   UNL     1     -11.421  15.977  64.433  1.00  0.00    -0.372 Cl 
HETATM    2  C   UNL     1     -11.102  14.832  65.677  1.00  0.00    -0.342 A  
HETATM    3  C   UNL     1      -9.789  14.592  66.071  1.00  0.00    -0.342 A  
HETATM    4  C   UNL     1      -9.528  13.633  67.052  1.00  0.00    -0.252 A  
HETATM    5  C   UNL     1     -10.573  12.911  67.653  1.00  0.00    -0.232 A  
HETATM    6  C   UNL     1     -11.890  13.181  67.259  1.00  0.00    -0.420 A  
HETATM    7  C   UNL     1     -12.152  14.137  66.272  1.00  0.00    -0.463 A  
ENDROOT
BRANCH   5   8
HETATM    8  C   UNL     1     -10.272  11.810  68.647  1.00  0.00    -0.211 C  
BRANCH   8   9
HETATM    9  C   UNL     1      -9.227  10.811  68.147  1.00  0.00    -0.151 C  
BRANCH   9  10
HETATM   10  C   UNL     1      -9.794   9.644  67.310  1.00  0.00    -0.175 C  
BRANCH  10  11
HETATM   11  S   UNL     1     -10.266   8.239  68.403  1.00  0.00    -0.204 SA 
BRANCH  11  12
HETATM   12  C   UNL     1      -9.327   8.190  69.950  1.00  0.00    -0.159 A  
HETATM   13 CL   UNL     1      -6.690   7.862  69.014  1.00  0.00    -0.048 Cl 
HETATM   14  C   UNL     1      -8.221   8.245  72.594  1.00  0.00    -0.223 A  
HETATM   15  C   UNL     1      -7.935   8.101  70.181  1.00  0.00    -0.107 A  
HETATM   16  C   UNL     1      -7.401   8.154  71.487  1.00  0.00    -0.082 A  
HETATM   17  C   UNL     1      -9.590   8.266  72.414  1.00  0.00    -0.364 A  
HETATM   18  C   UNL     1     -10.139   8.235  71.122  1.00  0.00    -0.191 A  
HETATM   19 CL   UNL     1     -11.885   8.230  71.094  1.00  0.00    -0.300 Cl 
ENDBRANCH  11  12
ENDBRANCH  10  11
BRANCH  10  20
HETATM   20  C   UNL     1      -9.075   9.177  66.024  1.00  0.00    -0.197 C  
BRANCH  20  21
HETATM   21  N   UNL     1      -9.474   9.881  64.812  1.00  0.00    -0.289 NA 
HETATM   22  C   UNL     1      -8.981   9.655  63.555  1.00  0.00    -0.217 A  
HETATM   23  N   UNL     1      -9.527  10.461  62.675  1.00  0.00    -0.312 NA 
HETATM   24  C   UNL     1     -10.325  10.947  64.735  1.00  0.00    -0.323 A  
HETATM   25  C   UNL     1     -10.370  11.268  63.397  1.00  0.00    -0.391 A  
ENDBRANCH  20  21
ENDBRANCH  10  20
ENDBRANCH   9  10
ENDBRANCH   8   9
ENDBRANCH   5   8
TORSDOF 7
ENDMDL
MODEL      244
REMARK 921   NORMALIZED FREE ENERGY PREDICTED BY IDOCK:   -4.67 KCAL/MOL
REMARK 922        TOTAL FREE ENERGY PREDICTED BY IDOCK:   -7.47 KCAL/MOL
REMARK 923 INTER-LIGAND FREE ENERGY PREDICTED BY IDOCK:   -6.44 KCAL/MOL
REMARK 924 INTRA-LIGAND FREE ENERGY PREDICTED BY IDOCK:   -1.03 KCAL/MOL
REMARK 927      BINDING AFFINITY PREDICTED BY RF-SCORE:    0.00 PKD
ROOT
HETATM    1 CL   UNL     1     -12.522  13.528  64.688  1.00  0.00    -0.396 Cl 
HETATM    2  C   UNL     1     -11.750  12.729  66.002  1.00  0.00    -0.418 A  
HETATM    3  C   UNL     1     -10.855  11.694  65.748  1.00  0.00    -0.334 A  
HETATM    4  C   UNL     1     -10.260  11.019  66.816  1.00  0.00    -0.272 A  
HETATM    5  C   UNL     1     -10.546  11.375  68.145  1.00  0.00    -0.220 A  
HETATM    6  C   UNL     1     -11.433  12.433  68.381  1.00  0.00    -0.356 A  
HETATM    7  C   UNL     1     -12.034  13.106  67.311  1.00  0.00    -0.389 A  
ENDROOT
BRANCH   5   8
HETATM    8  C   UNL     1      -9.969  10.577  69.294  1.00  0.00    -0.233 C  
BRANCH   8   9
HETATM    9  C   UNL     1     -11.032   9.873  70.139  1.00  0.00    -0.356 C  
BRANCH   9  10
HETATM   10  C   UNL     1     -10.553   8.583  70.839  1.00  0.00    -0.208 C  
BRANCH  10  11
HETATM   11  S   UNL     1     -11.614   7.158  70.352  1.00  0.00    -0.220 SA 
BRANCH  11  12
HETATM   12  C   UNL     1     -10.674   5.764  69.680  1.00  0.00    -0.346 A  
HETATM   13 CL   UNL     1      -9.892   4.410  72.025  1.00  0.00    -0.229 Cl 
HETATM   14  C   UNL     1      -9.351   3.683  68.217  1.00  0.00    -0.228 A  
HETATM   15  C   UNL     1     -10.057   4.670  70.329  1.00  0.00    -0.206 A  
HETATM   16  C   UNL     1      -9.429   3.639  69.596  1.00  0.00    -0.245 A  
HETATM   17  C   UNL     1      -9.883   4.769  67.551  1.00  0.00    -0.206 A  
HETATM   18  C   UNL     1     -10.528   5.794  68.262  1.00  0.00    -0.220 A  
HETATM   19 CL   UNL     1     -11.102   7.101  67.255  1.00  0.00    -0.323 Cl 
ENDBRANCH  11  12
ENDBRANCH  10  11
BRANCH  10  20
HETATM   20  C   UNL     1     -10.220   8.584  72.349  1.00  0.00    -0.299 C  
BRANCH  20  21
HETATM   21  N   UNL     1      -8.805   8.432  72.661  1.00  0.00    -0.283 NA 
HETATM   22  C   UNL     1      -8.259   8.413  73.915  1.00  0.00    -0.121 A  
HETATM   23  N   UNL     1      -6.955   8.278  73.868  1.00  0.00    -0.133 NA 
HETATM   24  C   UNL     1      -7.776   8.386  71.764  1.00  0.00    -0.116 A  
HETATM   25  C   UNL     1      -6.642   8.256  72.532  1.00  0.00    -0.087 A  
ENDBRANCH  20  21
ENDBRANCH  10  20
ENDBRANCH   9  10
ENDBRANCH   8   9
ENDBRANCH   5   8
TORSDOF 7
ENDMDL
MODEL      245
REMARK 921   NORMALIZED FREE ENERGY PREDICTED BY IDOCK:   -4.67 KCAL/MOL
REMARK 922        TOTAL FREE ENERGY PREDICTED BY IDOCK:   -7.46 KCAL/MOL
REMARK 923 INTER-LIGAND FREE ENERGY PREDICTED BY IDOCK:   -6.79 KCAL/MOL
REMARK 924 INTRA-LIGAND FREE ENERGY PREDICTED BY IDOCK:   -0.68 KCAL/MOL
REMARK 927      BINDING AFFINITY PREDICTED BY RF-SCORE:    0.00 PKD
ROOT
HETATM    1 CL   UNL     1      -7.612   7.609  71.940  1.00  0.00    -0.079 Cl 
HETATM    2  C   UNL     1      -8.234   8.500  70.605  1.00  0.00    -0.123 A  
HETATM    3  C   UNL     1      -7.480   8.612  69.441  1.00  0.00    -0.080 A  
HETATM    4  C   UNL     1      -7.968   9.369  68.374  1.00  0.00    -0.094 A  
HETATM    5  C   UNL     1      -9.213  10.014  68.456  1.00  0.00    -0.141 A  
HETATM    6  C   UNL     1      -9.967   9.873  69.627  1.00  0.00    -0.255 A  
HETATM    7  C   UNL     1      -9.477   9.119  70.699  1.00  0.00    -0.316 A  
ENDROOT
BRANCH   5   8
HETATM    8  C   UNL     1      -9.689  10.907  67.330  1.00  0.00    -0.189 C  
BRANCH   8   9
HETATM    9  C   UNL     1      -8.710  12.034  66.994  1.00  0.00    -0.188 C  
BRANCH   9  10
HETATM   10  C   UNL     1      -9.351  13.433  66.865  1.00  0.00    -0.252 C  
BRANCH  10  11
HETATM   11  S   UNL     1      -8.620  14.590  68.097  1.00  0.00    -0.178 SA 
BRANCH  11  12
HETATM   12  C   UNL     1      -9.200  16.294  67.910  1.00  0.00    -0.201 A  
HETATM   13 CL   UNL     1     -11.838  16.117  68.885  1.00  0.00    -0.274 Cl 
HETATM   14  C   UNL     1      -9.690  19.094  67.528  1.00  0.00    -0.386 A  
HETATM   15  C   UNL     1     -10.429  16.895  68.269  1.00  0.00    -0.352 A  
HETATM   16  C   UNL     1     -10.649  18.279  68.098  1.00  0.00    -0.304 A  
HETATM   17  C   UNL     1      -8.503  18.533  67.102  1.00  0.00    -0.268 A  
HETATM   18  C   UNL     1      -8.258  17.162  67.281  1.00  0.00    -0.187 A  
HETATM   19 CL   UNL     1      -6.721  16.628  66.646  1.00  0.00    -0.241 Cl 
ENDBRANCH  11  12
ENDBRANCH  10  11
BRANCH  10  20
HETATM   20  C   UNL     1     -10.885  13.587  66.747  1.00  0.00    -0.282 C  
BRANCH  20  21
HETATM   21  N   UNL     1     -11.401  13.514  65.386  1.00  0.00    -0.287 NA 
HETATM   22  C   UNL     1     -12.203  14.445  64.783  1.00  0.00    -0.446 A  
HETATM   23  N   UNL     1     -12.515  14.088  63.560  1.00  0.00    -0.799 NA 
HETATM   24  C   UNL     1     -11.263  12.468  64.519  1.00  0.00    -0.325 A  
HETATM   25  C   UNL     1     -11.931  12.859  63.382  1.00  0.00    -0.537 A  
ENDBRANCH  20  21
ENDBRANCH  10  20
ENDBRANCH   9  10
ENDBRANCH   8   9
ENDBRANCH   5   8
TORSDOF 7
ENDMDL
MODEL      246
REMARK 921   NORMALIZED FREE ENERGY PREDICTED BY IDOCK:   -4.66 KCAL/MOL
REMARK 922        TOTAL FREE ENERGY PREDICTED BY IDOCK:   -7.45 KCAL/MOL
REMARK 923 INTER-LIGAND FREE ENERGY PREDICTED BY IDOCK:   -6.01 KCAL/MOL
REMARK 924 INTRA-LIGAND FREE ENERGY PREDICTED BY IDOCK:   -1.44 KCAL/MOL
REMARK 927      BINDING AFFINITY PREDICTED BY RF-SCORE:    0.00 PKD
ROOT
HETATM    1 CL   UNL     1      -5.588  15.623  70.514  1.00  0.00    -0.146 Cl 
HETATM    2  C   UNL     1      -6.231  14.163  69.869  1.00  0.00    -0.146 A  
HETATM    3  C   UNL     1      -7.246  14.218  68.919  1.00  0.00    -0.125 A  
HETATM    4  C   UNL     1      -7.795  13.033  68.426  1.00  0.00    -0.134 A  
HETATM    5  C   UNL     1      -7.331  11.783  68.870  1.00  0.00    -0.093 A  
HETATM    6  C   UNL     1      -6.294  11.746  69.810  1.00  0.00    -0.125 A  
HETATM    7  C   UNL     1      -5.748  12.934  70.309  1.00  0.00    -0.162 A  
ENDROOT
BRANCH   5   8
HETATM    8  C   UNL     1      -7.997  10.507  68.399  1.00  0.00    -0.116 C  
BRANCH   8   9
HETATM    9  C   UNL     1      -9.352  10.741  67.728  1.00  0.00    -0.158 C  
BRANCH   9  10
HETATM   10  C   UNL     1     -10.571  10.263  68.546  1.00  0.00    -0.213 C  
BRANCH  10  11
HETATM   11  S   UNL     1     -12.011  11.374  68.261  1.00  0.00    -0.024 SA 
BRANCH  11  12
HETATM   12  C   UNL     1     -11.965  12.878  69.267  1.00  0.00    -0.260 A  
HETATM   13 CL   UNL     1     -13.158  12.005  71.666  1.00  0.00    -0.498 Cl 
HETATM   14  C   UNL     1     -11.623  15.424  70.540  1.00  0.00    -0.355 A  
HETATM   15  C   UNL     1     -12.358  13.104  70.606  1.00  0.00    -0.326 A  
HETATM   16  C   UNL     1     -12.162  14.356  71.229  1.00  0.00    -0.429 A  
HETATM   17  C   UNL     1     -11.289  15.263  69.210  1.00  0.00    -0.308 A  
HETATM   18  C   UNL     1     -11.458  14.020  68.579  1.00  0.00    -0.302 A  
HETATM   19 CL   UNL     1     -11.017  14.018  66.889  1.00  0.00    -0.294 Cl 
ENDBRANCH  11  12
ENDBRANCH  10  11
BRANCH  10  20
HETATM   20  C   UNL     1     -10.414   9.866  70.031  1.00  0.00    -0.284 C  
BRANCH  20  21
HETATM   21  N   UNL     1     -11.087   8.629  70.406  1.00  0.00    -0.240 NA 
HETATM   22  C   UNL     1     -12.080   8.508  71.340  1.00  0.00    -0.303 A  
HETATM   23  N   UNL     1     -12.471   7.262  71.465  1.00  0.00    -0.355 NA 
HETATM   24  C   UNL     1     -10.776   7.372  69.972  1.00  0.00    -0.246 A  
HETATM   25  C   UNL     1     -11.669   6.545  70.614  1.00  0.00    -0.374 A  
ENDBRANCH  20  21
ENDBRANCH  10  20
ENDBRANCH   9  10
ENDBRANCH   8   9
ENDBRANCH   5   8
TORSDOF 7
ENDMDL
MODEL      247
REMARK 921   NORMALIZED FREE ENERGY PREDICTED BY IDOCK:   -4.65 KCAL/MOL
REMARK 922        TOTAL FREE ENERGY PREDICTED BY IDOCK:   -7.44 KCAL/MOL
REMARK 923 INTER-LIGAND FREE ENERGY PREDICTED BY IDOCK:   -6.01 KCAL/MOL
REMARK 924 INTRA-LIGAND FREE ENERGY PREDICTED BY IDOCK:   -1.43 KCAL/MOL
REMARK 927      BINDING AFFINITY PREDICTED BY RF-SCORE:    0.00 PKD
ROOT
HETATM    1 CL   UNL     1     -10.814  15.030  66.168  1.00  0.00    -0.324 Cl 
HETATM    2  C   UNL     1     -10.644  13.685  67.227  1.00  0.00    -0.267 A  
HETATM    3  C   UNL     1      -9.374  13.264  67.608  1.00  0.00    -0.212 A  
HETATM    4  C   UNL     1      -9.236  12.147  68.435  1.00  0.00    -0.154 A  
HETATM    5  C   UNL     1     -10.363  11.447  68.896  1.00  0.00    -0.203 A  
HETATM    6  C   UNL     1     -11.635  11.898  68.520  1.00  0.00    -0.375 A  
HETATM    7  C   UNL     1     -11.773  13.013  67.687  1.00  0.00    -0.415 A  
ENDROOT
BRANCH   5   8
HETATM    8  C   UNL     1     -10.199  10.184  69.715  1.00  0.00    -0.286 C  
BRANCH   8   9
HETATM    9  C   UNL     1      -9.479   9.063  68.964  1.00  0.00    -0.155 C  
BRANCH   9  10
HETATM   10  C   UNL     1     -10.406   8.101  68.190  1.00  0.00    -0.201 C  
BRANCH  10  11
HETATM   11  S   UNL     1     -10.799   6.623  69.217  1.00  0.00    -0.301 SA 
BRANCH  11  12
HETATM   12  C   UNL     1     -10.181   6.748  70.914  1.00  0.00    -0.195 A  
HETATM   13 CL   UNL     1      -7.669   5.489  70.709  1.00  0.00    -0.089 Cl 
HETATM   14  C   UNL     1      -9.549   7.223  73.670  1.00  0.00    -0.315 A  
HETATM   15  C   UNL     1      -8.944   6.358  71.476  1.00  0.00    -0.144 A  
HETATM   16  C   UNL     1      -8.635   6.620  72.829  1.00  0.00    -0.127 A  
HETATM   17  C   UNL     1     -10.795   7.558  73.176  1.00  0.00    -0.448 A  
HETATM   18  C   UNL     1     -11.112   7.324  71.828  1.00  0.00    -0.235 A  
HETATM   19 CL   UNL     1     -12.743   7.776  71.396  1.00  0.00    -0.344 Cl 
ENDBRANCH  11  12
ENDBRANCH  10  11
BRANCH  10  20
HETATM   20  C   UNL     1     -10.110   7.737  66.717  1.00  0.00    -0.270 C  
BRANCH  20  21
HETATM   21  N   UNL     1      -9.508   8.808  65.934  1.00  0.00    -0.231 NA 
HETATM   22  C   UNL     1      -8.203   8.868  65.528  1.00  0.00    -0.129 A  
HETATM   23  N   UNL     1      -7.961   9.966  64.852  1.00  0.00    -0.132 NA 
HETATM   24  C   UNL     1     -10.109   9.977  65.560  1.00  0.00    -0.255 A  
HETATM   25  C   UNL     1      -9.143  10.663  64.861  1.00  0.00    -0.204 A  
ENDBRANCH  20  21
ENDBRANCH  10  20
ENDBRANCH   9  10
ENDBRANCH   8   9
ENDBRANCH   5   8
TORSDOF 7
ENDMDL
MODEL      248
REMARK 921   NORMALIZED FREE ENERGY PREDICTED BY IDOCK:   -4.64 KCAL/MOL
REMARK 922        TOTAL FREE ENERGY PREDICTED BY IDOCK:   -7.42 KCAL/MOL
REMARK 923 INTER-LIGAND FREE ENERGY PREDICTED BY IDOCK:   -6.54 KCAL/MOL
REMARK 924 INTRA-LIGAND FREE ENERGY PREDICTED BY IDOCK:   -0.88 KCAL/MOL
REMARK 927      BINDING AFFINITY PREDICTED BY RF-SCORE:    0.00 PKD
ROOT
HETATM    1 CL   UNL     1      -7.760   9.827  62.538  1.00  0.00    -0.120 Cl 
HETATM    2  C   UNL     1      -8.806  10.385  63.786  1.00  0.00    -0.212 A  
HETATM    3  C   UNL     1      -9.988  11.038  63.452  1.00  0.00    -0.428 A  
HETATM    4  C   UNL     1     -10.816  11.527  64.465  1.00  0.00    -0.390 A  
HETATM    5  C   UNL     1     -10.476  11.361  65.818  1.00  0.00    -0.314 A  
HETATM    6  C   UNL     1      -9.293  10.683  66.136  1.00  0.00    -0.207 A  
HETATM    7  C   UNL     1      -8.460  10.198  65.121  1.00  0.00    -0.167 A  
ENDROOT
BRANCH   5   8
HETATM    8  C   UNL     1     -11.333  11.976  66.904  1.00  0.00    -0.400 C  
BRANCH   8   9
HETATM    9  C   UNL     1     -10.580  12.201  68.216  1.00  0.00    -0.236 C  
BRANCH   9  10
HETATM   10  C   UNL     1     -11.401  11.913  69.492  1.00  0.00    -0.236 C  
BRANCH  10  11
HETATM   11  S   UNL     1     -11.684  10.102  69.677  1.00  0.00    -0.033 SA 
BRANCH  11  12
HETATM   12  C   UNL     1     -10.549   9.317  70.849  1.00  0.00    -0.296 A  
HETATM   13 CL   UNL     1      -8.081   9.556  69.510  1.00  0.00    -0.105 Cl 
HETATM   14  C   UNL     1      -9.095   8.085  72.991  1.00  0.00    -0.331 A  
HETATM   15  C   UNL     1      -9.145   9.159  70.806  1.00  0.00    -0.255 A  
HETATM   16  C   UNL     1      -8.438   8.572  71.879  1.00  0.00    -0.234 A  
HETATM   17  C   UNL     1     -10.473   8.161  73.041  1.00  0.00    -0.237 A  
HETATM   18  C   UNL     1     -11.192   8.759  71.993  1.00  0.00    -0.373 A  
HETATM   19 CL   UNL     1     -12.924   8.728  72.214  1.00  0.00    -0.442 Cl 
ENDBRANCH  11  12
ENDBRANCH  10  11
BRANCH  10  20
HETATM   20  C   UNL     1     -12.661  12.745  69.822  1.00  0.00     0.287 C  
BRANCH  20  21
HETATM   21  N   UNL     1     -12.401  13.984  70.544  1.00  0.00    -0.346 NA 
HETATM   22  C   UNL     1     -13.205  14.534  71.506  1.00  0.00    -0.358 A  
HETATM   23  N   UNL     1     -12.708  15.661  71.958  1.00  0.00    -0.404 NA 
HETATM   24  C   UNL     1     -11.375  14.857  70.318  1.00  0.00    -0.254 A  
HETATM   25  C   UNL     1     -11.565  15.871  71.228  1.00  0.00    -0.452 A  
ENDBRANCH  20  21
ENDBRANCH  10  20
ENDBRANCH   9  10
ENDBRANCH   8   9
ENDBRANCH   5   8
TORSDOF 7
ENDMDL
MODEL      249
REMARK 921   NORMALIZED FREE ENERGY PREDICTED BY IDOCK:   -4.63 KCAL/MOL
REMARK 922        TOTAL FREE ENERGY PREDICTED BY IDOCK:   -7.41 KCAL/MOL
REMARK 923 INTER-LIGAND FREE ENERGY PREDICTED BY IDOCK:   -6.53 KCAL/MOL
REMARK 924 INTRA-LIGAND FREE ENERGY PREDICTED BY IDOCK:   -0.87 KCAL/MOL
REMARK 927      BINDING AFFINITY PREDICTED BY RF-SCORE:    0.00 PKD
ROOT
HETATM    1 CL   UNL     1     -11.067   8.644  72.381  1.00  0.00    -0.394 Cl 
HETATM    2  C   UNL     1     -10.950   9.347  70.815  1.00  0.00    -0.304 A  
HETATM    3  C   UNL     1     -11.613  10.540  70.544  1.00  0.00    -0.441 A  
HETATM    4  C   UNL     1     -11.550  11.088  69.261  1.00  0.00    -0.384 A  
HETATM    5  C   UNL     1     -10.820  10.456  68.241  1.00  0.00    -0.299 A  
HETATM    6  C   UNL     1     -10.142   9.267  68.537  1.00  0.00    -0.211 A  
HETATM    7  C   UNL     1     -10.209   8.714  69.820  1.00  0.00    -0.206 A  
ENDROOT
BRANCH   5   8
HETATM    8  C   UNL     1     -10.836  11.010  66.832  1.00  0.00    -0.324 C  
BRANCH   8   9
HETATM    9  C   UNL     1      -9.770  12.079  66.587  1.00  0.00    -0.221 C  
BRANCH   9  10
HETATM   10  C   UNL     1      -9.678  12.581  65.130  1.00  0.00    -0.023 C  
BRANCH  10  11
HETATM   11  S   UNL     1     -10.284  14.316  65.008  1.00  0.00    -0.296 SA 
BRANCH  11  12
HETATM   12  C   UNL     1     -10.182  15.220  66.573  1.00  0.00    -0.275 A  
HETATM   13 CL   UNL     1      -7.608  16.357  66.416  1.00  0.00    -0.264 Cl 
HETATM   14  C   UNL     1     -10.459  16.567  69.089  1.00  0.00    -0.317 A  
HETATM   15  C   UNL     1      -9.166  16.056  67.090  1.00  0.00    -0.207 A  
HETATM   16  C   UNL     1      -9.325  16.734  68.319  1.00  0.00    -0.230 A  
HETATM   17  C   UNL     1     -11.445  15.705  68.650  1.00  0.00    -0.381 A  
HETATM   18  C   UNL     1     -11.314  15.039  67.422  1.00  0.00    -0.332 A  
HETATM   19 CL   UNL     1     -12.640  13.964  67.054  1.00  0.00    -0.121 Cl 
ENDBRANCH  11  12
ENDBRANCH  10  11
BRANCH  10  20
HETATM   20  C   UNL     1     -10.173  11.698  63.962  1.00  0.00    -0.346 C  
BRANCH  20  21
HETATM   21  N   UNL     1      -9.248  10.648  63.556  1.00  0.00    -0.236 NA 
HETATM   22  C   UNL     1      -8.188  10.187  64.289  1.00  0.00    -0.165 A  
HETATM   23  N   UNL     1      -7.533   9.249  63.647  1.00  0.00    -0.103 NA 
HETATM   24  C   UNL     1      -9.213  10.019  62.344  1.00  0.00    -0.296 A  
HETATM   25  C   UNL     1      -8.165   9.132  62.435  1.00  0.00    -0.159 A  
ENDBRANCH  20  21
ENDBRANCH  10  20
ENDBRANCH   9  10
ENDBRANCH   8   9
ENDBRANCH   5   8
TORSDOF 7
ENDMDL
MODEL      250
REMARK 921   NORMALIZED FREE ENERGY PREDICTED BY IDOCK:   -4.63 KCAL/MOL
REMARK 922        TOTAL FREE ENERGY PREDICTED BY IDOCK:   -7.40 KCAL/MOL
REMARK 923 INTER-LIGAND FREE ENERGY PREDICTED BY IDOCK:   -6.42 KCAL/MOL
REMARK 924 INTRA-LIGAND FREE ENERGY PREDICTED BY IDOCK:   -0.98 KCAL/MOL
REMARK 927      BINDING AFFINITY PREDICTED BY RF-SCORE:    0.00 PKD
ROOT
HETATM    1 CL   UNL     1     -11.571  16.076  68.214  1.00  0.00    -0.298 Cl 
HETATM    2  C   UNL     1     -11.753  14.449  68.744  1.00  0.00    -0.337 A  
HETATM    3  C   UNL     1     -12.055  14.189  70.077  1.00  0.00    -0.409 A  
HETATM    4  C   UNL     1     -12.162  12.867  70.514  1.00  0.00    -0.395 A  
HETATM    5  C   UNL     1     -11.978  11.795  69.625  1.00  0.00    -0.378 A  
HETATM    6  C   UNL     1     -11.695  12.076  68.283  1.00  0.00    -0.396 A  
HETATM    7  C   UNL     1     -11.582  13.400  67.845  1.00  0.00    -0.374 A  
ENDROOT
BRANCH   5   8
HETATM    8  C   UNL     1     -12.004  10.368  70.130  1.00  0.00    -0.357 C  
BRANCH   8   9
HETATM    9  C   UNL     1     -10.634   9.687  70.097  1.00  0.00    -0.320 C  
BRANCH   9  10
HETATM   10  C   UNL     1     -10.659   8.168  70.371  1.00  0.00    -0.224 C  
BRANCH  10  11
HETATM   11  S   UNL     1     -10.345   7.230  68.817  1.00  0.00    -0.201 SA 
BRANCH  11  12
HETATM   12  C   UNL     1      -8.702   7.533  68.120  1.00  0.00    -0.122 A  
HETATM   13 CL   UNL     1      -7.047   6.108  69.900  1.00  0.00    -0.070 Cl 
HETATM   14  C   UNL     1      -6.320   8.182  66.662  1.00  0.00    -0.055 A  
HETATM   15  C   UNL     1      -7.432   7.050  68.509  1.00  0.00    -0.102 A  
HETATM   16  C   UNL     1      -6.269   7.357  67.768  1.00  0.00    -0.044 A  
HETATM   17  C   UNL     1      -7.532   8.728  66.289  1.00  0.00    -0.087 A  
HETATM   18  C   UNL     1      -8.701   8.419  67.002  1.00  0.00    -0.126 A  
HETATM   19 CL   UNL     1     -10.128   9.233  66.408  1.00  0.00    -0.349 Cl 
ENDBRANCH  11  12
ENDBRANCH  10  11
BRANCH  10  20
HETATM   20  C   UNL     1     -11.787   7.541  71.223  1.00  0.00    -0.294 C  
BRANCH  20  21
HETATM   21  N   UNL     1     -11.327   6.755  72.360  1.00  0.00    -0.264 NA 
HETATM   22  C   UNL     1     -10.647   7.238  73.445  1.00  0.00    -0.389 A  
HETATM   23  N   UNL     1     -10.357   6.280  74.293  1.00  0.00    -0.318 NA 
HETATM   24  C   UNL     1     -11.400   5.397  72.492  1.00  0.00    -0.225 A  
HETATM   25  C   UNL     1     -10.824   5.129  73.713  1.00  0.00    -0.287 A  
ENDBRANCH  20  21
ENDBRANCH  10  20
ENDBRANCH   9  10
ENDBRANCH   8   9
ENDBRANCH   5   8
TORSDOF 7
ENDMDL
MODEL      251
REMARK 921   NORMALIZED FREE ENERGY PREDICTED BY IDOCK:   -4.63 KCAL/MOL
REMARK 922        TOTAL FREE ENERGY PREDICTED BY IDOCK:   -7.40 KCAL/MOL
REMARK 923 INTER-LIGAND FREE ENERGY PREDICTED BY IDOCK:   -6.60 KCAL/MOL
REMARK 924 INTRA-LIGAND FREE ENERGY PREDICTED BY IDOCK:   -0.80 KCAL/MOL
REMARK 927      BINDING AFFINITY PREDICTED BY RF-SCORE:    0.00 PKD
ROOT
HETATM    1 CL   UNL     1      -8.966   1.706  67.397  1.00  0.00    -0.144 Cl 
HETATM    2  C   UNL     1      -9.462   3.352  67.469  1.00  0.00    -0.180 A  
HETATM    3  C   UNL     1      -9.353   4.053  68.666  1.00  0.00    -0.224 A  
HETATM    4  C   UNL     1      -9.794   5.376  68.734  1.00  0.00    -0.208 A  
HETATM    5  C   UNL     1     -10.339   6.014  67.607  1.00  0.00    -0.258 A  
HETATM    6  C   UNL     1     -10.422   5.300  66.405  1.00  0.00    -0.347 A  
HETATM    7  C   UNL     1      -9.986   3.973  66.338  1.00  0.00    -0.114 A  
ENDROOT
BRANCH   5   8
HETATM    8  C   UNL     1     -10.899   7.416  67.716  1.00  0.00    -0.186 C  
BRANCH   8   9
HETATM    9  C   UNL     1      -9.914   8.500  67.273  1.00  0.00    -0.289 C  
BRANCH   9  10
HETATM   10  C   UNL     1     -10.192   9.904  67.852  1.00  0.00    -0.193 C  
BRANCH  10  11
HETATM   11  S   UNL     1      -9.507  11.203  66.740  1.00  0.00    -0.187 SA 
BRANCH  11  12
HETATM   12  C   UNL     1     -10.178  12.852  67.069  1.00  0.00    -0.243 A  
HETATM   13 CL   UNL     1     -12.465  12.885  65.424  1.00  0.00    -0.541 Cl 
HETATM   14  C   UNL     1     -10.942  15.479  67.927  1.00  0.00    -0.316 A  
HETATM   15  C   UNL     1     -11.355  13.479  66.601  1.00  0.00    -0.322 A  
HETATM   16  C   UNL     1     -11.733  14.763  67.050  1.00  0.00    -0.330 A  
HETATM   17  C   UNL     1      -9.750  14.929  68.355  1.00  0.00    -0.209 A  
HETATM   18  C   UNL     1      -9.367  13.645  67.935  1.00  0.00    -0.206 A  
HETATM   19 CL   UNL     1      -7.814  13.133  68.548  1.00  0.00    -0.129 Cl 
ENDBRANCH  11  12
ENDBRANCH  10  11
BRANCH  10  20
HETATM   20  C   UNL     1      -9.931  10.205  69.345  1.00  0.00    -0.228 C  
BRANCH  20  21
HETATM   21  N   UNL     1     -11.113  10.145  70.195  1.00  0.00    -0.293 NA 
HETATM   22  C   UNL     1     -12.166  11.018  70.166  1.00  0.00    -0.344 A  
HETATM   23  N   UNL     1     -13.070  10.708  71.065  1.00  0.00    -0.341 NA 
HETATM   24  C   UNL     1     -11.327   9.277  71.228  1.00  0.00    -0.353 A  
HETATM   25  C   UNL     1     -12.560   9.622  71.730  1.00  0.00    -0.409 A  
ENDBRANCH  20  21
ENDBRANCH  10  20
ENDBRANCH   9  10
ENDBRANCH   8   9
ENDBRANCH   5   8
TORSDOF 7
ENDMDL
MODEL      252
REMARK 921   NORMALIZED FREE ENERGY PREDICTED BY IDOCK:   -4.60 KCAL/MOL
REMARK 922        TOTAL FREE ENERGY PREDICTED BY IDOCK:   -7.36 KCAL/MOL
REMARK 923 INTER-LIGAND FREE ENERGY PREDICTED BY IDOCK:   -6.72 KCAL/MOL
REMARK 924 INTRA-LIGAND FREE ENERGY PREDICTED BY IDOCK:   -0.65 KCAL/MOL
REMARK 927      BINDING AFFINITY PREDICTED BY RF-SCORE:    0.00 PKD
ROOT
HETATM    1 CL   UNL     1      -6.710   7.949  63.375  1.00  0.00    -0.073 Cl 
HETATM    2  C   UNL     1      -7.415   9.149  64.387  1.00  0.00    -0.101 A  
HETATM    3  C   UNL     1      -6.628   9.804  65.330  1.00  0.00    -0.091 A  
HETATM    4  C   UNL     1      -7.210  10.748  66.178  1.00  0.00    -0.126 A  
HETATM    5  C   UNL     1      -8.579  11.054  66.088  1.00  0.00    -0.175 A  
HETATM    6  C   UNL     1      -9.351  10.401  65.119  1.00  0.00    -0.271 A  
HETATM    7  C   UNL     1      -8.769   9.450  64.273  1.00  0.00    -0.224 A  
ENDROOT
BRANCH   5   8
HETATM    8  C   UNL     1      -9.217  12.009  67.073  1.00  0.00    -0.195 C  
BRANCH   8   9
HETATM    9  C   UNL     1      -9.289  13.449  66.562  1.00  0.00    -0.225 C  
BRANCH   9  10
HETATM   10  C   UNL     1     -10.409  14.305  67.193  1.00  0.00    -0.262 C  
BRANCH  10  11
HETATM   11  S   UNL     1     -10.196  14.396  69.020  1.00  0.00    -0.127 SA 
BRANCH  11  12
HETATM   12  C   UNL     1     -11.446  13.458  69.933  1.00  0.00    -0.111 A  
HETATM   13 CL   UNL     1     -10.936  10.824  69.070  1.00  0.00    -0.260 Cl 
HETATM   14  C   UNL     1     -13.493  12.352  71.609  1.00  0.00    -0.123 A  
HETATM   15  C   UNL     1     -11.693  12.067  69.994  1.00  0.00    -0.267 A  
HETATM   16  C   UNL     1     -12.688  11.533  70.842  1.00  0.00    -0.372 A  
HETATM   17  C   UNL     1     -13.327  13.721  71.527  1.00  0.00    -0.391 A  
HETATM   18  C   UNL     1     -12.330  14.269  70.704  1.00  0.00    -0.361 A  
HETATM   19 CL   UNL     1     -12.298  16.015  70.700  1.00  0.00    -0.284 Cl 
ENDBRANCH  11  12
ENDBRANCH  10  11
BRANCH  10  20
HETATM   20  C   UNL     1     -11.884  14.099  66.779  1.00  0.00    -0.425 C  
BRANCH  20  21
HETATM   21  N   UNL     1     -12.070  13.528  65.451  1.00  0.00    -0.389 NA 
HETATM   22  C   UNL     1     -12.096  14.227  64.275  1.00  0.00    -0.441 A  
HETATM   23  N   UNL     1     -12.298  13.432  63.251  1.00  0.00    -0.703 NA 
HETATM   24  C   UNL     1     -12.354  12.224  65.161  1.00  0.00    -0.205 A  
HETATM   25  C   UNL     1     -12.456  12.181  63.790  1.00  0.00    -0.514 A  
ENDBRANCH  20  21
ENDBRANCH  10  20
ENDBRANCH   9  10
ENDBRANCH   8   9
ENDBRANCH   5   8
TORSDOF 7
ENDMDL
MODEL      253
REMARK 921   NORMALIZED FREE ENERGY PREDICTED BY IDOCK:   -4.59 KCAL/MOL
REMARK 922        TOTAL FREE ENERGY PREDICTED BY IDOCK:   -7.35 KCAL/MOL
REMARK 923 INTER-LIGAND FREE ENERGY PREDICTED BY IDOCK:   -6.40 KCAL/MOL
REMARK 924 INTRA-LIGAND FREE ENERGY PREDICTED BY IDOCK:   -0.95 KCAL/MOL
REMARK 927      BINDING AFFINITY PREDICTED BY RF-SCORE:    0.00 PKD
ROOT
HETATM    1 CL   UNL     1      -5.126  14.954  71.992  1.00  0.00    -0.168 Cl 
HETATM    2  C   UNL     1      -5.996  14.331  70.645  1.00  0.00    -0.196 A  
HETATM    3  C   UNL     1      -5.858  12.991  70.296  1.00  0.00    -0.157 A  
HETATM    4  C   UNL     1      -6.533  12.496  69.179  1.00  0.00    -0.099 A  
HETATM    5  C   UNL     1      -7.356  13.330  68.404  1.00  0.00    -0.112 A  
HETATM    6  C   UNL     1      -7.499  14.671  68.781  1.00  0.00    -0.135 A  
HETATM    7  C   UNL     1      -6.819  15.169  69.898  1.00  0.00    -0.154 A  
ENDROOT
BRANCH   5   8
HETATM    8  C   UNL     1      -8.007  12.806  67.142  1.00  0.00    -0.112 C  
BRANCH   8   9
HETATM    9  C   UNL     1      -8.426  11.338  67.239  1.00  0.00    -0.144 C  
BRANCH   9  10
HETATM   10  C   UNL     1      -9.799  11.012  66.612  1.00  0.00    -0.200 C  
BRANCH  10  11
HETATM   11  S   UNL     1     -10.523   9.511  67.395  1.00  0.00    -0.266 SA 
BRANCH  11  12
HETATM   12  C   UNL     1     -11.250   9.833  69.021  1.00  0.00    -0.038 A  
HETATM   13 CL   UNL     1     -12.059  12.520  68.771  1.00  0.00    -0.245 Cl 
HETATM   14  C   UNL     1     -12.370   9.898  71.660  1.00  0.00    -0.496 A  
HETATM   15  C   UNL     1     -11.896  10.982  69.531  1.00  0.00    -0.333 A  
HETATM   16  C   UNL     1     -12.464  10.993  70.824  1.00  0.00    -0.491 A  
HETATM   17  C   UNL     1     -11.688   8.780  71.223  1.00  0.00    -0.356 A  
HETATM   18  C   UNL     1     -11.133   8.742  69.934  1.00  0.00    -0.123 A  
HETATM   19 CL   UNL     1     -10.277   7.263  69.574  1.00  0.00    -0.192 Cl 
ENDBRANCH  11  12
ENDBRANCH  10  11
BRANCH  10  20
HETATM   20  C   UNL     1      -9.986  11.028  65.077  1.00  0.00    -0.285 C  
BRANCH  20  21
HETATM   21  N   UNL     1     -11.011  11.945  64.598  1.00  0.00    -0.305 NA 
HETATM   22  C   UNL     1     -11.860  11.720  63.548  1.00  0.00    -0.378 A  
HETATM   23  N   UNL     1     -12.659  12.741  63.350  1.00  0.00    -0.714 NA 
HETATM   24  C   UNL     1     -11.233  13.218  65.040  1.00  0.00    -0.305 A  
HETATM   25  C   UNL     1     -12.281  13.680  64.277  1.00  0.00    -0.396 A  
ENDBRANCH  20  21
ENDBRANCH  10  20
ENDBRANCH   9  10
ENDBRANCH   8   9
ENDBRANCH   5   8
TORSDOF 7
ENDMDL
MODEL      254
REMARK 921   NORMALIZED FREE ENERGY PREDICTED BY IDOCK:   -4.59 KCAL/MOL
REMARK 922        TOTAL FREE ENERGY PREDICTED BY IDOCK:   -7.34 KCAL/MOL
REMARK 923 INTER-LIGAND FREE ENERGY PREDICTED BY IDOCK:   -6.05 KCAL/MOL
REMARK 924 INTRA-LIGAND FREE ENERGY PREDICTED BY IDOCK:   -1.29 KCAL/MOL
REMARK 927      BINDING AFFINITY PREDICTED BY RF-SCORE:    0.00 PKD
ROOT
HETATM    1 CL   UNL     1      -5.481  18.256  69.456  1.00  0.00    -0.204 Cl 
HETATM    2  C   UNL     1      -6.166  16.768  68.929  1.00  0.00    -0.162 A  
HETATM    3  C   UNL     1      -6.645  16.653  67.628  1.00  0.00    -0.171 A  
HETATM    4  C   UNL     1      -7.238  15.458  67.215  1.00  0.00    -0.229 A  
HETATM    5  C   UNL     1      -7.350  14.366  68.092  1.00  0.00    -0.130 A  
HETATM    6  C   UNL     1      -6.844  14.493  69.392  1.00  0.00    -0.149 A  
HETATM    7  C   UNL     1      -6.256  15.692  69.808  1.00  0.00    -0.166 A  
ENDROOT
BRANCH   5   8
HETATM    8  C   UNL     1      -8.078  13.110  67.662  1.00  0.00    -0.176 C  
BRANCH   8   9
HETATM    9  C   UNL     1      -9.184  13.369  66.638  1.00  0.00    -0.223 C  
BRANCH   9  10
HETATM   10  C   UNL     1     -10.615  13.375  67.218  1.00  0.00    -0.255 C  
BRANCH  10  11
HETATM   11  S   UNL     1     -11.372  11.702  67.075  1.00  0.00    -0.261 SA 
BRANCH  11  12
HETATM   12  C   UNL     1     -10.153  10.364  67.062  1.00  0.00    -0.215 A  
HETATM   13 CL   UNL     1      -9.512  10.138  69.796  1.00  0.00    -0.231 Cl 
HETATM   14  C   UNL     1      -8.347   8.183  66.612  1.00  0.00    -0.111 A  
HETATM   15  C   UNL     1      -9.476   9.722  68.124  1.00  0.00    -0.135 A  
HETATM   16  C   UNL     1      -8.608   8.633  67.892  1.00  0.00    -0.137 A  
HETATM   17  C   UNL     1      -8.936   8.828  65.543  1.00  0.00    -0.231 A  
HETATM   18  C   UNL     1      -9.818   9.899  65.755  1.00  0.00    -0.287 A  
HETATM   19 CL   UNL     1     -10.433  10.612  64.284  1.00  0.00    -0.348 Cl 
ENDBRANCH  11  12
ENDBRANCH  10  11
BRANCH  10  20
HETATM   20  C   UNL     1     -11.606  14.505  66.858  1.00  0.00    -0.385 C  
BRANCH  20  21
HETATM   21  N   UNL     1     -11.000  15.823  66.713  1.00  0.00    -0.251 NA 
HETATM   22  C   UNL     1     -10.586  16.389  65.538  1.00  0.00    -0.330 A  
HETATM   23  N   UNL     1     -10.067  17.577  65.736  1.00  0.00    -0.583 NA 
HETATM   24  C   UNL     1     -10.649  16.671  67.724  1.00  0.00    -0.342 A  
HETATM   25  C   UNL     1     -10.104  17.766  67.094  1.00  0.00    -0.338 A  
ENDBRANCH  20  21
ENDBRANCH  10  20
ENDBRANCH   9  10
ENDBRANCH   8   9
ENDBRANCH   5   8
TORSDOF 7
ENDMDL
MODEL      255
REMARK 921   NORMALIZED FREE ENERGY PREDICTED BY IDOCK:   -4.58 KCAL/MOL
REMARK 922        TOTAL FREE ENERGY PREDICTED BY IDOCK:   -7.34 KCAL/MOL
REMARK 923 INTER-LIGAND FREE ENERGY PREDICTED BY IDOCK:   -6.33 KCAL/MOL
REMARK 924 INTRA-LIGAND FREE ENERGY PREDICTED BY IDOCK:   -1.01 KCAL/MOL
REMARK 927      BINDING AFFINITY PREDICTED BY RF-SCORE:    0.00 PKD
ROOT
HETATM    1 CL   UNL     1      -9.762   8.506  69.955  1.00  0.00    -0.168 Cl 
HETATM    2  C   UNL     1      -9.736  10.095  69.298  1.00  0.00    -0.224 A  
HETATM    3  C   UNL     1      -8.527  10.656  68.898  1.00  0.00    -0.154 A  
HETATM    4  C   UNL     1      -8.502  11.961  68.402  1.00  0.00    -0.155 A  
HETATM    5  C   UNL     1      -9.683  12.715  68.294  1.00  0.00    -0.216 A  
HETATM    6  C   UNL     1     -10.894  12.128  68.681  1.00  0.00    -0.268 A  
HETATM    7  C   UNL     1     -10.918  10.822  69.183  1.00  0.00    -0.293 A  
ENDROOT
BRANCH   5   8
HETATM    8  C   UNL     1      -9.631  14.160  67.843  1.00  0.00    -0.223 C  
BRANCH   8   9
HETATM    9  C   UNL     1      -8.210  14.665  67.587  1.00  0.00    -0.182 C  
BRANCH   9  10
HETATM   10  C   UNL     1      -8.077  16.200  67.488  1.00  0.00    -0.145 C  
BRANCH  10  11
HETATM   11  S   UNL     1      -6.308  16.700  67.606  1.00  0.00    -0.168 SA 
BRANCH  11  12
HETATM   12  C   UNL     1      -6.081  18.484  67.807  1.00  0.00    -0.189 A  
HETATM   13 CL   UNL     1      -5.657  18.704  70.584  1.00  0.00    -0.214 Cl 
HETATM   14  C   UNL     1      -5.699  21.323  67.677  1.00  0.00    -0.414 A  
HETATM   15  C   UNL     1      -5.772  19.251  68.954  1.00  0.00    -0.209 A  
HETATM   16  C   UNL     1      -5.563  20.645  68.873  1.00  0.00    -0.374 A  
HETATM   17  C   UNL     1      -6.066  20.620  66.547  1.00  0.00    -0.264 A  
HETATM   18  C   UNL     1      -6.260  19.230  66.605  1.00  0.00    -0.177 A  
HETATM   19 CL   UNL     1      -6.757  18.521  65.088  1.00  0.00    -0.137 Cl 
ENDBRANCH  11  12
ENDBRANCH  10  11
BRANCH  10  20
HETATM   20  C   UNL     1      -9.008  17.125  68.305  1.00  0.00    -0.248 C  
BRANCH  20  21
HETATM   21  N   UNL     1      -9.584  18.231  67.550  1.00  0.00    -0.276 NA 
HETATM   22  C   UNL     1      -9.827  19.488  68.031  1.00  0.00    -0.398 A  
HETATM   23  N   UNL     1     -10.366  20.256  67.114  1.00  0.00    -0.355 NA 
HETATM   24  C   UNL     1     -10.073  18.177  66.275  1.00  0.00    -0.371 A  
HETATM   25  C   UNL     1     -10.520  19.451  66.014  1.00  0.00    -0.505 A  
ENDBRANCH  20  21
ENDBRANCH  10  20
ENDBRANCH   9  10
ENDBRANCH   8   9
ENDBRANCH   5   8
TORSDOF 7
ENDMDL
MODEL      256
REMARK 921   NORMALIZED FREE ENERGY PREDICTED BY IDOCK:   -4.58 KCAL/MOL
REMARK 922        TOTAL FREE ENERGY PREDICTED BY IDOCK:   -7.34 KCAL/MOL
REMARK 923 INTER-LIGAND FREE ENERGY PREDICTED BY IDOCK:   -6.20 KCAL/MOL
REMARK 924 INTRA-LIGAND FREE ENERGY PREDICTED BY IDOCK:   -1.14 KCAL/MOL
REMARK 927      BINDING AFFINITY PREDICTED BY RF-SCORE:    0.00 PKD
ROOT
HETATM    1 CL   UNL     1     -12.816  15.505  70.738  1.00  0.00    -0.522 Cl 
HETATM    2  C   UNL     1     -12.187  14.005  70.179  1.00  0.00    -0.359 A  
HETATM    3  C   UNL     1     -11.313  13.985  69.096  1.00  0.00    -0.323 A  
HETATM    4  C   UNL     1     -10.835  12.763  68.618  1.00  0.00    -0.284 A  
HETATM    5  C   UNL     1     -11.217  11.553  69.219  1.00  0.00    -0.336 A  
HETATM    6  C   UNL     1     -12.081  11.593  70.321  1.00  0.00    -0.443 A  
HETATM    7  C   UNL     1     -12.565  12.816  70.797  1.00  0.00    -0.308 A  
ENDROOT
BRANCH   5   8
HETATM    8  C   UNL     1     -10.767  10.231  68.634  1.00  0.00    -0.255 C  
BRANCH   8   9
HETATM    9  C   UNL     1     -10.899   9.059  69.609  1.00  0.00    -0.196 C  
BRANCH   9  10
HETATM   10  C   UNL     1      -9.792   8.982  70.683  1.00  0.00    -0.230 C  
BRANCH  10  11
HETATM   11  S   UNL     1      -8.494   7.776  70.181  1.00  0.00    -0.135 SA 
BRANCH  11  12
HETATM   12  C   UNL     1      -8.951   6.797  68.729  1.00  0.00    -0.130 A  
HETATM   13 CL   UNL     1     -10.088   4.506  69.911  1.00  0.00    -0.277 Cl 
HETATM   14  C   UNL     1      -9.583   5.618  66.193  1.00  0.00    -0.142 A  
HETATM   15  C   UNL     1      -9.620   5.556  68.626  1.00  0.00    -0.135 A  
HETATM   16  C   UNL     1      -9.947   4.998  67.371  1.00  0.00    -0.214 A  
HETATM   17  C   UNL     1      -8.869   6.798  66.250  1.00  0.00    -0.158 A  
HETATM   18  C   UNL     1      -8.552   7.379  67.489  1.00  0.00    -0.122 A  
HETATM   19 CL   UNL     1      -7.613   8.847  67.363  1.00  0.00    -0.089 Cl 
ENDBRANCH  11  12
ENDBRANCH  10  11
BRANCH  10  20
HETATM   20  C   UNL     1     -10.156   8.870  72.181  1.00  0.00    -0.217 C  
BRANCH  20  21
HETATM   21  N   UNL     1     -10.508   7.527  72.624  1.00  0.00    -0.244 NA 
HETATM   22  C   UNL     1     -11.592   6.804  72.206  1.00  0.00    -0.273 A  
HETATM   23  N   UNL     1     -11.645   5.635  72.800  1.00  0.00    -0.280 NA 
HETATM   24  C   UNL     1      -9.884   6.805  73.601  1.00  0.00    -0.243 A  
HETATM   25  C   UNL     1     -10.583   5.622  73.669  1.00  0.00    -0.280 A  
ENDBRANCH  20  21
ENDBRANCH  10  20
ENDBRANCH   9  10
ENDBRANCH   8   9
ENDBRANCH   5   8
TORSDOF 7
ENDMDL
MODEL      257
REMARK 921   NORMALIZED FREE ENERGY PREDICTED BY IDOCK:   -4.58 KCAL/MOL
REMARK 922        TOTAL FREE ENERGY PREDICTED BY IDOCK:   -7.33 KCAL/MOL
REMARK 923 INTER-LIGAND FREE ENERGY PREDICTED BY IDOCK:   -6.17 KCAL/MOL
REMARK 924 INTRA-LIGAND FREE ENERGY PREDICTED BY IDOCK:   -1.16 KCAL/MOL
REMARK 927      BINDING AFFINITY PREDICTED BY RF-SCORE:    0.00 PKD
ROOT
HETATM    1 CL   UNL     1     -10.488  18.837  67.873  1.00  0.00    -0.446 Cl 
HETATM    2  C   UNL     1     -10.452  17.184  67.394  1.00  0.00    -0.334 A  
HETATM    3  C   UNL     1     -11.167  16.240  68.125  1.00  0.00    -0.298 A  
HETATM    4  C   UNL     1     -11.105  14.894  67.760  1.00  0.00    -0.313 A  
HETATM    5  C   UNL     1     -10.336  14.479  66.660  1.00  0.00    -0.274 A  
HETATM    6  C   UNL     1      -9.640  15.445  65.923  1.00  0.00    -0.386 A  
HETATM    7  C   UNL     1      -9.697  16.794  66.292  1.00  0.00    -0.318 A  
ENDROOT
BRANCH   5   8
HETATM    8  C   UNL     1     -10.201  13.007  66.330  1.00  0.00    -0.283 C  
BRANCH   8   9
HETATM    9  C   UNL     1      -9.142  12.292  67.171  1.00  0.00    -0.193 C  
BRANCH   9  10
HETATM   10  C   UNL     1      -8.865  10.830  66.757  1.00  0.00    -0.142 C  
BRANCH  10  11
HETATM   11  S   UNL     1     -10.332   9.774  67.111  1.00  0.00    -0.246 SA 
BRANCH  11  12
HETATM   12  C   UNL     1     -10.711   9.645  68.876  1.00  0.00    -0.206 A  
HETATM   13 CL   UNL     1     -12.093  12.055  69.348  1.00  0.00    -0.299 Cl 
HETATM   14  C   UNL     1     -11.175   9.014  71.635  1.00  0.00    -0.431 A  
HETATM   15  C   UNL     1     -11.443  10.504  69.727  1.00  0.00    -0.294 A  
HETATM   16  C   UNL     1     -11.685  10.170  71.078  1.00  0.00    -0.470 A  
HETATM   17  C   UNL     1     -10.397   8.182  70.854  1.00  0.00    -0.218 A  
HETATM   18  C   UNL     1     -10.162   8.487  69.504  1.00  0.00    -0.206 A  
HETATM   19 CL   UNL     1      -9.127   7.340  68.689  1.00  0.00    -0.134 Cl 
ENDBRANCH  11  12
ENDBRANCH  10  11
BRANCH  10  20
HETATM   20  C   UNL     1      -7.535  10.143  67.140  1.00  0.00    -0.091 C  
BRANCH  20  21
HETATM   21  N   UNL     1      -6.838  10.749  68.267  1.00  0.00    -0.066 NA 
HETATM   22  C   UNL     1      -7.230  10.691  69.576  1.00  0.00    -0.140 A  
HETATM   23  N   UNL     1      -6.402  11.349  70.353  1.00  0.00    -0.273 NA 
HETATM   24  C   UNL     1      -5.741  11.561  68.202  1.00  0.00    -0.046 A  
HETATM   25  C   UNL     1      -5.468  11.892  69.509  1.00  0.00    -0.067 A  
ENDBRANCH  20  21
ENDBRANCH  10  20
ENDBRANCH   9  10
ENDBRANCH   8   9
ENDBRANCH   5   8
TORSDOF 7
ENDMDL
MODEL      258
REMARK 921   NORMALIZED FREE ENERGY PREDICTED BY IDOCK:   -4.57 KCAL/MOL
REMARK 922        TOTAL FREE ENERGY PREDICTED BY IDOCK:   -7.32 KCAL/MOL
REMARK 923 INTER-LIGAND FREE ENERGY PREDICTED BY IDOCK:   -6.28 KCAL/MOL
REMARK 924 INTRA-LIGAND FREE ENERGY PREDICTED BY IDOCK:   -1.04 KCAL/MOL
REMARK 927      BINDING AFFINITY PREDICTED BY RF-SCORE:    0.00 PKD
ROOT
HETATM    1 CL   UNL     1     -11.964  15.215  64.232  1.00  0.00    -0.375 Cl 
HETATM    2  C   UNL     1     -11.405  13.717  64.869  1.00  0.00    -0.347 A  
HETATM    3  C   UNL     1     -10.864  13.672  66.150  1.00  0.00    -0.279 A  
HETATM    4  C   UNL     1     -10.374  12.464  66.650  1.00  0.00    -0.245 A  
HETATM    5  C   UNL     1     -10.426  11.290  65.881  1.00  0.00    -0.314 A  
HETATM    6  C   UNL     1     -10.993  11.349  64.602  1.00  0.00    -0.324 A  
HETATM    7  C   UNL     1     -11.479  12.560  64.098  1.00  0.00    -0.449 A  
ENDROOT
BRANCH   5   8
HETATM    8  C   UNL     1      -9.808  10.008  66.397  1.00  0.00    -0.283 C  
BRANCH   8   9
HETATM    9  C   UNL     1     -10.689   9.272  67.408  1.00  0.00    -0.263 C  
BRANCH   9  10
HETATM   10  C   UNL     1     -10.247   9.419  68.880  1.00  0.00    -0.200 C  
BRANCH  10  11
HETATM   11  S   UNL     1      -8.677   8.500  69.173  1.00  0.00    -0.134 SA 
BRANCH  11  12
HETATM   12  C   UNL     1      -8.702   6.814  68.516  1.00  0.00    -0.124 A  
HETATM   13 CL   UNL     1     -10.674   5.598  70.120  1.00  0.00    -0.382 Cl 
HETATM   14  C   UNL     1      -8.488   4.306  67.143  1.00  0.00    -0.100 A  
HETATM   15  C   UNL     1      -9.517   5.707  68.847  1.00  0.00    -0.126 A  
HETATM   16  C   UNL     1      -9.419   4.485  68.147  1.00  0.00    -0.201 A  
HETATM   17  C   UNL     1      -7.627   5.341  66.835  1.00  0.00    -0.088 A  
HETATM   18  C   UNL     1      -7.723   6.570  67.507  1.00  0.00    -0.106 A  
HETATM   19 CL   UNL     1      -6.529   7.744  67.011  1.00  0.00    -0.054 Cl 
ENDBRANCH  11  12
ENDBRANCH  10  11
BRANCH  10  20
HETATM   20  C   UNL     1     -11.264   9.234  70.029  1.00  0.00    -0.168 C  
BRANCH  20  21
HETATM   21  N   UNL     1     -11.884  10.466  70.498  1.00  0.00    -0.310 NA 
HETATM   22  C   UNL     1     -12.704  10.585  71.587  1.00  0.00    -0.445 A  
HETATM   23  N   UNL     1     -13.117  11.821  71.742  1.00  0.00    -0.445 NA 
HETATM   24  C   UNL     1     -11.842  11.683  69.880  1.00  0.00    -0.358 A  
HETATM   25  C   UNL     1     -12.584  12.516  70.686  1.00  0.00    -0.155 A  
ENDBRANCH  20  21
ENDBRANCH  10  20
ENDBRANCH   9  10
ENDBRANCH   8   9
ENDBRANCH   5   8
TORSDOF 7
ENDMDL
MODEL      259
REMARK 921   NORMALIZED FREE ENERGY PREDICTED BY IDOCK:   -4.57 KCAL/MOL
REMARK 922        TOTAL FREE ENERGY PREDICTED BY IDOCK:   -7.32 KCAL/MOL
REMARK 923 INTER-LIGAND FREE ENERGY PREDICTED BY IDOCK:   -6.15 KCAL/MOL
REMARK 924 INTRA-LIGAND FREE ENERGY PREDICTED BY IDOCK:   -1.17 KCAL/MOL
REMARK 927      BINDING AFFINITY PREDICTED BY RF-SCORE:    0.00 PKD
ROOT
HETATM    1 CL   UNL     1      -5.159  14.431  72.317  1.00  0.00    -0.189 Cl 
HETATM    2  C   UNL     1      -5.868  13.780  70.891  1.00  0.00    -0.187 A  
HETATM    3  C   UNL     1      -6.550  14.620  70.015  1.00  0.00    -0.161 A  
HETATM    4  C   UNL     1      -7.159  14.084  68.879  1.00  0.00    -0.111 A  
HETATM    5  C   UNL     1      -7.088  12.708  68.603  1.00  0.00    -0.096 A  
HETATM    6  C   UNL     1      -6.380  11.881  69.483  1.00  0.00    -0.122 A  
HETATM    7  C   UNL     1      -5.773  12.417  70.625  1.00  0.00    -0.138 A  
ENDROOT
BRANCH   5   8
HETATM    8  C   UNL     1      -7.831  12.125  67.420  1.00  0.00    -0.168 C  
BRANCH   8   9
HETATM    9  C   UNL     1      -9.174  12.805  67.151  1.00  0.00    -0.219 C  
BRANCH   9  10
HETATM   10  C   UNL     1     -10.411  12.000  67.606  1.00  0.00    -0.198 C  
BRANCH  10  11
HETATM   11  S   UNL     1     -11.871  13.110  67.779  1.00  0.00    -0.320 SA 
BRANCH  11  12
HETATM   12  C   UNL     1     -11.918  13.987  69.361  1.00  0.00    -0.343 A  
HETATM   13 CL   UNL     1     -12.976  12.022  71.082  1.00  0.00    -0.327 Cl 
HETATM   14  C   UNL     1     -11.747  15.693  71.660  1.00  0.00    -0.521 A  
HETATM   15  C   UNL     1     -12.293  13.545  70.651  1.00  0.00    -0.358 A  
HETATM   16  C   UNL     1     -12.181  14.387  71.779  1.00  0.00    -0.357 A  
HETATM   17  C   UNL     1     -11.436  16.183  70.408  1.00  0.00    -0.344 A  
HETATM   18  C   UNL     1     -11.522  15.355  69.277  1.00  0.00    -0.333 A  
HETATM   19 CL   UNL     1     -11.126  16.160  67.778  1.00  0.00    -0.297 Cl 
ENDBRANCH  11  12
ENDBRANCH  10  11
BRANCH  10  20
HETATM   20  C   UNL     1     -10.303  10.979  68.762  1.00  0.00    -0.199 C  
BRANCH  20  21
HETATM   21  N   UNL     1     -10.314   9.583  68.345  1.00  0.00    -0.198 NA 
HETATM   22  C   UNL     1     -10.238   9.132  67.055  1.00  0.00    -0.263 A  
HETATM   23  N   UNL     1     -10.288   7.822  67.003  1.00  0.00    -0.310 NA 
HETATM   24  C   UNL     1     -10.504   8.497  69.150  1.00  0.00    -0.205 A  
HETATM   25  C   UNL     1     -10.450   7.414  68.303  1.00  0.00    -0.189 A  
ENDBRANCH  20  21
ENDBRANCH  10  20
ENDBRANCH   9  10
ENDBRANCH   8   9
ENDBRANCH   5   8
TORSDOF 7
ENDMDL
MODEL      260
REMARK 921   NORMALIZED FREE ENERGY PREDICTED BY IDOCK:   -4.55 KCAL/MOL
REMARK 922        TOTAL FREE ENERGY PREDICTED BY IDOCK:   -7.30 KCAL/MOL
REMARK 923 INTER-LIGAND FREE ENERGY PREDICTED BY IDOCK:   -6.27 KCAL/MOL
REMARK 924 INTRA-LIGAND FREE ENERGY PREDICTED BY IDOCK:   -1.03 KCAL/MOL
REMARK 927      BINDING AFFINITY PREDICTED BY RF-SCORE:    0.00 PKD
ROOT
HETATM    1 CL   UNL     1     -11.546  14.965  67.341  1.00  0.00    -0.365 Cl 
HETATM    2  C   UNL     1     -11.053  13.354  66.992  1.00  0.00    -0.292 A  
HETATM    3  C   UNL     1     -10.126  13.121  65.980  1.00  0.00    -0.286 A  
HETATM    4  C   UNL     1      -9.758  11.810  65.671  1.00  0.00    -0.256 A  
HETATM    5  C   UNL     1     -10.303  10.722  66.373  1.00  0.00    -0.306 A  
HETATM    6  C   UNL     1     -11.218  10.976  67.402  1.00  0.00    -0.355 A  
HETATM    7  C   UNL     1     -11.592  12.289  67.709  1.00  0.00    -0.416 A  
ENDROOT
BRANCH   5   8
HETATM    8  C   UNL     1      -9.968   9.302  65.967  1.00  0.00    -0.325 C  
BRANCH   8   9
HETATM    9  C   UNL     1     -10.427   8.256  66.983  1.00  0.00    -0.384 C  
BRANCH   9  10
HETATM   10  C   UNL     1      -9.419   7.114  67.238  1.00  0.00    -0.140 C  
BRANCH  10  11
HETATM   11  S   UNL     1      -8.607   7.330  68.877  1.00  0.00    -0.128 SA 
BRANCH  11  12
HETATM   12  C   UNL     1      -9.706   6.981  70.272  1.00  0.00    -0.175 A  
HETATM   13 CL   UNL     1      -9.905   4.172  70.162  1.00  0.00    -0.279 Cl 
HETATM   14  C   UNL     1     -11.385   6.858  72.594  1.00  0.00    -0.272 A  
HETATM   15  C   UNL     1     -10.162   5.752  70.802  1.00  0.00    -0.219 A  
HETATM   16  C   UNL     1     -10.968   5.704  71.960  1.00  0.00    -0.302 A  
HETATM   17  C   UNL     1     -11.017   8.081  72.067  1.00  0.00    -0.342 A  
HETATM   18  C   UNL     1     -10.199   8.148  70.928  1.00  0.00    -0.189 A  
HETATM   19 CL   UNL     1      -9.872   9.776  70.387  1.00  0.00    -0.310 Cl 
ENDBRANCH  11  12
ENDBRANCH  10  11
BRANCH  10  20
HETATM   20  C   UNL     1      -8.424   6.682  66.137  1.00  0.00    -0.135 C  
BRANCH  20  21
HETATM   21  N   UNL     1      -8.856   5.543  65.338  1.00  0.00    -0.150 NA 
HETATM   22  C   UNL     1      -9.785   4.609  65.711  1.00  0.00    -0.197 A  
HETATM   23  N   UNL     1      -9.945   3.697  64.782  1.00  0.00    -0.178 NA 
HETATM   24  C   UNL     1      -8.340   5.152  64.135  1.00  0.00    -0.137 A  
HETATM   25  C   UNL     1      -9.054   4.026  63.793  1.00  0.00    -0.132 A  
ENDBRANCH  20  21
ENDBRANCH  10  20
ENDBRANCH   9  10
ENDBRANCH   8   9
ENDBRANCH   5   8
TORSDOF 7
ENDMDL
MODEL      261
REMARK 921   NORMALIZED FREE ENERGY PREDICTED BY IDOCK:   -4.55 KCAL/MOL
REMARK 922        TOTAL FREE ENERGY PREDICTED BY IDOCK:   -7.29 KCAL/MOL
REMARK 923 INTER-LIGAND FREE ENERGY PREDICTED BY IDOCK:   -6.40 KCAL/MOL
REMARK 924 INTRA-LIGAND FREE ENERGY PREDICTED BY IDOCK:   -0.89 KCAL/MOL
REMARK 927      BINDING AFFINITY PREDICTED BY RF-SCORE:    0.00 PKD
ROOT
HETATM    1 CL   UNL     1      -8.270   5.187  71.576  1.00  0.00    -0.114 Cl 
HETATM    2  C   UNL     1      -9.539   6.325  71.344  1.00  0.00    -0.155 A  
HETATM    3  C   UNL     1     -10.509   6.087  70.374  1.00  0.00    -0.307 A  
HETATM    4  C   UNL     1     -11.515   7.030  70.159  1.00  0.00    -0.302 A  
HETATM    5  C   UNL     1     -11.568   8.214  70.914  1.00  0.00    -0.283 A  
HETATM    6  C   UNL     1     -10.596   8.428  71.899  1.00  0.00    -0.370 A  
HETATM    7  C   UNL     1      -9.584   7.485  72.111  1.00  0.00    -0.190 A  
ENDROOT
BRANCH   5   8
HETATM    8  C   UNL     1     -12.607   9.272  70.608  1.00  0.00     0.061 C  
BRANCH   8   9
HETATM    9  C   UNL     1     -12.246  10.150  69.409  1.00  0.00     0.241 C  
BRANCH   9  10
HETATM   10  C   UNL     1     -12.075  11.650  69.732  1.00  0.00    -0.289 C  
BRANCH  10  11
HETATM   11  S   UNL     1     -10.698  12.368  68.742  1.00  0.00    -0.173 SA 
BRANCH  11  12
HETATM   12  C   UNL     1     -10.655  11.765  67.035  1.00  0.00    -0.232 A  
HETATM   13 CL   UNL     1     -12.533  13.449  65.780  1.00  0.00    -0.503 Cl 
HETATM   14  C   UNL     1     -10.224  10.578  64.461  1.00  0.00    -0.355 A  
HETATM   15  C   UNL     1     -11.325  12.224  65.878  1.00  0.00    -0.360 A  
HETATM   16  C   UNL     1     -11.086  11.647  64.612  1.00  0.00    -0.342 A  
HETATM   17  C   UNL     1      -9.601  10.057  65.578  1.00  0.00    -0.328 A  
HETATM   18  C   UNL     1      -9.812  10.630  66.843  1.00  0.00    -0.188 A  
HETATM   19 CL   UNL     1      -8.972   9.814  68.139  1.00  0.00    -0.119 Cl 
ENDBRANCH  11  12
ENDBRANCH  10  11
BRANCH  10  20
HETATM   20  C   UNL     1     -12.070  12.143  71.197  1.00  0.00     0.190 C  
BRANCH  20  21
HETATM   21  N   UNL     1     -12.699  13.441  71.405  1.00  0.00    -0.347 NA 
HETATM   22  C   UNL     1     -13.686  13.716  72.312  1.00  0.00    -0.589 A  
HETATM   23  N   UNL     1     -14.057  14.973  72.249  1.00  0.00    -0.493 NA 
HETATM   24  C   UNL     1     -12.490  14.572  70.669  1.00  0.00    -0.343 A  
HETATM   25  C   UNL     1     -13.317  15.518  71.231  1.00  0.00    -0.511 A  
ENDBRANCH  20  21
ENDBRANCH  10  20
ENDBRANCH   9  10
ENDBRANCH   8   9
ENDBRANCH   5   8
TORSDOF 7
ENDMDL
MODEL      262
REMARK 921   NORMALIZED FREE ENERGY PREDICTED BY IDOCK:   -4.54 KCAL/MOL
REMARK 922        TOTAL FREE ENERGY PREDICTED BY IDOCK:   -7.28 KCAL/MOL
REMARK 923 INTER-LIGAND FREE ENERGY PREDICTED BY IDOCK:   -5.94 KCAL/MOL
REMARK 924 INTRA-LIGAND FREE ENERGY PREDICTED BY IDOCK:   -1.34 KCAL/MOL
REMARK 927      BINDING AFFINITY PREDICTED BY RF-SCORE:    0.00 PKD
ROOT
HETATM    1 CL   UNL     1     -11.104  12.781  63.771  1.00  0.00    -0.473 Cl 
HETATM    2  C   UNL     1     -10.822  11.675  65.059  1.00  0.00    -0.288 A  
HETATM    3  C   UNL     1     -10.113  10.503  64.818  1.00  0.00    -0.406 A  
HETATM    4  C   UNL     1      -9.920   9.587  65.854  1.00  0.00    -0.342 A  
HETATM    5  C   UNL     1     -10.426   9.836  67.141  1.00  0.00    -0.316 A  
HETATM    6  C   UNL     1     -11.119  11.031  67.371  1.00  0.00    -0.370 A  
HETATM    7  C   UNL     1     -11.318  11.946  66.332  1.00  0.00    -0.400 A  
ENDROOT
BRANCH   5   8
HETATM    8  C   UNL     1     -10.292   8.795  68.232  1.00  0.00    -0.252 C  
BRANCH   8   9
HETATM    9  C   UNL     1     -10.766   7.405  67.805  1.00  0.00    -0.249 C  
BRANCH   9  10
HETATM   10  C   UNL     1      -9.741   6.273  68.032  1.00  0.00    -0.122 C  
BRANCH  10  11
HETATM   11  S   UNL     1     -10.126   5.360  69.585  1.00  0.00    -0.272 SA 
BRANCH  11  12
HETATM   12  C   UNL     1      -9.697   6.282  71.082  1.00  0.00    -0.175 A  
HETATM   13 CL   UNL     1      -6.997   5.565  71.450  1.00  0.00    -0.064 Cl 
HETATM   14  C   UNL     1      -9.412   7.953  73.394  1.00  0.00    -0.341 A  
HETATM   15  C   UNL     1      -8.468   6.405  71.769  1.00  0.00    -0.124 A  
HETATM   16  C   UNL     1      -8.334   7.250  72.893  1.00  0.00    -0.132 A  
HETATM   17  C   UNL     1     -10.645   7.808  72.791  1.00  0.00    -0.401 A  
HETATM   18  C   UNL     1     -10.793   6.988  71.661  1.00  0.00    -0.223 A  
HETATM   19 CL   UNL     1     -12.431   6.898  71.061  1.00  0.00    -0.413 Cl 
ENDBRANCH  11  12
ENDBRANCH  10  11
BRANCH  10  20
HETATM   20  C   UNL     1      -8.228   6.536  67.860  1.00  0.00    -0.116 C  
BRANCH  20  21
HETATM   21  N   UNL     1      -7.809   6.813  66.492  1.00  0.00    -0.102 NA 
HETATM   22  C   UNL     1      -8.290   6.201  65.367  1.00  0.00    -0.150 A  
HETATM   23  N   UNL     1      -7.703   6.656  64.286  1.00  0.00    -0.105 NA 
HETATM   24  C   UNL     1      -6.800   7.649  66.105  1.00  0.00    -0.061 A  
HETATM   25  C   UNL     1      -6.775   7.562  64.732  1.00  0.00    -0.047 A  
ENDBRANCH  20  21
ENDBRANCH  10  20
ENDBRANCH   9  10
ENDBRANCH   8   9
ENDBRANCH   5   8
TORSDOF 7
ENDMDL
MODEL      263
REMARK 921   NORMALIZED FREE ENERGY PREDICTED BY IDOCK:   -4.54 KCAL/MOL
REMARK 922        TOTAL FREE ENERGY PREDICTED BY IDOCK:   -7.28 KCAL/MOL
REMARK 923 INTER-LIGAND FREE ENERGY PREDICTED BY IDOCK:   -6.73 KCAL/MOL
REMARK 924 INTRA-LIGAND FREE ENERGY PREDICTED BY IDOCK:   -0.55 KCAL/MOL
REMARK 927      BINDING AFFINITY PREDICTED BY RF-SCORE:    0.00 PKD
ROOT
HETATM    1 CL   UNL     1      -7.393  20.909  67.300  1.00  0.00    -0.409 Cl 
HETATM    2  C   UNL     1      -7.284  19.195  67.411  1.00  0.00    -0.209 A  
HETATM    3  C   UNL     1      -8.191  18.497  68.201  1.00  0.00    -0.315 A  
HETATM    4  C   UNL     1      -8.076  17.110  68.322  1.00  0.00    -0.239 A  
HETATM    5  C   UNL     1      -7.062  16.408  67.650  1.00  0.00    -0.157 A  
HETATM    6  C   UNL     1      -6.170  17.125  66.842  1.00  0.00    -0.231 A  
HETATM    7  C   UNL     1      -6.281  18.515  66.725  1.00  0.00    -0.192 A  
ENDROOT
BRANCH   5   8
HETATM    8  C   UNL     1      -6.890  14.919  67.863  1.00  0.00    -0.171 C  
BRANCH   8   9
HETATM    9  C   UNL     1      -8.021  14.288  68.677  1.00  0.00    -0.139 C  
BRANCH   9  10
HETATM   10  C   UNL     1      -9.036  13.469  67.850  1.00  0.00    -0.200 C  
BRANCH  10  11
HETATM   11  S   UNL     1      -9.314  14.259  66.210  1.00  0.00    -0.149 SA 
BRANCH  11  12
HETATM   12  C   UNL     1     -10.374  13.281  65.116  1.00  0.00    -0.323 A  
HETATM   13 CL   UNL     1      -9.216  10.721  65.327  1.00  0.00    -0.219 Cl 
HETATM   14  C   UNL     1     -12.321  12.092  63.379  1.00  0.00    -0.648 A  
HETATM   15  C   UNL     1     -10.368  11.899  64.821  1.00  0.00    -0.281 A  
HETATM   16  C   UNL     1     -11.347  11.321  63.983  1.00  0.00    -0.136 A  
HETATM   17  C   UNL     1     -12.319  13.457  63.589  1.00  0.00    -0.422 A  
HETATM   18  C   UNL     1     -11.366  14.047  64.434  1.00  0.00    -0.319 A  
HETATM   19 CL   UNL     1     -11.497  15.785  64.546  1.00  0.00    -0.370 Cl 
ENDBRANCH  11  12
ENDBRANCH  10  11
BRANCH  10  20
HETATM   20  C   UNL     1     -10.347  12.962  68.493  1.00  0.00    -0.229 C  
BRANCH  20  21
HETATM   21  N   UNL     1     -11.191  14.005  69.060  1.00  0.00    -0.265 NA 
HETATM   22  C   UNL     1     -11.517  15.188  68.455  1.00  0.00    -0.332 A  
HETATM   23  N   UNL     1     -12.281  15.926  69.226  1.00  0.00    -0.172 NA 
HETATM   24  C   UNL     1     -11.714  14.031  70.321  1.00  0.00    -0.238 A  
HETATM   25  C   UNL     1     -12.414  15.214  70.390  1.00  0.00    -0.368 A  
ENDBRANCH  20  21
ENDBRANCH  10  20
ENDBRANCH   9  10
ENDBRANCH   8   9
ENDBRANCH   5   8
TORSDOF 7
ENDMDL
MODEL      264
REMARK 921   NORMALIZED FREE ENERGY PREDICTED BY IDOCK:   -4.54 KCAL/MOL
REMARK 922        TOTAL FREE ENERGY PREDICTED BY IDOCK:   -7.28 KCAL/MOL
REMARK 923 INTER-LIGAND FREE ENERGY PREDICTED BY IDOCK:   -5.11 KCAL/MOL
REMARK 924 INTRA-LIGAND FREE ENERGY PREDICTED BY IDOCK:   -2.16 KCAL/MOL
REMARK 927      BINDING AFFINITY PREDICTED BY RF-SCORE:    0.00 PKD
ROOT
HETATM    1 CL   UNL     1      -6.219   9.137  62.664  1.00  0.00    -0.094 Cl 
HETATM    2  C   UNL     1      -7.265   9.562  63.962  1.00  0.00    -0.111 A  
HETATM    3  C   UNL     1      -8.636   9.358  63.838  1.00  0.00    -0.225 A  
HETATM    4  C   UNL     1      -9.487   9.741  64.876  1.00  0.00    -0.331 A  
HETATM    5  C   UNL     1      -8.979  10.322  66.050  1.00  0.00    -0.173 A  
HETATM    6  C   UNL     1      -7.595  10.501  66.166  1.00  0.00    -0.135 A  
HETATM    7  C   UNL     1      -6.742  10.123  65.124  1.00  0.00    -0.131 A  
ENDROOT
BRANCH   5   8
HETATM    8  C   UNL     1      -9.918  10.819  67.129  1.00  0.00    -0.230 C  
BRANCH   8   9
HETATM    9  C   UNL     1      -9.251  10.958  68.498  1.00  0.00    -0.181 C  
BRANCH   9  10
HETATM   10  C   UNL     1     -10.085  10.425  69.683  1.00  0.00    -0.190 C  
BRANCH  10  11
HETATM   11  S   UNL     1      -9.562   8.714  70.119  1.00  0.00    -0.177 SA 
BRANCH  11  12
HETATM   12  C   UNL     1      -8.734   7.852  68.760  1.00  0.00    -0.128 A  
HETATM   13 CL   UNL     1     -10.921   6.937  67.237  1.00  0.00    -0.418 Cl 
HETATM   14  C   UNL     1      -7.045   6.675  66.763  1.00  0.00    -0.069 A  
HETATM   15  C   UNL     1      -9.262   7.213  67.615  1.00  0.00    -0.125 A  
HETATM   16  C   UNL     1      -8.420   6.659  66.626  1.00  0.00    -0.120 A  
HETATM   17  C   UNL     1      -6.492   7.230  67.901  1.00  0.00    -0.049 A  
HETATM   18  C   UNL     1      -7.314   7.803  68.885  1.00  0.00    -0.086 A  
HETATM   19 CL   UNL     1      -6.439   8.419  70.266  1.00  0.00    -0.035 Cl 
ENDBRANCH  11  12
ENDBRANCH  10  11
BRANCH  10  20
HETATM   20  C   UNL     1     -11.621  10.598  69.703  1.00  0.00    -0.296 C  
BRANCH  20  21
HETATM   21  N   UNL     1     -12.091  11.796  70.386  1.00  0.00    -0.365 NA 
HETATM   22  C   UNL     1     -12.937  11.825  71.462  1.00  0.00    -0.341 A  
HETATM   23  N   UNL     1     -13.187  13.056  71.841  1.00  0.00    -0.445 NA 
HETATM   24  C   UNL     1     -11.857  13.089  70.013  1.00  0.00    -0.285 A  
HETATM   25  C   UNL     1     -12.516  13.853  70.948  1.00  0.00    -0.375 A  
ENDBRANCH  20  21
ENDBRANCH  10  20
ENDBRANCH   9  10
ENDBRANCH   8   9
ENDBRANCH   5   8
TORSDOF 7
ENDMDL
MODEL      265
REMARK 921   NORMALIZED FREE ENERGY PREDICTED BY IDOCK:   -4.51 KCAL/MOL
REMARK 922        TOTAL FREE ENERGY PREDICTED BY IDOCK:   -7.24 KCAL/MOL
REMARK 923 INTER-LIGAND FREE ENERGY PREDICTED BY IDOCK:   -6.07 KCAL/MOL
REMARK 924 INTRA-LIGAND FREE ENERGY PREDICTED BY IDOCK:   -1.17 KCAL/MOL
REMARK 927      BINDING AFFINITY PREDICTED BY RF-SCORE:    0.00 PKD
ROOT
HETATM    1 CL   UNL     1      -7.961   4.827  63.714  1.00  0.00    -0.089 Cl 
HETATM    2  C   UNL     1      -8.605   4.919  65.307  1.00  0.00    -0.142 A  
HETATM    3  C   UNL     1      -9.981   4.839  65.499  1.00  0.00    -0.157 A  
HETATM    4  C   UNL     1     -10.505   4.954  66.788  1.00  0.00    -0.237 A  
HETATM    5  C   UNL     1      -9.662   5.142  67.897  1.00  0.00    -0.184 A  
HETATM    6  C   UNL     1      -8.278   5.199  67.687  1.00  0.00    -0.099 A  
HETATM    7  C   UNL     1      -7.753   5.089  66.395  1.00  0.00    -0.092 A  
ENDROOT
BRANCH   5   8
HETATM    8  C   UNL     1     -10.246   5.359  69.276  1.00  0.00    -0.315 C  
BRANCH   8   9
HETATM    9  C   UNL     1      -9.654   6.567  70.003  1.00  0.00    -0.169 C  
BRANCH   9  10
HETATM   10  C   UNL     1     -10.672   7.672  70.360  1.00  0.00    -0.236 C  
BRANCH  10  11
HETATM   11  S   UNL     1      -9.857   9.323  70.354  1.00  0.00    -0.259 SA 
BRANCH  11  12
HETATM   12  C   UNL     1     -10.560  10.463  69.136  1.00  0.00    -0.228 A  
HETATM   13 CL   UNL     1     -12.242  12.057  70.739  1.00  0.00    -0.450 Cl 
HETATM   14  C   UNL     1     -11.363  12.103  66.925  1.00  0.00    -0.402 A  
HETATM   15  C   UNL     1     -11.440  11.557  69.297  1.00  0.00    -0.305 A  
HETATM   16  C   UNL     1     -11.809  12.372  68.205  1.00  0.00    -0.372 A  
HETATM   17  C   UNL     1     -10.556  11.002  66.716  1.00  0.00    -0.317 A  
HETATM   18  C   UNL     1     -10.163  10.192  67.793  1.00  0.00    -0.191 A  
HETATM   19 CL   UNL     1      -9.176   8.828  67.329  1.00  0.00    -0.156 Cl 
ENDBRANCH  11  12
ENDBRANCH  10  11
BRANCH  10  20
HETATM   20  C   UNL     1     -11.640   7.494  71.552  1.00  0.00    -0.272 C  
BRANCH  20  21
HETATM   21  N   UNL     1     -11.180   6.564  72.576  1.00  0.00    -0.257 NA 
HETATM   22  C   UNL     1     -11.584   5.264  72.717  1.00  0.00    -0.197 A  
HETATM   23  N   UNL     1     -11.003   4.691  73.744  1.00  0.00    -0.301 NA 
HETATM   24  C   UNL     1     -10.356   6.854  73.626  1.00  0.00    -0.365 A  
HETATM   25  C   UNL     1     -10.232   5.670  74.316  1.00  0.00    -0.278 A  
ENDBRANCH  20  21
ENDBRANCH  10  20
ENDBRANCH   9  10
ENDBRANCH   8   9
ENDBRANCH   5   8
TORSDOF 7
ENDMDL
MODEL      266
REMARK 921   NORMALIZED FREE ENERGY PREDICTED BY IDOCK:   -4.51 KCAL/MOL
REMARK 922        TOTAL FREE ENERGY PREDICTED BY IDOCK:   -7.23 KCAL/MOL
REMARK 923 INTER-LIGAND FREE ENERGY PREDICTED BY IDOCK:   -6.36 KCAL/MOL
REMARK 924 INTRA-LIGAND FREE ENERGY PREDICTED BY IDOCK:   -0.87 KCAL/MOL
REMARK 927      BINDING AFFINITY PREDICTED BY RF-SCORE:    0.00 PKD
ROOT
HETATM    1 CL   UNL     1     -11.873  16.067  64.227  1.00  0.00    -0.218 Cl 
HETATM    2  C   UNL     1     -11.411  14.449  64.588  1.00  0.00    -0.371 A  
HETATM    3  C   UNL     1     -10.421  14.211  65.536  1.00  0.00    -0.352 A  
HETATM    4  C   UNL     1     -10.018  12.900  65.799  1.00  0.00    -0.261 A  
HETATM    5  C   UNL     1     -10.603  11.816  65.125  1.00  0.00    -0.332 A  
HETATM    6  C   UNL     1     -11.613  12.073  64.188  1.00  0.00    -0.460 A  
HETATM    7  C   UNL     1     -12.013  13.386  63.920  1.00  0.00    -0.520 A  
ENDROOT
BRANCH   5   8
HETATM    8  C   UNL     1     -10.094  10.408  65.349  1.00  0.00    -0.354 C  
BRANCH   8   9
HETATM    9  C   UNL     1     -10.891   9.634  66.400  1.00  0.00     0.160 C  
BRANCH   9  10
HETATM   10  C   UNL     1     -10.506   9.944  67.863  1.00  0.00    -0.236 C  
BRANCH  10  11
HETATM   11  S   UNL     1      -9.084   8.899  68.388  1.00  0.00    -0.137 SA 
BRANCH  11  12
HETATM   12  C   UNL     1      -9.565   7.527  69.468  1.00  0.00    -0.156 A  
HETATM   13 CL   UNL     1      -9.478   8.737  72.011  1.00  0.00    -0.365 Cl 
HETATM   14  C   UNL     1     -10.435   5.141  70.798  1.00  0.00    -0.263 A  
HETATM   15  C   UNL     1      -9.772   7.483  70.865  1.00  0.00    -0.173 A  
HETATM   16  C   UNL     1     -10.224   6.308  71.505  1.00  0.00    -0.233 A  
HETATM   17  C   UNL     1     -10.180   5.125  69.441  1.00  0.00    -0.293 A  
HETATM   18  C   UNL     1      -9.748   6.289  68.784  1.00  0.00    -0.128 A  
HETATM   19 CL   UNL     1      -9.439   6.066  67.079  1.00  0.00    -0.129 Cl 
ENDBRANCH  11  12
ENDBRANCH  10  11
BRANCH  10  20
HETATM   20  C   UNL     1     -11.594  10.055  68.956  1.00  0.00     0.069 C  
BRANCH  20  21
HETATM   21  N   UNL     1     -11.844  11.410  69.432  1.00  0.00    -0.325 NA 
HETATM   22  C   UNL     1     -12.274  11.752  70.685  1.00  0.00    -0.349 A  
HETATM   23  N   UNL     1     -12.421  13.050  70.803  1.00  0.00    -0.339 NA 
HETATM   24  C   UNL     1     -11.794  12.554  68.688  1.00  0.00    -0.297 A  
HETATM   25  C   UNL     1     -12.122  13.562  69.566  1.00  0.00    -0.297 A  
ENDBRANCH  20  21
ENDBRANCH  10  20
ENDBRANCH   9  10
ENDBRANCH   8   9
ENDBRANCH   5   8
TORSDOF 7
ENDMDL
MODEL      267
REMARK 921   NORMALIZED FREE ENERGY PREDICTED BY IDOCK:   -4.51 KCAL/MOL
REMARK 922        TOTAL FREE ENERGY PREDICTED BY IDOCK:   -7.23 KCAL/MOL
REMARK 923 INTER-LIGAND FREE ENERGY PREDICTED BY IDOCK:   -5.16 KCAL/MOL
REMARK 924 INTRA-LIGAND FREE ENERGY PREDICTED BY IDOCK:   -2.07 KCAL/MOL
REMARK 927      BINDING AFFINITY PREDICTED BY RF-SCORE:    0.00 PKD
ROOT
HETATM    1 CL   UNL     1      -5.556   6.120  66.811  1.00  0.00    -0.009 Cl 
HETATM    2  C   UNL     1      -6.831   7.246  66.551  1.00  0.00    -0.061 A  
HETATM    3  C   UNL     1      -6.540   8.602  66.439  1.00  0.00    -0.062 A  
HETATM    4  C   UNL     1      -7.579   9.519  66.268  1.00  0.00    -0.097 A  
HETATM    5  C   UNL     1      -8.915   9.091  66.201  1.00  0.00    -0.216 A  
HETATM    6  C   UNL     1      -9.188   7.721  66.296  1.00  0.00    -0.217 A  
HETATM    7  C   UNL     1      -8.148   6.802  66.472  1.00  0.00    -0.108 A  
ENDROOT
BRANCH   5   8
HETATM    8  C   UNL     1     -10.040  10.101  66.110  1.00  0.00    -0.314 C  
BRANCH   8   9
HETATM    9  C   UNL     1     -10.963  10.093  67.330  1.00  0.00    -0.295 C  
BRANCH   9  10
HETATM   10  C   UNL     1     -10.481  10.961  68.513  1.00  0.00    -0.188 C  
BRANCH  10  11
HETATM   11  S   UNL     1     -10.655  10.038  70.098  1.00  0.00    -0.291 SA 
BRANCH  11  12
HETATM   12  C   UNL     1      -9.726   8.486  70.128  1.00  0.00    -0.170 A  
HETATM   13 CL   UNL     1     -11.790   6.580  70.337  1.00  0.00    -0.446 Cl 
HETATM   14  C   UNL     1      -7.898   6.277  70.058  1.00  0.00    -0.106 A  
HETATM   15  C   UNL     1     -10.171   7.145  70.163  1.00  0.00    -0.195 A  
HETATM   16  C   UNL     1      -9.262   6.065  70.103  1.00  0.00    -0.165 A  
HETATM   17  C   UNL     1      -7.420   7.572  70.090  1.00  0.00    -0.086 A  
HETATM   18  C   UNL     1      -8.309   8.658  70.129  1.00  0.00    -0.126 A  
HETATM   19 CL   UNL     1      -7.522  10.215  70.204  1.00  0.00    -0.175 Cl 
ENDBRANCH  11  12
ENDBRANCH  10  11
BRANCH  10  20
HETATM   20  C   UNL     1     -10.921  12.437  68.636  1.00  0.00    -0.247 C  
BRANCH  20  21
HETATM   21  N   UNL     1     -10.875  13.193  67.391  1.00  0.00    -0.253 NA 
HETATM   22  C   UNL     1      -9.750  13.718  66.815  1.00  0.00    -0.275 A  
HETATM   23  N   UNL     1     -10.035  14.359  65.706  1.00  0.00    -0.327 NA 
HETATM   24  C   UNL     1     -11.945  13.594  66.644  1.00  0.00    -0.415 A  
HETATM   25  C   UNL     1     -11.400  14.285  65.587  1.00  0.00    -0.317 A  
ENDBRANCH  20  21
ENDBRANCH  10  20
ENDBRANCH   9  10
ENDBRANCH   8   9
ENDBRANCH   5   8
TORSDOF 7
ENDMDL
MODEL      268
REMARK 921   NORMALIZED FREE ENERGY PREDICTED BY IDOCK:   -4.50 KCAL/MOL
REMARK 922        TOTAL FREE ENERGY PREDICTED BY IDOCK:   -7.22 KCAL/MOL
REMARK 923 INTER-LIGAND FREE ENERGY PREDICTED BY IDOCK:   -6.37 KCAL/MOL
REMARK 924 INTRA-LIGAND FREE ENERGY PREDICTED BY IDOCK:   -0.85 KCAL/MOL
REMARK 927      BINDING AFFINITY PREDICTED BY RF-SCORE:    0.00 PKD
ROOT
HETATM    1 CL   UNL     1     -10.162  17.592  66.458  1.00  0.00    -0.345 Cl 
HETATM    2  C   UNL     1     -10.599  16.362  67.579  1.00  0.00    -0.309 A  
HETATM    3  C   UNL     1     -11.330  15.261  67.144  1.00  0.00    -0.247 A  
HETATM    4  C   UNL     1     -11.719  14.284  68.062  1.00  0.00    -0.386 A  
HETATM    5  C   UNL     1     -11.376  14.392  69.420  1.00  0.00    -0.319 A  
HETATM    6  C   UNL     1     -10.621  15.496  69.837  1.00  0.00    -0.322 A  
HETATM    7  C   UNL     1     -10.236  16.478  68.918  1.00  0.00    -0.268 A  
ENDROOT
BRANCH   5   8
HETATM    8  C   UNL     1     -11.882  13.376  70.421  1.00  0.00    -0.283 C  
BRANCH   8   9
HETATM    9  C   UNL     1     -12.214  12.020  69.795  1.00  0.00    -0.226 C  
BRANCH   9  10
HETATM   10  C   UNL     1     -11.611  10.802  70.529  1.00  0.00    -0.330 C  
BRANCH  10  11
HETATM   11  S   UNL     1     -10.833   9.647  69.324  1.00  0.00    -0.172 SA 
BRANCH  11  12
HETATM   12  C   UNL     1      -9.344  10.321  68.546  1.00  0.00    -0.155 A  
HETATM   13 CL   UNL     1      -7.405   9.898  70.546  1.00  0.00    -0.136 Cl 
HETATM   14  C   UNL     1      -7.232  11.403  66.938  1.00  0.00    -0.144 A  
HETATM   15  C   UNL     1      -8.006  10.365  69.000  1.00  0.00    -0.131 A  
HETATM   16  C   UNL     1      -6.971  10.878  68.188  1.00  0.00    -0.069 A  
HETATM   17  C   UNL     1      -8.536  11.440  66.486  1.00  0.00    -0.170 A  
HETATM   18  C   UNL     1      -9.576  10.916  67.271  1.00  0.00    -0.164 A  
HETATM   19 CL   UNL     1     -11.159  11.087  66.553  1.00  0.00    -0.238 Cl 
ENDBRANCH  11  12
ENDBRANCH  10  11
BRANCH  10  20
HETATM   20  C   UNL     1     -12.418  10.064  71.621  1.00  0.00    -0.418 C  
BRANCH  20  21
HETATM   21  N   UNL     1     -11.958   8.711  71.909  1.00  0.00    -0.331 NA 
HETATM   22  C   UNL     1     -10.770   8.378  72.500  1.00  0.00    -0.302 A  
HETATM   23  N   UNL     1     -10.637   7.077  72.608  1.00  0.00    -0.229 NA 
HETATM   24  C   UNL     1     -12.578   7.549  71.549  1.00  0.00    -0.355 A  
HETATM   25  C   UNL     1     -11.760   6.549  72.023  1.00  0.00    -0.323 A  
ENDBRANCH  20  21
ENDBRANCH  10  20
ENDBRANCH   9  10
ENDBRANCH   8   9
ENDBRANCH   5   8
TORSDOF 7
ENDMDL
MODEL      269
REMARK 921   NORMALIZED FREE ENERGY PREDICTED BY IDOCK:   -4.49 KCAL/MOL
REMARK 922        TOTAL FREE ENERGY PREDICTED BY IDOCK:   -7.21 KCAL/MOL
REMARK 923 INTER-LIGAND FREE ENERGY PREDICTED BY IDOCK:   -6.34 KCAL/MOL
REMARK 924 INTRA-LIGAND FREE ENERGY PREDICTED BY IDOCK:   -0.87 KCAL/MOL
REMARK 927      BINDING AFFINITY PREDICTED BY RF-SCORE:    0.00 PKD
ROOT
HETATM    1 CL   UNL     1      -8.276   6.731  68.124  1.00  0.00    -0.114 Cl 
HETATM    2  C   UNL     1      -9.221   8.169  68.142  1.00  0.00    -0.133 A  
HETATM    3  C   UNL     1      -9.212   8.986  69.269  1.00  0.00    -0.145 A  
HETATM    4  C   UNL     1     -10.010  10.130  69.298  1.00  0.00    -0.234 A  
HETATM    5  C   UNL     1     -10.819  10.475  68.202  1.00  0.00    -0.300 A  
HETATM    6  C   UNL     1     -10.800   9.653  67.068  1.00  0.00    -0.148 A  
HETATM    7  C   UNL     1     -10.004   8.502  67.041  1.00  0.00    -0.318 A  
ENDROOT
BRANCH   5   8
HETATM    8  C   UNL     1     -11.750  11.666  68.281  1.00  0.00    -0.374 C  
BRANCH   8   9
HETATM    9  C   UNL     1     -11.047  12.961  68.692  1.00  0.00    -0.307 C  
BRANCH   9  10
HETATM   10  C   UNL     1     -11.383  14.186  67.815  1.00  0.00    -0.306 C  
BRANCH  10  11
HETATM   11  S   UNL     1      -9.911  14.694  66.831  1.00  0.00    -0.256 SA 
BRANCH  11  12
HETATM   12  C   UNL     1      -9.471  16.436  67.049  1.00  0.00    -0.230 A  
HETATM   13 CL   UNL     1      -7.795  16.330  69.312  1.00  0.00    -0.225 Cl 
HETATM   14  C   UNL     1      -8.961  19.257  66.990  1.00  0.00    -0.331 A  
HETATM   15  C   UNL     1      -8.605  17.059  67.976  1.00  0.00    -0.217 A  
HETATM   16  C   UNL     1      -8.343  18.446  67.922  1.00  0.00    -0.274 A  
HETATM   17  C   UNL     1      -9.865  18.697  66.110  1.00  0.00    -0.308 A  
HETATM   18  C   UNL     1     -10.123  17.317  66.136  1.00  0.00    -0.302 A  
HETATM   19 CL   UNL     1     -11.322  16.799  64.976  1.00  0.00     0.004 Cl 
ENDBRANCH  11  12
ENDBRANCH  10  11
BRANCH  10  20
HETATM   20  C   UNL     1     -12.142  15.394  68.410  1.00  0.00     0.004 C  
BRANCH  20  21
HETATM   21  N   UNL     1     -12.186  15.430  69.866  1.00  0.00    -0.347 NA 
HETATM   22  C   UNL     1     -13.225  14.998  70.646  1.00  0.00    -0.295 A  
HETATM   23  N   UNL     1     -12.972  15.177  71.921  1.00  0.00    -0.333 NA 
HETATM   24  C   UNL     1     -11.255  15.989  70.694  1.00  0.00    -0.372 A  
HETATM   25  C   UNL     1     -11.745  15.790  71.964  1.00  0.00    -0.479 A  
ENDBRANCH  20  21
ENDBRANCH  10  20
ENDBRANCH   9  10
ENDBRANCH   8   9
ENDBRANCH   5   8
TORSDOF 7
ENDMDL
MODEL      270
REMARK 921   NORMALIZED FREE ENERGY PREDICTED BY IDOCK:   -4.49 KCAL/MOL
REMARK 922        TOTAL FREE ENERGY PREDICTED BY IDOCK:   -7.20 KCAL/MOL
REMARK 923 INTER-LIGAND FREE ENERGY PREDICTED BY IDOCK:   -6.05 KCAL/MOL
REMARK 924 INTRA-LIGAND FREE ENERGY PREDICTED BY IDOCK:   -1.16 KCAL/MOL
REMARK 927      BINDING AFFINITY PREDICTED BY RF-SCORE:    0.00 PKD
ROOT
HETATM    1 CL   UNL     1      -6.045   5.304  71.061  1.00  0.00    -0.021 Cl 
HETATM    2  C   UNL     1      -6.874   6.562  70.230  1.00  0.00    -0.058 A  
HETATM    3  C   UNL     1      -7.509   6.288  69.022  1.00  0.00    -0.091 A  
HETATM    4  C   UNL     1      -8.146   7.319  68.328  1.00  0.00    -0.124 A  
HETATM    5  C   UNL     1      -8.162   8.629  68.836  1.00  0.00    -0.123 A  
HETATM    6  C   UNL     1      -7.536   8.883  70.062  1.00  0.00    -0.066 A  
HETATM    7  C   UNL     1      -6.892   7.851  70.755  1.00  0.00    -0.041 A  
ENDROOT
BRANCH   5   8
HETATM    8  C   UNL     1      -8.775   9.755  68.030  1.00  0.00    -0.118 C  
BRANCH   8   9
HETATM    9  C   UNL     1      -9.406  10.847  68.896  1.00  0.00    -0.169 C  
BRANCH   9  10
HETATM   10  C   UNL     1     -10.814  10.512  69.435  1.00  0.00    -0.249 C  
BRANCH  10  11
HETATM   11  S   UNL     1     -12.017  11.818  68.943  1.00  0.00    -0.195 SA 
BRANCH  11  12
HETATM   12  C   UNL     1     -11.966  13.277  70.012  1.00  0.00    -0.329 A  
HETATM   13 CL   UNL     1     -13.561  12.457  72.185  1.00  0.00    -0.531 Cl 
HETATM   14  C   UNL     1     -11.560  15.735  71.432  1.00  0.00    -0.511 A  
HETATM   15  C   UNL     1     -12.518  13.500  71.294  1.00  0.00    -0.300 A  
HETATM   16  C   UNL     1     -12.291  14.706  71.993  1.00  0.00    -0.398 A  
HETATM   17  C   UNL     1     -11.061  15.581  70.154  1.00  0.00    -0.337 A  
HETATM   18  C   UNL     1     -11.260  14.382  69.451  1.00  0.00    -0.281 A  
HETATM   19 CL   UNL     1     -10.590  14.388  67.838  1.00  0.00    -0.238 Cl 
ENDBRANCH  11  12
ENDBRANCH  10  11
BRANCH  10  20
HETATM   20  C   UNL     1     -11.007  10.051  70.897  1.00  0.00    -0.267 C  
BRANCH  20  21
HETATM   21  N   UNL     1     -11.630   8.742  71.047  1.00  0.00    -0.282 NA 
HETATM   22  C   UNL     1     -12.881   8.503  71.547  1.00  0.00    -0.311 A  
HETATM   23  N   UNL     1     -13.150   7.219  71.570  1.00  0.00    -0.383 NA 
HETATM   24  C   UNL     1     -11.043   7.532  70.813  1.00  0.00    -0.265 A  
HETATM   25  C   UNL     1     -12.014   6.603  71.111  1.00  0.00    -0.357 A  
ENDBRANCH  20  21
ENDBRANCH  10  20
ENDBRANCH   9  10
ENDBRANCH   8   9
ENDBRANCH   5   8
TORSDOF 7
ENDMDL
MODEL      271
REMARK 921   NORMALIZED FREE ENERGY PREDICTED BY IDOCK:   -4.48 KCAL/MOL
REMARK 922        TOTAL FREE ENERGY PREDICTED BY IDOCK:   -7.19 KCAL/MOL
REMARK 923 INTER-LIGAND FREE ENERGY PREDICTED BY IDOCK:   -5.58 KCAL/MOL
REMARK 924 INTRA-LIGAND FREE ENERGY PREDICTED BY IDOCK:   -1.61 KCAL/MOL
REMARK 927      BINDING AFFINITY PREDICTED BY RF-SCORE:    0.00 PKD
ROOT
HETATM    1 CL   UNL     1      -8.854   5.380  68.189  1.00  0.00    -0.105 Cl 
HETATM    2  C   UNL     1      -9.256   6.788  67.285  1.00  0.00    -0.133 A  
HETATM    3  C   UNL     1      -8.327   7.326  66.400  1.00  0.00    -0.124 A  
HETATM    4  C   UNL     1      -8.639   8.492  65.698  1.00  0.00    -0.200 A  
HETATM    5  C   UNL     1      -9.882   9.126  65.866  1.00  0.00    -0.305 A  
HETATM    6  C   UNL     1     -10.812   8.559  66.746  1.00  0.00     0.132 A  
HETATM    7  C   UNL     1     -10.498   7.394  67.454  1.00  0.00    -0.366 A  
ENDROOT
BRANCH   5   8
HETATM    8  C   UNL     1     -10.172  10.439  65.171  1.00  0.00    -0.326 C  
BRANCH   8   9
HETATM    9  C   UNL     1      -9.257  11.580  65.621  1.00  0.00    -0.184 C  
BRANCH   9  10
HETATM   10  C   UNL     1      -9.468  12.045  67.078  1.00  0.00    -0.198 C  
BRANCH  10  11
HETATM   11  S   UNL     1     -10.595  13.501  67.130  1.00  0.00    -0.264 SA 
BRANCH  11  12
HETATM   12  C   UNL     1     -11.435  13.698  68.721  1.00  0.00    -0.309 A  
HETATM   13 CL   UNL     1     -12.117  11.038  69.349  1.00  0.00    -0.407 Cl 
HETATM   14  C   UNL     1     -12.610  14.433  71.231  1.00  0.00    -0.421 A  
HETATM   15  C   UNL     1     -11.973  12.736  69.605  1.00  0.00    -0.288 A  
HETATM   16  C   UNL     1     -12.527  13.108  70.850  1.00  0.00    -0.407 A  
HETATM   17  C   UNL     1     -12.156  15.408  70.366  1.00  0.00    -0.408 A  
HETATM   18  C   UNL     1     -11.584  15.056  69.133  1.00  0.00    -0.310 A  
HETATM   19 CL   UNL     1     -11.105  16.424  68.158  1.00  0.00    -0.346 Cl 
ENDBRANCH  11  12
ENDBRANCH  10  11
BRANCH  10  20
HETATM   20  C   UNL     1      -8.267  12.191  68.039  1.00  0.00    -0.158 C  
BRANCH  20  21
HETATM   21  N   UNL     1      -7.754  10.935  68.570  1.00  0.00    -0.111 NA 
HETATM   22  C   UNL     1      -6.574  10.339  68.219  1.00  0.00    -0.057 A  
HETATM   23  N   UNL     1      -6.400   9.207  68.860  1.00  0.00    -0.044 NA 
HETATM   24  C   UNL     1      -8.404  10.089  69.424  1.00  0.00    -0.165 A  
HETATM   25  C   UNL     1      -7.532   9.043  69.617  1.00  0.00    -0.076 A  
ENDBRANCH  20  21
ENDBRANCH  10  20
ENDBRANCH   9  10
ENDBRANCH   8   9
ENDBRANCH   5   8
TORSDOF 7
ENDMDL
MODEL      272
REMARK 921   NORMALIZED FREE ENERGY PREDICTED BY IDOCK:   -4.48 KCAL/MOL
REMARK 922        TOTAL FREE ENERGY PREDICTED BY IDOCK:   -7.19 KCAL/MOL
REMARK 923 INTER-LIGAND FREE ENERGY PREDICTED BY IDOCK:   -5.64 KCAL/MOL
REMARK 924 INTRA-LIGAND FREE ENERGY PREDICTED BY IDOCK:   -1.54 KCAL/MOL
REMARK 927      BINDING AFFINITY PREDICTED BY RF-SCORE:    0.00 PKD
ROOT
HETATM    1 CL   UNL     1     -13.230  11.175  71.854  1.00  0.00    -0.560 Cl 
HETATM    2  C   UNL     1     -11.946  10.940  70.732  1.00  0.00    -0.346 A  
HETATM    3  C   UNL     1     -11.117   9.829  70.858  1.00  0.00    -0.428 A  
HETATM    4  C   UNL     1     -10.051   9.661  69.972  1.00  0.00    -0.293 A  
HETATM    5  C   UNL     1      -9.807  10.593  68.949  1.00  0.00    -0.210 A  
HETATM    6  C   UNL     1     -10.664  11.694  68.825  1.00  0.00    -0.254 A  
HETATM    7  C   UNL     1     -11.729  11.867  69.716  1.00  0.00    -0.403 A  
ENDROOT
BRANCH   5   8
HETATM    8  C   UNL     1      -8.594  10.450  68.055  1.00  0.00    -0.123 C  
BRANCH   8   9
HETATM    9  C   UNL     1      -7.848   9.129  68.250  1.00  0.00    -0.102 C  
BRANCH   9  10
HETATM   10  C   UNL     1      -7.850   8.196  67.020  1.00  0.00    -0.104 C  
BRANCH  10  11
HETATM   11  S   UNL     1      -8.053   6.442  67.546  1.00  0.00    -0.118 SA 
BRANCH  11  12
HETATM   12  C   UNL     1      -9.137   6.247  68.982  1.00  0.00    -0.129 A  
HETATM   13 CL   UNL     1      -7.290   5.636  71.021  1.00  0.00    -0.082 Cl 
HETATM   14  C   UNL     1     -11.175   6.111  70.994  1.00  0.00    -0.361 A  
HETATM   15  C   UNL     1      -8.833   5.991  70.338  1.00  0.00    -0.148 A  
HETATM   16  C   UNL     1      -9.843   5.950  71.324  1.00  0.00    -0.215 A  
HETATM   17  C   UNL     1     -11.519   6.296  69.670  1.00  0.00    -0.425 A  
HETATM   18  C   UNL     1     -10.526   6.359  68.679  1.00  0.00    -0.223 A  
HETATM   19 CL   UNL     1     -11.153   6.558  67.061  1.00  0.00    -0.476 Cl 
ENDBRANCH  11  12
ENDBRANCH  10  11
BRANCH  10  20
HETATM   20  C   UNL     1      -6.791   8.361  65.906  1.00  0.00    -0.064 C  
BRANCH  20  21
HETATM   21  N   UNL     1      -7.287   8.131  64.555  1.00  0.00    -0.083 NA 
HETATM   22  C   UNL     1      -8.181   8.921  63.885  1.00  0.00    -0.171 A  
HETATM   23  N   UNL     1      -8.443   8.442  62.692  1.00  0.00    -0.148 NA 
HETATM   24  C   UNL     1      -7.029   7.044  63.770  1.00  0.00    -0.057 A  
HETATM   25  C   UNL     1      -7.728   7.274  62.607  1.00  0.00    -0.123 A  
ENDBRANCH  20  21
ENDBRANCH  10  20
ENDBRANCH   9  10
ENDBRANCH   8   9
ENDBRANCH   5   8
TORSDOF 7
ENDMDL
MODEL      273
REMARK 921   NORMALIZED FREE ENERGY PREDICTED BY IDOCK:   -4.46 KCAL/MOL
REMARK 922        TOTAL FREE ENERGY PREDICTED BY IDOCK:   -7.16 KCAL/MOL
REMARK 923 INTER-LIGAND FREE ENERGY PREDICTED BY IDOCK:   -5.48 KCAL/MOL
REMARK 924 INTRA-LIGAND FREE ENERGY PREDICTED BY IDOCK:   -1.68 KCAL/MOL
REMARK 927      BINDING AFFINITY PREDICTED BY RF-SCORE:    0.00 PKD
ROOT
HETATM    1 CL   UNL     1     -10.706  13.497  67.301  1.00  0.00    -0.267 Cl 
HETATM    2  C   UNL     1     -10.154  12.166  68.242  1.00  0.00    -0.210 A  
HETATM    3  C   UNL     1      -8.794  11.872  68.289  1.00  0.00    -0.174 A  
HETATM    4  C   UNL     1      -8.352  10.768  69.020  1.00  0.00    -0.138 A  
HETATM    5  C   UNL     1      -9.260   9.952  69.717  1.00  0.00    -0.252 A  
HETATM    6  C   UNL     1     -10.622  10.275  69.675  1.00  0.00    -0.288 A  
HETATM    7  C   UNL     1     -11.066  11.378  68.938  1.00  0.00    -0.290 A  
ENDROOT
BRANCH   5   8
HETATM    8  C   UNL     1      -8.780   8.705  70.428  1.00  0.00    -0.165 C  
BRANCH   8   9
HETATM    9  C   UNL     1      -8.392   7.574  69.475  1.00  0.00    -0.131 C  
BRANCH   9  10
HETATM   10  C   UNL     1      -9.331   7.398  68.262  1.00  0.00    -0.140 C  
BRANCH  10  11
HETATM   11  S   UNL     1     -10.524   6.028  68.567  1.00  0.00    -0.259 SA 
BRANCH  11  12
HETATM   12  C   UNL     1     -10.700   5.610  70.320  1.00  0.00    -0.294 A  
HETATM   13 CL   UNL     1     -12.333   7.708  71.253  1.00  0.00    -0.340 Cl 
HETATM   14  C   UNL     1     -10.791   4.556  72.984  1.00  0.00    -0.315 A  
HETATM   15  C   UNL     1     -11.448   6.232  71.345  1.00  0.00    -0.293 A  
HETATM   16  C   UNL     1     -11.505   5.689  72.648  1.00  0.00    -0.339 A  
HETATM   17  C   UNL     1      -9.995   3.957  72.028  1.00  0.00    -0.241 A  
HETATM   18  C   UNL     1      -9.941   4.471  70.723  1.00  0.00    -0.199 A  
HETATM   19 CL   UNL     1      -8.852   3.607  69.666  1.00  0.00    -0.133 Cl 
ENDBRANCH  11  12
ENDBRANCH  10  11
BRANCH  10  20
HETATM   20  C   UNL     1      -8.765   7.380  66.824  1.00  0.00    -0.133 C  
BRANCH  20  21
HETATM   21  N   UNL     1      -8.923   8.629  66.091  1.00  0.00    -0.168 NA 
HETATM   22  C   UNL     1     -10.102   9.290  65.880  1.00  0.00    -0.118 A  
HETATM   23  N   UNL     1      -9.920  10.378  65.169  1.00  0.00    -0.306 NA 
HETATM   24  C   UNL     1      -7.949   9.296  65.404  1.00  0.00    -0.108 A  
HETATM   25  C   UNL     1      -8.582  10.395  64.870  1.00  0.00    -0.182 A  
ENDBRANCH  20  21
ENDBRANCH  10  20
ENDBRANCH   9  10
ENDBRANCH   8   9
ENDBRANCH   5   8
TORSDOF 7
ENDMDL
MODEL      274
REMARK 921   NORMALIZED FREE ENERGY PREDICTED BY IDOCK:   -4.44 KCAL/MOL
REMARK 922        TOTAL FREE ENERGY PREDICTED BY IDOCK:   -7.14 KCAL/MOL
REMARK 923 INTER-LIGAND FREE ENERGY PREDICTED BY IDOCK:   -5.96 KCAL/MOL
REMARK 924 INTRA-LIGAND FREE ENERGY PREDICTED BY IDOCK:   -1.18 KCAL/MOL
REMARK 927      BINDING AFFINITY PREDICTED BY RF-SCORE:    0.00 PKD
ROOT
HETATM    1 CL   UNL     1     -13.597  15.868  72.821  1.00  0.00    -0.623 Cl 
HETATM    2  C   UNL     1     -13.160  14.569  71.781  1.00  0.00    -0.346 A  
HETATM    3  C   UNL     1     -13.439  13.259  72.160  1.00  0.00    -0.655 A  
HETATM    4  C   UNL     1     -13.047  12.204  71.334  1.00  0.00    -0.284 A  
HETATM    5  C   UNL     1     -12.381  12.445  70.121  1.00  0.00    -0.209 A  
HETATM    6  C   UNL     1     -12.127  13.771  69.745  1.00  0.00    -0.400 A  
HETATM    7  C   UNL     1     -12.514  14.828  70.575  1.00  0.00    -0.411 A  
ENDROOT
BRANCH   5   8
HETATM    8  C   UNL     1     -11.878  11.291  69.279  1.00  0.00    -0.423 C  
BRANCH   8   9
HETATM    9  C   UNL     1     -10.432  11.466  68.812  1.00  0.00    -0.228 C  
BRANCH   9  10
HETATM   10  C   UNL     1      -9.516  10.250  69.073  1.00  0.00    -0.200 C  
BRANCH  10  11
HETATM   11  S   UNL     1     -10.321   8.701  68.486  1.00  0.00    -0.173 SA 
BRANCH  11  12
HETATM   12  C   UNL     1     -10.474   7.441  69.776  1.00  0.00    -0.229 A  
HETATM   13 CL   UNL     1     -12.350   8.621  71.516  1.00  0.00    -0.352 Cl 
HETATM   14  C   UNL     1     -10.484   5.181  71.540  1.00  0.00    -0.256 A  
HETATM   15  C   UNL     1     -11.304   7.388  70.919  1.00  0.00    -0.276 A  
HETATM   16  C   UNL     1     -11.317   6.259  71.767  1.00  0.00    -0.346 A  
HETATM   17  C   UNL     1      -9.610   5.224  70.472  1.00  0.00    -0.236 A  
HETATM   18  C   UNL     1      -9.597   6.329  69.607  1.00  0.00    -0.145 A  
HETATM   19 CL   UNL     1      -8.400   6.222  68.339  1.00  0.00    -0.115 Cl 
ENDBRANCH  11  12
ENDBRANCH  10  11
BRANCH  10  20
HETATM   20  C   UNL     1      -8.817  10.072  70.440  1.00  0.00     0.256 C  
BRANCH  20  21
HETATM   21  N   UNL     1      -7.435   9.617  70.363  1.00  0.00    -0.152 NA 
HETATM   22  C   UNL     1      -6.702   9.472  69.217  1.00  0.00    -0.049 A  
HETATM   23  N   UNL     1      -5.494   9.029  69.473  1.00  0.00    -0.034 NA 
HETATM   24  C   UNL     1      -6.671   9.162  71.400  1.00  0.00    -0.045 A  
HETATM   25  C   UNL     1      -5.461   8.835  70.831  1.00  0.00    -0.029 A  
ENDBRANCH  20  21
ENDBRANCH  10  20
ENDBRANCH   9  10
ENDBRANCH   8   9
ENDBRANCH   5   8
TORSDOF 7
ENDMDL
MODEL      275
REMARK 921   NORMALIZED FREE ENERGY PREDICTED BY IDOCK:   -4.42 KCAL/MOL
REMARK 922        TOTAL FREE ENERGY PREDICTED BY IDOCK:   -7.11 KCAL/MOL
REMARK 923 INTER-LIGAND FREE ENERGY PREDICTED BY IDOCK:   -6.21 KCAL/MOL
REMARK 924 INTRA-LIGAND FREE ENERGY PREDICTED BY IDOCK:   -0.90 KCAL/MOL
REMARK 927      BINDING AFFINITY PREDICTED BY RF-SCORE:    0.00 PKD
ROOT
HETATM    1 CL   UNL     1     -10.763  17.660  67.883  1.00  0.00    -0.385 Cl 
HETATM    2  C   UNL     1     -11.092  16.047  68.382  1.00  0.00    -0.351 A  
HETATM    3  C   UNL     1     -10.474  14.985  67.729  1.00  0.00    -0.249 A  
HETATM    4  C   UNL     1     -10.773  13.674  68.108  1.00  0.00    -0.260 A  
HETATM    5  C   UNL     1     -11.684  13.413  69.146  1.00  0.00    -0.375 A  
HETATM    6  C   UNL     1     -12.280  14.494  69.805  1.00  0.00    -0.360 A  
HETATM    7  C   UNL     1     -11.985  15.807  69.422  1.00  0.00    -0.321 A  
ENDROOT
BRANCH   5   8
HETATM    8  C   UNL     1     -12.070  11.989  69.485  1.00  0.00    -0.273 C  
BRANCH   8   9
HETATM    9  C   UNL     1     -11.625  10.972  68.433  1.00  0.00    -0.372 C  
BRANCH   9  10
HETATM   10  C   UNL     1     -10.566   9.958  68.919  1.00  0.00    -0.218 C  
BRANCH  10  11
HETATM   11  S   UNL     1     -11.140   9.118  70.455  1.00  0.00    -0.249 SA 
BRANCH  11  12
HETATM   12  C   UNL     1     -10.667   7.373  70.534  1.00  0.00    -0.233 A  
HETATM   13 CL   UNL     1     -11.199   6.509  67.905  1.00  0.00    -0.339 Cl 
HETATM   14  C   UNL     1      -9.738   4.711  71.059  1.00  0.00    -0.258 A  
HETATM   15  C   UNL     1     -10.637   6.379  69.529  1.00  0.00    -0.253 A  
HETATM   16  C   UNL     1     -10.155   5.078  69.795  1.00  0.00    -0.337 A  
HETATM   17  C   UNL     1      -9.815   5.634  72.084  1.00  0.00    -0.188 A  
HETATM   18  C   UNL     1     -10.273   6.937  71.835  1.00  0.00    -0.188 A  
HETATM   19 CL   UNL     1     -10.337   7.949  73.257  1.00  0.00    -0.365 Cl 
ENDBRANCH  11  12
ENDBRANCH  10  11
BRANCH  10  20
HETATM   20  C   UNL     1      -9.072  10.350  68.983  1.00  0.00    -0.187 C  
BRANCH  20  21
HETATM   21  N   UNL     1      -8.229   9.703  67.985  1.00  0.00    -0.109 NA 
HETATM   22  C   UNL     1      -8.652   8.815  67.034  1.00  0.00    -0.116 A  
HETATM   23  N   UNL     1      -7.653   8.395  66.294  1.00  0.00    -0.085 NA 
HETATM   24  C   UNL     1      -6.869   9.788  67.893  1.00  0.00    -0.073 A  
HETATM   25  C   UNL     1      -6.537   8.998  66.817  1.00  0.00    -0.064 A  
ENDBRANCH  20  21
ENDBRANCH  10  20
ENDBRANCH   9  10
ENDBRANCH   8   9
ENDBRANCH   5   8
TORSDOF 7
ENDMDL
MODEL      276
REMARK 921   NORMALIZED FREE ENERGY PREDICTED BY IDOCK:   -4.42 KCAL/MOL
REMARK 922        TOTAL FREE ENERGY PREDICTED BY IDOCK:   -7.11 KCAL/MOL
REMARK 923 INTER-LIGAND FREE ENERGY PREDICTED BY IDOCK:   -6.07 KCAL/MOL
REMARK 924 INTRA-LIGAND FREE ENERGY PREDICTED BY IDOCK:   -1.04 KCAL/MOL
REMARK 927      BINDING AFFINITY PREDICTED BY RF-SCORE:    0.00 PKD
ROOT
HETATM    1 CL   UNL     1      -8.368   5.618  67.677  1.00  0.00    -0.101 Cl 
HETATM    2  C   UNL     1      -8.928   7.079  66.960  1.00  0.00    -0.125 A  
HETATM    3  C   UNL     1      -8.212   7.652  65.914  1.00  0.00    -0.133 A  
HETATM    4  C   UNL     1      -8.646   8.858  65.360  1.00  0.00    -0.200 A  
HETATM    5  C   UNL     1      -9.800   9.499  65.840  1.00  0.00    -0.360 A  
HETATM    6  C   UNL     1     -10.520   8.898  66.880  1.00  0.00    -0.304 A  
HETATM    7  C   UNL     1     -10.083   7.692  67.438  1.00  0.00    -0.287 A  
ENDROOT
BRANCH   5   8
HETATM    8  C   UNL     1     -10.208  10.852  65.296  1.00  0.00    -0.351 C  
BRANCH   8   9
HETATM    9  C   UNL     1      -9.294  11.990  65.754  1.00  0.00    -0.133 C  
BRANCH   9  10
HETATM   10  C   UNL     1      -9.574  12.512  67.180  1.00  0.00    -0.208 C  
BRANCH  10  11
HETATM   11  S   UNL     1     -11.157  13.454  67.219  1.00  0.00    -0.290 SA 
BRANCH  11  12
HETATM   12  C   UNL     1     -11.593  14.051  68.872  1.00  0.00    -0.315 A  
HETATM   13 CL   UNL     1     -10.972  16.792  68.677  1.00  0.00    -0.328 Cl 
HETATM   14  C   UNL     1     -12.474  14.594  71.546  1.00  0.00    -0.411 A  
HETATM   15  C   UNL     1     -11.574  15.356  69.415  1.00  0.00    -0.340 A  
HETATM   16  C   UNL     1     -12.033  15.614  70.725  1.00  0.00    -0.438 A  
HETATM   17  C   UNL     1     -12.445  13.296  71.075  1.00  0.00    -0.422 A  
HETATM   18  C   UNL     1     -12.010  13.022  69.768  1.00  0.00    -0.308 A  
HETATM   19 CL   UNL     1     -12.006  11.323  69.365  1.00  0.00    -0.395 Cl 
ENDBRANCH  11  12
ENDBRANCH  10  11
BRANCH  10  20
HETATM   20  C   UNL     1      -8.458  13.198  68.000  1.00  0.00    -0.181 C  
BRANCH  20  21
HETATM   21  N   UNL     1      -7.282  12.371  68.239  1.00  0.00    -0.094 NA 
HETATM   22  C   UNL     1      -6.059  12.528  67.645  1.00  0.00    -0.140 A  
HETATM   23  N   UNL     1      -5.208  11.617  68.054  1.00  0.00    -0.044 NA 
HETATM   24  C   UNL     1      -7.223  11.245  69.009  1.00  0.00    -0.119 A  
HETATM   25  C   UNL     1      -5.920  10.814  68.908  1.00  0.00    -0.040 A  
ENDBRANCH  20  21
ENDBRANCH  10  20
ENDBRANCH   9  10
ENDBRANCH   8   9
ENDBRANCH   5   8
TORSDOF 7
ENDMDL
MODEL      277
REMARK 921   NORMALIZED FREE ENERGY PREDICTED BY IDOCK:   -4.41 KCAL/MOL
REMARK 922        TOTAL FREE ENERGY PREDICTED BY IDOCK:   -7.10 KCAL/MOL
REMARK 923 INTER-LIGAND FREE ENERGY PREDICTED BY IDOCK:   -5.63 KCAL/MOL
REMARK 924 INTRA-LIGAND FREE ENERGY PREDICTED BY IDOCK:   -1.46 KCAL/MOL
REMARK 927      BINDING AFFINITY PREDICTED BY RF-SCORE:    0.00 PKD
ROOT
HETATM    1 CL   UNL     1     -14.405   6.690  71.729  1.00  0.00    -0.293 Cl 
HETATM    2  C   UNL     1     -12.867   7.439  71.540  1.00  0.00    -0.375 A  
HETATM    3  C   UNL     1     -12.722   8.794  71.824  1.00  0.00    -0.408 A  
HETATM    4  C   UNL     1     -11.484   9.410  71.631  1.00  0.00    -0.463 A  
HETATM    5  C   UNL     1     -10.379   8.680  71.161  1.00  0.00    -0.294 A  
HETATM    6  C   UNL     1     -10.539   7.313  70.900  1.00  0.00    -0.234 A  
HETATM    7  C   UNL     1     -11.780   6.696  71.088  1.00  0.00    -0.399 A  
ENDROOT
BRANCH   5   8
HETATM    8  C   UNL     1      -9.068   9.377  70.867  1.00  0.00    -0.220 C  
BRANCH   8   9
HETATM    9  C   UNL     1      -8.361   8.841  69.621  1.00  0.00    -0.126 C  
BRANCH   9  10
HETATM   10  C   UNL     1      -8.875   9.419  68.285  1.00  0.00    -0.128 C  
BRANCH  10  11
HETATM   11  S   UNL     1      -8.475   8.278  66.895  1.00  0.00    -0.120 SA 
BRANCH  11  12
HETATM   12  C   UNL     1      -8.320   6.550  67.412  1.00  0.00    -0.120 A  
HETATM   13 CL   UNL     1      -5.524   6.241  67.565  1.00  0.00    -0.005 Cl 
HETATM   14  C   UNL     1      -8.518   3.831  68.302  1.00  0.00    -0.108 A  
HETATM   15  C   UNL     1      -7.177   5.780  67.726  1.00  0.00    -0.076 A  
HETATM   16  C   UNL     1      -7.289   4.450  68.186  1.00  0.00    -0.065 A  
HETATM   17  C   UNL     1      -9.654   4.527  67.940  1.00  0.00    -0.208 A  
HETATM   18  C   UNL     1      -9.564   5.857  67.499  1.00  0.00    -0.112 A  
HETATM   19 CL   UNL     1     -11.099   6.560  67.051  1.00  0.00    -0.476 Cl 
ENDBRANCH  11  12
ENDBRANCH  10  11
BRANCH  10  20
HETATM   20  C   UNL     1      -8.628  10.901  67.923  1.00  0.00    -0.130 C  
BRANCH  20  21
HETATM   21  N   UNL     1      -9.837  11.699  67.761  1.00  0.00    -0.175 NA 
HETATM   22  C   UNL     1     -10.218  12.354  66.621  1.00  0.00    -0.224 A  
HETATM   23  N   UNL     1     -11.347  12.999  66.795  1.00  0.00    -0.309 NA 
HETATM   24  C   UNL     1     -10.739  12.014  68.737  1.00  0.00    -0.220 A  
HETATM   25  C   UNL     1     -11.684  12.791  68.108  1.00  0.00    -0.345 A  
ENDBRANCH  20  21
ENDBRANCH  10  20
ENDBRANCH   9  10
ENDBRANCH   8   9
ENDBRANCH   5   8
TORSDOF 7
ENDMDL
MODEL      278
REMARK 921   NORMALIZED FREE ENERGY PREDICTED BY IDOCK:   -4.40 KCAL/MOL
REMARK 922        TOTAL FREE ENERGY PREDICTED BY IDOCK:   -7.09 KCAL/MOL
REMARK 923 INTER-LIGAND FREE ENERGY PREDICTED BY IDOCK:   -4.98 KCAL/MOL
REMARK 924 INTRA-LIGAND FREE ENERGY PREDICTED BY IDOCK:   -2.11 KCAL/MOL
REMARK 927      BINDING AFFINITY PREDICTED BY RF-SCORE:    0.00 PKD
ROOT
HETATM    1 CL   UNL     1      -6.756   9.386  62.913  1.00  0.00    -0.097 Cl 
HETATM    2  C   UNL     1      -7.650   9.772  64.331  1.00  0.00    -0.135 A  
HETATM    3  C   UNL     1      -9.012   9.490  64.385  1.00  0.00    -0.255 A  
HETATM    4  C   UNL     1      -9.744   9.841  65.521  1.00  0.00    -0.382 A  
HETATM    5  C   UNL     1      -9.125  10.469  66.614  1.00  0.00    -0.172 A  
HETATM    6  C   UNL     1      -7.750  10.727  66.551  1.00  0.00    -0.145 A  
HETATM    7  C   UNL     1      -7.016  10.381  65.411  1.00  0.00    -0.118 A  
ENDROOT
BRANCH   5   8
HETATM    8  C   UNL     1      -9.946  10.929  67.800  1.00  0.00    -0.198 C  
BRANCH   8   9
HETATM    9  C   UNL     1     -10.942   9.878  68.293  1.00  0.00    -0.248 C  
BRANCH   9  10
HETATM   10  C   UNL     1     -10.503   9.114  69.561  1.00  0.00    -0.219 C  
BRANCH  10  11
HETATM   11  S   UNL     1     -10.369   7.311  69.209  1.00  0.00    -0.209 SA 
BRANCH  11  12
HETATM   12  C   UNL     1      -9.193   6.925  67.889  1.00  0.00    -0.124 A  
HETATM   13 CL   UNL     1     -10.797   5.458  66.096  1.00  0.00    -0.202 Cl 
HETATM   14  C   UNL     1      -7.058   6.608  66.002  1.00  0.00    -0.062 A  
HETATM   15  C   UNL     1      -9.376   6.256  66.657  1.00  0.00    -0.148 A  
HETATM   16  C   UNL     1      -8.323   6.128  65.725  1.00  0.00    -0.143 A  
HETATM   17  C   UNL     1      -6.821   7.208  67.223  1.00  0.00    -0.073 A  
HETATM   18  C   UNL     1      -7.861   7.362  68.153  1.00  0.00    -0.122 A  
HETATM   19 CL   UNL     1      -7.364   8.107  69.653  1.00  0.00    -0.072 Cl 
ENDBRANCH  11  12
ENDBRANCH  10  11
BRANCH  10  20
HETATM   20  C   UNL     1     -11.171   9.403  70.924  1.00  0.00    -0.325 C  
BRANCH  20  21
HETATM   21  N   UNL     1     -10.710   8.561  72.020  1.00  0.00    -0.314 NA 
HETATM   22  C   UNL     1      -9.433   8.513  72.511  1.00  0.00    -0.258 A  
HETATM   23  N   UNL     1      -9.328   7.645  73.488  1.00  0.00    -0.261 NA 
HETATM   24  C   UNL     1     -11.437   7.606  72.673  1.00  0.00    -0.349 A  
HETATM   25  C   UNL     1     -10.571   7.076  73.602  1.00  0.00    -0.345 A  
ENDBRANCH  20  21
ENDBRANCH  10  20
ENDBRANCH   9  10
ENDBRANCH   8   9
ENDBRANCH   5   8
TORSDOF 7
ENDMDL
MODEL      279
REMARK 921   NORMALIZED FREE ENERGY PREDICTED BY IDOCK:   -4.39 KCAL/MOL
REMARK 922        TOTAL FREE ENERGY PREDICTED BY IDOCK:   -7.07 KCAL/MOL
REMARK 923 INTER-LIGAND FREE ENERGY PREDICTED BY IDOCK:   -6.28 KCAL/MOL
REMARK 924 INTRA-LIGAND FREE ENERGY PREDICTED BY IDOCK:   -0.79 KCAL/MOL
REMARK 927      BINDING AFFINITY PREDICTED BY RF-SCORE:    0.00 PKD
ROOT
HETATM    1 CL   UNL     1     -14.320   6.981  72.175  1.00  0.00    -0.333 Cl 
HETATM    2  C   UNL     1     -12.991   7.849  71.511  1.00  0.00    -0.311 A  
HETATM    3  C   UNL     1     -11.934   7.154  70.932  1.00  0.00    -0.375 A  
HETATM    4  C   UNL     1     -10.837   7.858  70.431  1.00  0.00    -0.244 A  
HETATM    5  C   UNL     1     -10.789   9.261  70.495  1.00  0.00    -0.318 A  
HETATM    6  C   UNL     1     -11.871   9.945  71.062  1.00  0.00    -0.463 A  
HETATM    7  C   UNL     1     -12.967   9.240  71.570  1.00  0.00    -0.429 A  
ENDROOT
BRANCH   5   8
HETATM    8  C   UNL     1      -9.555  10.007  70.034  1.00  0.00    -0.205 C  
BRANCH   8   9
HETATM    9  C   UNL     1      -9.692  10.595  68.628  1.00  0.00    -0.178 C  
BRANCH   9  10
HETATM   10  C   UNL     1      -8.715  11.748  68.310  1.00  0.00    -0.167 C  
BRANCH  10  11
HETATM   11  S   UNL     1      -9.540  13.376  68.560  1.00  0.00    -0.080 SA 
BRANCH  11  12
HETATM   12  C   UNL     1     -10.377  13.988  67.076  1.00  0.00    -0.267 A  
HETATM   13 CL   UNL     1      -8.659  16.067  66.259  1.00  0.00    -0.366 Cl 
HETATM   14  C   UNL     1     -11.959  14.590  64.761  1.00  0.00    -0.449 A  
HETATM   15  C   UNL     1     -10.003  14.993  66.155  1.00  0.00    -0.291 A  
HETATM   16  C   UNL     1     -10.779  15.263  65.006  1.00  0.00    -0.461 A  
HETATM   17  C   UNL     1     -12.393  13.647  65.673  1.00  0.00    -0.518 A  
HETATM   18  C   UNL     1     -11.626  13.351  66.811  1.00  0.00    -0.365 A  
HETATM   19 CL   UNL     1     -12.353  12.163  67.865  1.00  0.00     0.289 Cl 
ENDBRANCH  11  12
ENDBRANCH  10  11
BRANCH  10  20
HETATM   20  C   UNL     1      -7.847  11.714  67.032  1.00  0.00    -0.164 C  
BRANCH  20  21
HETATM   21  N   UNL     1      -7.820  10.428  66.347  1.00  0.00    -0.122 NA 
HETATM   22  C   UNL     1      -7.036   9.358  66.684  1.00  0.00    -0.081 A  
HETATM   23  N   UNL     1      -7.226   8.349  65.868  1.00  0.00    -0.072 NA 
HETATM   24  C   UNL     1      -8.487  10.103  65.201  1.00  0.00    -0.161 A  
HETATM   25  C   UNL     1      -8.132   8.800  64.941  1.00  0.00    -0.147 A  
ENDBRANCH  20  21
ENDBRANCH  10  20
ENDBRANCH   9  10
ENDBRANCH   8   9
ENDBRANCH   5   8
TORSDOF 7
ENDMDL
MODEL      280
REMARK 921   NORMALIZED FREE ENERGY PREDICTED BY IDOCK:   -4.39 KCAL/MOL
REMARK 922        TOTAL FREE ENERGY PREDICTED BY IDOCK:   -7.07 KCAL/MOL
REMARK 923 INTER-LIGAND FREE ENERGY PREDICTED BY IDOCK:   -6.18 KCAL/MOL
REMARK 924 INTRA-LIGAND FREE ENERGY PREDICTED BY IDOCK:   -0.89 KCAL/MOL
REMARK 927      BINDING AFFINITY PREDICTED BY RF-SCORE:    0.00 PKD
ROOT
HETATM    1 CL   UNL     1     -12.819  14.250  65.217  1.00  0.00    -0.391 Cl 
HETATM    2  C   UNL     1     -11.876  12.863  65.602  1.00  0.00    -0.417 A  
HETATM    3  C   UNL     1     -11.215  12.177  64.588  1.00  0.00    -0.374 A  
HETATM    4  C   UNL     1     -10.484  11.028  64.896  1.00  0.00    -0.371 A  
HETATM    5  C   UNL     1     -10.398  10.559  66.218  1.00  0.00    -0.276 A  
HETATM    6  C   UNL     1     -11.052  11.274  67.229  1.00  0.00    -0.367 A  
HETATM    7  C   UNL     1     -11.790  12.422  66.920  1.00  0.00    -0.377 A  
ENDROOT
BRANCH   5   8
HETATM    8  C   UNL     1      -9.681   9.262  66.526  1.00  0.00    -0.305 C  
BRANCH   8   9
HETATM    9  C   UNL     1     -10.530   8.273  67.327  1.00  0.00    -0.373 C  
BRANCH   9  10
HETATM   10  C   UNL     1      -9.856   7.727  68.604  1.00  0.00    -0.169 C  
BRANCH  10  11
HETATM   11  S   UNL     1      -9.574   9.088  69.813  1.00  0.00    -0.183 SA 
BRANCH  11  12
HETATM   12  C   UNL     1      -9.370   8.502  71.514  1.00  0.00    -0.222 A  
HETATM   13 CL   UNL     1     -12.038   8.404  72.414  1.00  0.00    -0.450 Cl 
HETATM   14  C   UNL     1      -8.622   7.493  74.091  1.00  0.00    -0.276 A  
HETATM   15  C   UNL     1     -10.331   8.184  72.500  1.00  0.00    -0.330 A  
HETATM   16  C   UNL     1      -9.951   7.665  73.757  1.00  0.00    -0.176 A  
HETATM   17  C   UNL     1      -7.650   7.856  73.179  1.00  0.00    -0.165 A  
HETATM   18  C   UNL     1      -8.010   8.355  71.917  1.00  0.00    -0.136 A  
HETATM   19 CL   UNL     1      -6.648   8.796  70.916  1.00  0.00    -0.048 Cl 
ENDBRANCH  11  12
ENDBRANCH  10  11
BRANCH  10  20
HETATM   20  C   UNL     1      -8.653   6.762  68.507  1.00  0.00    -0.125 C  
BRANCH  20  21
HETATM   21  N   UNL     1      -8.836   5.489  69.192  1.00  0.00    -0.102 NA 
HETATM   22  C   UNL     1      -9.847   5.186  70.063  1.00  0.00    -0.225 A  
HETATM   23  N   UNL     1      -9.728   3.964  70.527  1.00  0.00    -0.192 NA 
HETATM   24  C   UNL     1      -7.982   4.423  69.165  1.00  0.00    -0.068 A  
HETATM   25  C   UNL     1      -8.572   3.477  69.972  1.00  0.00    -0.062 A  
ENDBRANCH  20  21
ENDBRANCH  10  20
ENDBRANCH   9  10
ENDBRANCH   8   9
ENDBRANCH   5   8
TORSDOF 7
ENDMDL
MODEL      281
REMARK 921   NORMALIZED FREE ENERGY PREDICTED BY IDOCK:   -4.39 KCAL/MOL
REMARK 922        TOTAL FREE ENERGY PREDICTED BY IDOCK:   -7.07 KCAL/MOL
REMARK 923 INTER-LIGAND FREE ENERGY PREDICTED BY IDOCK:   -6.29 KCAL/MOL
REMARK 924 INTRA-LIGAND FREE ENERGY PREDICTED BY IDOCK:   -0.77 KCAL/MOL
REMARK 927      BINDING AFFINITY PREDICTED BY RF-SCORE:    0.00 PKD
ROOT
HETATM    1 CL   UNL     1      -7.878   1.790  66.902  1.00  0.00    -0.065 Cl 
HETATM    2  C   UNL     1      -8.736   3.265  67.117  1.00  0.00    -0.121 A  
HETATM    3  C   UNL     1      -8.536   4.017  68.271  1.00  0.00    -0.105 A  
HETATM    4  C   UNL     1      -9.264   5.193  68.463  1.00  0.00    -0.145 A  
HETATM    5  C   UNL     1     -10.191   5.634  67.504  1.00  0.00    -0.246 A  
HETATM    6  C   UNL     1     -10.365   4.876  66.339  1.00  0.00    -0.328 A  
HETATM    7  C   UNL     1      -9.640   3.694  66.149  1.00  0.00    -0.142 A  
ENDROOT
BRANCH   5   8
HETATM    8  C   UNL     1     -11.041   6.859  67.766  1.00  0.00    -0.223 C  
BRANCH   8   9
HETATM    9  C   UNL     1     -10.225   8.091  68.161  1.00  0.00    -0.251 C  
BRANCH   9  10
HETATM   10  C   UNL     1     -10.830   8.927  69.309  1.00  0.00    -0.096 C  
BRANCH  10  11
HETATM   11  S   UNL     1     -11.293  10.605  68.706  1.00  0.00    -0.267 SA 
BRANCH  11  12
HETATM   12  C   UNL     1     -12.028  11.648  69.990  1.00  0.00    -0.351 A  
HETATM   13 CL   UNL     1     -13.359   9.747  71.589  1.00  0.00    -0.477 Cl 
HETATM   14  C   UNL     1     -12.934  13.629  71.855  1.00  0.00    -0.432 A  
HETATM   15  C   UNL     1     -12.780  11.307  71.137  1.00  0.00    -0.390 A  
HETATM   16  C   UNL     1     -13.200  12.289  72.061  1.00  0.00    -0.508 A  
HETATM   17  C   UNL     1     -12.260  14.009  70.711  1.00  0.00    -0.438 A  
HETATM   18  C   UNL     1     -11.818  13.045  69.791  1.00  0.00    -0.311 A  
HETATM   19 CL   UNL     1     -11.021  13.717  68.390  1.00  0.00    -0.262 Cl 
ENDBRANCH  11  12
ENDBRANCH  10  11
BRANCH  10  20
HETATM   20  C   UNL     1     -10.152   8.964  70.698  1.00  0.00    -0.212 C  
BRANCH  20  21
HETATM   21  N   UNL     1     -10.084   7.677  71.378  1.00  0.00    -0.182 NA 
HETATM   22  C   UNL     1     -11.126   7.043  71.997  1.00  0.00    -0.243 A  
HETATM   23  N   UNL     1     -10.746   5.907  72.532  1.00  0.00    -0.221 NA 
HETATM   24  C   UNL     1      -8.959   6.936  71.604  1.00  0.00    -0.135 A  
HETATM   25  C   UNL     1      -9.398   5.827  72.290  1.00  0.00    -0.144 A  
ENDBRANCH  20  21
ENDBRANCH  10  20
ENDBRANCH   9  10
ENDBRANCH   8   9
ENDBRANCH   5   8
TORSDOF 7
ENDMDL
MODEL      282
REMARK 921   NORMALIZED FREE ENERGY PREDICTED BY IDOCK:   -4.38 KCAL/MOL
REMARK 922        TOTAL FREE ENERGY PREDICTED BY IDOCK:   -7.06 KCAL/MOL
REMARK 923 INTER-LIGAND FREE ENERGY PREDICTED BY IDOCK:   -6.56 KCAL/MOL
REMARK 924 INTRA-LIGAND FREE ENERGY PREDICTED BY IDOCK:   -0.50 KCAL/MOL
REMARK 927      BINDING AFFINITY PREDICTED BY RF-SCORE:    0.00 PKD
ROOT
HETATM    1 CL   UNL     1      -8.482   4.001  72.243  1.00  0.00    -0.100 Cl 
HETATM    2  C   UNL     1      -8.718   5.405  71.277  1.00  0.00    -0.130 A  
HETATM    3  C   UNL     1      -8.895   5.274  69.903  1.00  0.00    -0.132 A  
HETATM    4  C   UNL     1      -9.045   6.417  69.114  1.00  0.00    -0.131 A  
HETATM    5  C   UNL     1      -9.029   7.698  69.690  1.00  0.00    -0.140 A  
HETATM    6  C   UNL     1      -8.871   7.810  71.077  1.00  0.00    -0.145 A  
HETATM    7  C   UNL     1      -8.715   6.666  71.867  1.00  0.00    -0.128 A  
ENDROOT
BRANCH   5   8
HETATM    8  C   UNL     1      -9.100   8.932  68.815  1.00  0.00    -0.134 C  
BRANCH   8   9
HETATM    9  C   UNL     1      -9.422  10.209  69.593  1.00  0.00    -0.226 C  
BRANCH   9  10
HETATM   10  C   UNL     1     -10.692  10.951  69.123  1.00  0.00    -0.226 C  
BRANCH  10  11
HETATM   11  S   UNL     1     -10.244  12.347  68.008  1.00  0.00    -0.225 SA 
BRANCH  11  12
HETATM   12  C   UNL     1     -10.631  12.026  66.269  1.00  0.00    -0.252 A  
HETATM   13 CL   UNL     1      -8.649  10.148  65.573  1.00  0.00    -0.152 Cl 
HETATM   14  C   UNL     1     -11.624  11.745  63.594  1.00  0.00    -0.521 A  
HETATM   15  C   UNL     1     -10.047  11.131  65.345  1.00  0.00    -0.264 A  
HETATM   16  C   UNL     1     -10.560  10.984  64.037  1.00  0.00    -0.395 A  
HETATM   17  C   UNL     1     -12.179  12.679  64.445  1.00  0.00    -0.518 A  
HETATM   18  C   UNL     1     -11.695  12.826  65.755  1.00  0.00    -0.402 A  
HETATM   19 CL   UNL     1     -12.494  14.081  66.669  1.00  0.00    -0.398 Cl 
ENDBRANCH  11  12
ENDBRANCH  10  11
BRANCH  10  20
HETATM   20  C   UNL     1     -11.800  11.331  70.131  1.00  0.00    -0.364 C  
BRANCH  20  21
HETATM   21  N   UNL     1     -12.356  10.210  70.877  1.00  0.00    -0.337 NA 
HETATM   22  C   UNL     1     -13.093  10.299  72.027  1.00  0.00    -0.425 A  
HETATM   23  N   UNL     1     -13.437   9.112  72.468  1.00  0.00    -0.471 NA 
HETATM   24  C   UNL     1     -12.154   8.884  70.620  1.00  0.00    -0.014 A  
HETATM   25  C   UNL     1     -12.862   8.222  71.597  1.00  0.00    -0.329 A  
ENDBRANCH  20  21
ENDBRANCH  10  20
ENDBRANCH   9  10
ENDBRANCH   8   9
ENDBRANCH   5   8
TORSDOF 7
ENDMDL
MODEL      283
REMARK 921   NORMALIZED FREE ENERGY PREDICTED BY IDOCK:   -4.36 KCAL/MOL
REMARK 922        TOTAL FREE ENERGY PREDICTED BY IDOCK:   -7.03 KCAL/MOL
REMARK 923 INTER-LIGAND FREE ENERGY PREDICTED BY IDOCK:   -6.14 KCAL/MOL
REMARK 924 INTRA-LIGAND FREE ENERGY PREDICTED BY IDOCK:   -0.89 KCAL/MOL
REMARK 927      BINDING AFFINITY PREDICTED BY RF-SCORE:    0.00 PKD
ROOT
HETATM    1 CL   UNL     1     -12.717  13.540  65.774  1.00  0.00    -0.479 Cl 
HETATM    2  C   UNL     1     -11.909  12.586  66.956  1.00  0.00    -0.323 A  
HETATM    3  C   UNL     1     -11.174  11.473  66.559  1.00  0.00    -0.324 A  
HETATM    4  C   UNL     1     -10.553  10.677  67.523  1.00  0.00    -0.297 A  
HETATM    5  C   UNL     1     -10.652  10.987  68.890  1.00  0.00    -0.239 A  
HETATM    6  C   UNL     1     -11.378  12.123  69.270  1.00  0.00    -0.327 A  
HETATM    7  C   UNL     1     -12.005  12.918  68.305  1.00  0.00    -0.297 A  
ENDROOT
BRANCH   5   8
HETATM    8  C   UNL     1     -10.053  10.065  69.931  1.00  0.00    -0.289 C  
BRANCH   8   9
HETATM    9  C   UNL     1     -11.099   9.238  70.682  1.00  0.00    -0.335 C  
BRANCH   9  10
HETATM   10  C   UNL     1     -10.540   7.997  71.411  1.00  0.00    -0.216 C  
BRANCH  10  11
HETATM   11  S   UNL     1     -11.503   6.496  70.953  1.00  0.00    -0.358 SA 
BRANCH  11  12
HETATM   12  C   UNL     1     -10.522   5.261  70.063  1.00  0.00    -0.281 A  
HETATM   13 CL   UNL     1     -10.923   6.027  67.382  1.00  0.00    -0.390 Cl 
HETATM   14  C   UNL     1      -8.806   3.195  69.059  1.00  0.00    -0.161 A  
HETATM   15  C   UNL     1     -10.253   5.117  68.683  1.00  0.00    -0.122 A  
HETATM   16  C   UNL     1      -9.387   4.110  68.203  1.00  0.00    -0.212 A  
HETATM   17  C   UNL     1      -9.098   3.261  70.408  1.00  0.00    -0.191 A  
HETATM   18  C   UNL     1      -9.941   4.267  70.905  1.00  0.00    -0.155 A  
HETATM   19 CL   UNL     1     -10.224   4.167  72.626  1.00  0.00    -0.224 Cl 
ENDBRANCH  11  12
ENDBRANCH  10  11
BRANCH  10  20
HETATM   20  C   UNL     1     -10.215   8.053  72.921  1.00  0.00    -0.314 C  
BRANCH  20  21
HETATM   21  N   UNL     1      -8.852   7.667  73.266  1.00  0.00    -0.175 NA 
HETATM   22  C   UNL     1      -7.740   7.884  72.499  1.00  0.00    -0.111 A  
HETATM   23  N   UNL     1      -6.662   7.406  73.073  1.00  0.00    -0.064 NA 
HETATM   24  C   UNL     1      -8.466   6.937  74.354  1.00  0.00    -0.161 A  
HETATM   25  C   UNL     1      -7.100   6.817  74.232  1.00  0.00    -0.090 A  
ENDBRANCH  20  21
ENDBRANCH  10  20
ENDBRANCH   9  10
ENDBRANCH   8   9
ENDBRANCH   5   8
TORSDOF 7
ENDMDL
MODEL      284
REMARK 921   NORMALIZED FREE ENERGY PREDICTED BY IDOCK:   -4.36 KCAL/MOL
REMARK 922        TOTAL FREE ENERGY PREDICTED BY IDOCK:   -7.03 KCAL/MOL
REMARK 923 INTER-LIGAND FREE ENERGY PREDICTED BY IDOCK:   -6.11 KCAL/MOL
REMARK 924 INTRA-LIGAND FREE ENERGY PREDICTED BY IDOCK:   -0.92 KCAL/MOL
REMARK 927      BINDING AFFINITY PREDICTED BY RF-SCORE:    0.00 PKD
ROOT
HETATM    1 CL   UNL     1      -6.472   5.721  70.804  1.00  0.00    -0.035 Cl 
HETATM    2  C   UNL     1      -7.177   7.057  69.980  1.00  0.00    -0.079 A  
HETATM    3  C   UNL     1      -8.107   6.830  68.971  1.00  0.00    -0.117 A  
HETATM    4  C   UNL     1      -8.648   7.913  68.275  1.00  0.00    -0.124 A  
HETATM    5  C   UNL     1      -8.272   9.231  68.585  1.00  0.00    -0.113 A  
HETATM    6  C   UNL     1      -7.350   9.441  69.618  1.00  0.00    -0.077 A  
HETATM    7  C   UNL     1      -6.804   8.356  70.311  1.00  0.00    -0.036 A  
ENDROOT
BRANCH   5   8
HETATM    8  C   UNL     1      -8.794  10.390  67.762  1.00  0.00    -0.128 C  
BRANCH   8   9
HETATM    9  C   UNL     1      -9.566  11.421  68.588  1.00  0.00    -0.179 C  
BRANCH   9  10
HETATM   10  C   UNL     1     -11.102  11.274  68.534  1.00  0.00    -0.235 C  
BRANCH  10  11
HETATM   11  S   UNL     1     -11.769  12.059  67.008  1.00  0.00    -0.186 SA 
BRANCH  11  12
HETATM   12  C   UNL     1     -11.194  13.758  66.768  1.00  0.00    -0.316 A  
HETATM   13 CL   UNL     1     -11.822  14.936  69.249  1.00  0.00    -0.342 Cl 
HETATM   14  C   UNL     1     -10.089  16.294  66.013  1.00  0.00    -0.377 A  
HETATM   15  C   UNL     1     -11.164  14.856  67.658  1.00  0.00    -0.323 A  
HETATM   16  C   UNL     1     -10.595  16.092  67.282  1.00  0.00    -0.305 A  
HETATM   17  C   UNL     1     -10.162  15.267  65.093  1.00  0.00    -0.374 A  
HETATM   18  C   UNL     1     -10.706  14.025  65.454  1.00  0.00    -0.337 A  
HETATM   19 CL   UNL     1     -10.748  12.864  64.149  1.00  0.00    -0.417 Cl 
ENDBRANCH  11  12
ENDBRANCH  10  11
BRANCH  10  20
HETATM   20  C   UNL     1     -11.965  11.576  69.781  1.00  0.00    -0.346 C  
BRANCH  20  21
HETATM   21  N   UNL     1     -12.280  10.413  70.601  1.00  0.00    -0.320 NA 
HETATM   22  C   UNL     1     -13.070  10.412  71.718  1.00  0.00    -0.462 A  
HETATM   23  N   UNL     1     -13.149   9.214  72.247  1.00  0.00    -0.425 NA 
HETATM   24  C   UNL     1     -11.762   9.157  70.461  1.00  0.00    -0.152 A  
HETATM   25  C   UNL     1     -12.341   8.422  71.470  1.00  0.00    -0.309 A  
ENDBRANCH  20  21
ENDBRANCH  10  20
ENDBRANCH   9  10
ENDBRANCH   8   9
ENDBRANCH   5   8
TORSDOF 7
ENDMDL
MODEL      285
REMARK 921   NORMALIZED FREE ENERGY PREDICTED BY IDOCK:   -4.35 KCAL/MOL
REMARK 922        TOTAL FREE ENERGY PREDICTED BY IDOCK:   -7.01 KCAL/MOL
REMARK 923 INTER-LIGAND FREE ENERGY PREDICTED BY IDOCK:   -6.49 KCAL/MOL
REMARK 924 INTRA-LIGAND FREE ENERGY PREDICTED BY IDOCK:   -0.53 KCAL/MOL
REMARK 927      BINDING AFFINITY PREDICTED BY RF-SCORE:    0.00 PKD
ROOT
HETATM    1 CL   UNL     1     -10.482  19.954  67.368  1.00  0.00    -0.554 Cl 
HETATM    2  C   UNL     1     -10.097  18.278  67.350  1.00  0.00    -0.352 A  
HETATM    3  C   UNL     1     -10.002  17.606  66.135  1.00  0.00    -0.281 A  
HETATM    4  C   UNL     1      -9.729  16.236  66.124  1.00  0.00    -0.357 A  
HETATM    5  C   UNL     1      -9.541  15.527  67.322  1.00  0.00    -0.216 A  
HETATM    6  C   UNL     1      -9.620  16.224  68.535  1.00  0.00    -0.222 A  
HETATM    7  C   UNL     1      -9.899  17.595  68.547  1.00  0.00    -0.346 A  
ENDROOT
BRANCH   5   8
HETATM    8  C   UNL     1      -9.339  14.027  67.301  1.00  0.00    -0.230 C  
BRANCH   8   9
HETATM    9  C   UNL     1     -10.577  13.242  67.739  1.00  0.00    -0.249 C  
BRANCH   9  10
HETATM   10  C   UNL     1     -10.299  11.787  68.177  1.00  0.00    -0.200 C  
BRANCH  10  11
HETATM   11  S   UNL     1     -11.741  11.109  69.102  1.00  0.00    -0.363 SA 
BRANCH  11  12
HETATM   12  C   UNL     1     -11.335   9.644  70.084  1.00  0.00    -0.227 A  
HETATM   13 CL   UNL     1      -9.823   8.123  68.257  1.00  0.00    -0.179 Cl 
HETATM   14  C   UNL     1     -10.850   7.558  71.991  1.00  0.00    -0.273 A  
HETATM   15  C   UNL     1     -10.543   8.515  69.773  1.00  0.00    -0.224 A  
HETATM   16  C   UNL     1     -10.292   7.506  70.728  1.00  0.00    -0.205 A  
HETATM   17  C   UNL     1     -11.684   8.611  72.311  1.00  0.00    -0.428 A  
HETATM   18  C   UNL     1     -11.929   9.633  71.381  1.00  0.00    -0.399 A  
HETATM   19 CL   UNL     1     -13.037  10.858  71.951  1.00  0.00    -0.592 Cl 
ENDBRANCH  11  12
ENDBRANCH  10  11
BRANCH  10  20
HETATM   20  C   UNL     1      -8.948  11.404  68.823  1.00  0.00    -0.080 C  
BRANCH  20  21
HETATM   21  N   UNL     1      -7.876  11.129  67.875  1.00  0.00    -0.108 NA 
HETATM   22  C   UNL     1      -8.038  10.746  66.571  1.00  0.00    -0.146 A  
HETATM   23  N   UNL     1      -6.881  10.558  65.981  1.00  0.00    -0.128 NA 
HETATM   24  C   UNL     1      -6.538  11.103  68.148  1.00  0.00    -0.058 A  
HETATM   25  C   UNL     1      -5.939  10.781  66.952  1.00  0.00    -0.069 A  
ENDBRANCH  20  21
ENDBRANCH  10  20
ENDBRANCH   9  10
ENDBRANCH   8   9
ENDBRANCH   5   8
TORSDOF 7
ENDMDL
MODEL      286
REMARK 921   NORMALIZED FREE ENERGY PREDICTED BY IDOCK:   -4.35 KCAL/MOL
REMARK 922        TOTAL FREE ENERGY PREDICTED BY IDOCK:   -7.01 KCAL/MOL
REMARK 923 INTER-LIGAND FREE ENERGY PREDICTED BY IDOCK:   -5.53 KCAL/MOL
REMARK 924 INTRA-LIGAND FREE ENERGY PREDICTED BY IDOCK:   -1.48 KCAL/MOL
REMARK 927      BINDING AFFINITY PREDICTED BY RF-SCORE:    0.00 PKD
ROOT
HETATM    1 CL   UNL     1     -12.800   6.718  71.660  1.00  0.00    -0.380 Cl 
HETATM    2  C   UNL     1     -11.354   6.780  70.729  1.00  0.00    -0.325 A  
HETATM    3  C   UNL     1     -11.351   6.285  69.429  1.00  0.00    -0.448 A  
HETATM    4  C   UNL     1     -10.166   6.298  68.689  1.00  0.00    -0.211 A  
HETATM    5  C   UNL     1      -8.978   6.811  69.237  1.00  0.00    -0.137 A  
HETATM    6  C   UNL     1      -9.005   7.323  70.540  1.00  0.00    -0.154 A  
HETATM    7  C   UNL     1     -10.190   7.305  71.283  1.00  0.00    -0.198 A  
ENDROOT
BRANCH   5   8
HETATM    8  C   UNL     1      -7.681   6.734  68.460  1.00  0.00    -0.113 C  
BRANCH   8   9
HETATM    9  C   UNL     1      -7.813   7.200  67.009  1.00  0.00    -0.108 C  
BRANCH   9  10
HETATM   10  C   UNL     1      -8.070   8.713  66.836  1.00  0.00    -0.098 C  
BRANCH  10  11
HETATM   11  S   UNL     1      -9.567   8.996  65.801  1.00  0.00    -0.150 SA 
BRANCH  11  12
HETATM   12  C   UNL     1     -10.486  10.485  66.264  1.00  0.00    -0.183 A  
HETATM   13 CL   UNL     1     -11.002  10.020  68.995  1.00  0.00    -0.251 Cl 
HETATM   14  C   UNL     1     -11.815  13.003  66.597  1.00  0.00    -0.455 A  
HETATM   15  C   UNL     1     -10.990  10.905  67.516  1.00  0.00    -0.293 A  
HETATM   16  C   UNL     1     -11.622  12.158  67.672  1.00  0.00    -0.413 A  
HETATM   17  C   UNL     1     -11.397  12.600  65.344  1.00  0.00    -0.348 A  
HETATM   18  C   UNL     1     -10.749  11.366  65.173  1.00  0.00    -0.269 A  
HETATM   19 CL   UNL     1     -10.328  11.011  63.516  1.00  0.00    -0.417 Cl 
ENDBRANCH  11  12
ENDBRANCH  10  11
BRANCH  10  20
HETATM   20  C   UNL     1      -6.912   9.671  66.475  1.00  0.00    -0.085 C  
BRANCH  20  21
HETATM   21  N   UNL     1      -6.812  10.853  67.321  1.00  0.00    -0.079 NA 
HETATM   22  C   UNL     1      -7.541  11.090  68.455  1.00  0.00    -0.108 A  
HETATM   23  N   UNL     1      -7.235  12.250  68.986  1.00  0.00    -0.068 NA 
HETATM   24  C   UNL     1      -6.058  11.965  67.077  1.00  0.00    -0.149 A  
HETATM   25  C   UNL     1      -6.309  12.803  68.139  1.00  0.00    -0.088 A  
ENDBRANCH  20  21
ENDBRANCH  10  20
ENDBRANCH   9  10
ENDBRANCH   8   9
ENDBRANCH   5   8
TORSDOF 7
ENDMDL
MODEL      287
REMARK 921   NORMALIZED FREE ENERGY PREDICTED BY IDOCK:   -4.34 KCAL/MOL
REMARK 922        TOTAL FREE ENERGY PREDICTED BY IDOCK:   -7.00 KCAL/MOL
REMARK 923 INTER-LIGAND FREE ENERGY PREDICTED BY IDOCK:   -5.78 KCAL/MOL
REMARK 924 INTRA-LIGAND FREE ENERGY PREDICTED BY IDOCK:   -1.21 KCAL/MOL
REMARK 927      BINDING AFFINITY PREDICTED BY RF-SCORE:    0.00 PKD
ROOT
HETATM    1 CL   UNL     1     -10.356  12.614  63.784  1.00  0.00    -0.416 Cl 
HETATM    2  C   UNL     1     -10.414  11.457  65.057  1.00  0.00    -0.303 A  
HETATM    3  C   UNL     1     -10.969  11.810  66.283  1.00  0.00    -0.346 A  
HETATM    4  C   UNL     1     -10.979  10.883  67.328  1.00  0.00    -0.355 A  
HETATM    5  C   UNL     1     -10.444   9.596  67.156  1.00  0.00    -0.317 A  
HETATM    6  C   UNL     1      -9.909   9.251  65.909  1.00  0.00    -0.335 A  
HETATM    7  C   UNL     1      -9.893  10.181  64.863  1.00  0.00    -0.390 A  
ENDROOT
BRANCH   5   8
HETATM    8  C   UNL     1     -10.376   8.632  68.322  1.00  0.00    -0.252 C  
BRANCH   8   9
HETATM    9  C   UNL     1      -9.301   8.996  69.348  1.00  0.00    -0.158 C  
BRANCH   9  10
HETATM   10  C   UNL     1      -8.721   7.798  70.131  1.00  0.00    -0.140 C  
BRANCH  10  11
HETATM   11  S   UNL     1      -7.346   7.018  69.185  1.00  0.00    -0.095 SA 
BRANCH  11  12
HETATM   12  C   UNL     1      -7.891   6.235  67.646  1.00  0.00    -0.106 A  
HETATM   13 CL   UNL     1      -9.521   4.147  68.607  1.00  0.00    -0.219 Cl 
HETATM   14  C   UNL     1      -8.578   5.355  65.006  1.00  0.00    -0.142 A  
HETATM   15  C   UNL     1      -8.779   5.158  67.424  1.00  0.00    -0.103 A  
HETATM   16  C   UNL     1      -9.128   4.750  66.118  1.00  0.00    -0.129 A  
HETATM   17  C   UNL     1      -7.654   6.366  65.182  1.00  0.00    -0.089 A  
HETATM   18  C   UNL     1      -7.310   6.799  66.472  1.00  0.00    -0.074 A  
HETATM   19 CL   UNL     1      -6.100   8.059  66.497  1.00  0.00    -0.048 Cl 
ENDBRANCH  11  12
ENDBRANCH  10  11
BRANCH  10  20
HETATM   20  C   UNL     1      -9.658   6.755  70.780  1.00  0.00    -0.168 C  
BRANCH  20  21
HETATM   21  N   UNL     1     -10.863   7.310  71.383  1.00  0.00    -0.229 NA 
HETATM   22  C   UNL     1     -12.149   7.003  71.032  1.00  0.00    -0.368 A  
HETATM   23  N   UNL     1     -13.016   7.680  71.747  1.00  0.00    -0.337 NA 
HETATM   24  C   UNL     1     -10.919   8.300  72.323  1.00  0.00    -0.348 A  
HETATM   25  C   UNL     1     -12.262   8.489  72.559  1.00  0.00    -0.315 A  
ENDBRANCH  20  21
ENDBRANCH  10  20
ENDBRANCH   9  10
ENDBRANCH   8   9
ENDBRANCH   5   8
TORSDOF 7
ENDMDL
MODEL      288
REMARK 921   NORMALIZED FREE ENERGY PREDICTED BY IDOCK:   -4.34 KCAL/MOL
REMARK 922        TOTAL FREE ENERGY PREDICTED BY IDOCK:   -6.99 KCAL/MOL
REMARK 923 INTER-LIGAND FREE ENERGY PREDICTED BY IDOCK:   -6.01 KCAL/MOL
REMARK 924 INTRA-LIGAND FREE ENERGY PREDICTED BY IDOCK:   -0.99 KCAL/MOL
REMARK 927      BINDING AFFINITY PREDICTED BY RF-SCORE:    0.00 PKD
ROOT
HETATM    1 CL   UNL     1      -5.769   7.261  62.489  1.00  0.00    -0.048 Cl 
HETATM    2  C   UNL     1      -6.649   8.444  63.376  1.00  0.00    -0.085 A  
HETATM    3  C   UNL     1      -5.963   9.385  64.138  1.00  0.00    -0.078 A  
HETATM    4  C   UNL     1      -6.679  10.319  64.890  1.00  0.00    -0.099 A  
HETATM    5  C   UNL     1      -8.084  10.327  64.882  1.00  0.00    -0.154 A  
HETATM    6  C   UNL     1      -8.758   9.386  64.094  1.00  0.00    -0.224 A  
HETATM    7  C   UNL     1      -8.041   8.446  63.345  1.00  0.00    -0.145 A  
ENDROOT
BRANCH   5   8
HETATM    8  C   UNL     1      -8.849  11.282  65.773  1.00  0.00    -0.154 C  
BRANCH   8   9
HETATM    9  C   UNL     1     -10.217  10.749  66.202  1.00  0.00    -0.308 C  
BRANCH   9  10
HETATM   10  C   UNL     1     -10.555  10.957  67.694  1.00  0.00    -0.224 C  
BRANCH  10  11
HETATM   11  S   UNL     1     -11.634  12.435  67.907  1.00  0.00    -0.364 SA 
BRANCH  11  12
HETATM   12  C   UNL     1     -10.995  13.912  67.079  1.00  0.00    -0.295 A  
HETATM   13 CL   UNL     1      -9.307  14.999  69.056  1.00  0.00    -0.207 Cl 
HETATM   14  C   UNL     1     -10.169  16.080  65.395  1.00  0.00    -0.333 A  
HETATM   15  C   UNL     1     -10.050  14.872  67.506  1.00  0.00    -0.228 A  
HETATM   16  C   UNL     1      -9.633  15.922  66.658  1.00  0.00    -0.265 A  
HETATM   17  C   UNL     1     -11.145  15.202  64.966  1.00  0.00    -0.428 A  
HETATM   18  C   UNL     1     -11.558  14.141  65.788  1.00  0.00    -0.343 A  
HETATM   19 CL   UNL     1     -12.825  13.160  65.094  1.00  0.00    -0.476 Cl 
ENDBRANCH  11  12
ENDBRANCH  10  11
BRANCH  10  20
HETATM   20  C   UNL     1      -9.449  10.871  68.770  1.00  0.00    -0.190 C  
BRANCH  20  21
HETATM   21  N   UNL     1      -9.815  10.116  69.962  1.00  0.00    -0.196 NA 
HETATM   22  C   UNL     1      -8.954   9.417  70.762  1.00  0.00    -0.191 A  
HETATM   23  N   UNL     1      -9.588   8.829  71.749  1.00  0.00    -0.287 NA 
HETATM   24  C   UNL     1     -11.081   9.891  70.423  1.00  0.00    -0.319 A  
HETATM   25  C   UNL     1     -10.914   9.120  71.551  1.00  0.00    -0.364 A  
ENDBRANCH  20  21
ENDBRANCH  10  20
ENDBRANCH   9  10
ENDBRANCH   8   9
ENDBRANCH   5   8
TORSDOF 7
ENDMDL
MODEL      289
REMARK 921   NORMALIZED FREE ENERGY PREDICTED BY IDOCK:   -4.33 KCAL/MOL
REMARK 922        TOTAL FREE ENERGY PREDICTED BY IDOCK:   -6.98 KCAL/MOL
REMARK 923 INTER-LIGAND FREE ENERGY PREDICTED BY IDOCK:   -6.01 KCAL/MOL
REMARK 924 INTRA-LIGAND FREE ENERGY PREDICTED BY IDOCK:   -0.97 KCAL/MOL
REMARK 927      BINDING AFFINITY PREDICTED BY RF-SCORE:    0.00 PKD
ROOT
HETATM    1 CL   UNL     1     -13.882  15.645  72.080  1.00  0.00    -0.557 Cl 
HETATM    2  C   UNL     1     -13.307  14.087  71.628  1.00  0.00    -0.367 A  
HETATM    3  C   UNL     1     -12.552  13.941  70.468  1.00  0.00    -0.382 A  
HETATM    4  C   UNL     1     -12.120  12.671  70.082  1.00  0.00    -0.368 A  
HETATM    5  C   UNL     1     -12.431  11.537  70.851  1.00  0.00    -0.464 A  
HETATM    6  C   UNL     1     -13.173  11.706  72.027  1.00  0.00    -0.443 A  
HETATM    7  C   UNL     1     -13.611  12.977  72.412  1.00  0.00    -0.628 A  
ENDROOT
BRANCH   5   8
HETATM    8  C   UNL     1     -12.038  10.156  70.374  1.00  0.00    -0.332 C  
BRANCH   8   9
HETATM    9  C   UNL     1     -10.575   9.809  70.656  1.00  0.00    -0.382 C  
BRANCH   9  10
HETATM   10  C   UNL     1      -9.623   9.986  69.453  1.00  0.00    -0.222 C  
BRANCH  10  11
HETATM   11  S   UNL     1     -10.266   9.077  67.986  1.00  0.00    -0.222 SA 
BRANCH  11  12
HETATM   12  C   UNL     1      -9.235   7.668  67.510  1.00  0.00    -0.132 A  
HETATM   13 CL   UNL     1      -7.895   8.672  65.243  1.00  0.00    -0.102 Cl 
HETATM   14  C   UNL     1      -7.721   5.260  67.151  1.00  0.00    -0.096 A  
HETATM   15  C   UNL     1      -8.275   7.534  66.481  1.00  0.00    -0.123 A  
HETATM   16  C   UNL     1      -7.518   6.351  66.330  1.00  0.00    -0.085 A  
HETATM   17  C   UNL     1      -8.697   5.327  68.126  1.00  0.00    -0.102 A  
HETATM   18  C   UNL     1      -9.445   6.501  68.304  1.00  0.00    -0.118 A  
HETATM   19 CL   UNL     1     -10.657   6.386  69.556  1.00  0.00    -0.274 Cl 
ENDBRANCH  11  12
ENDBRANCH  10  11
BRANCH  10  20
HETATM   20  C   UNL     1      -8.096   9.824  69.627  1.00  0.00    -0.154 C  
BRANCH  20  21
HETATM   21  N   UNL     1      -7.302  10.931  69.111  1.00  0.00    -0.116 NA 
HETATM   22  C   UNL     1      -6.021  11.239  69.481  1.00  0.00    -0.076 A  
HETATM   23  N   UNL     1      -5.583  12.303  68.851  1.00  0.00    -0.051 NA 
HETATM   24  C   UNL     1      -7.728  11.907  68.256  1.00  0.00    -0.127 A  
HETATM   25  C   UNL     1      -6.637  12.726  68.081  1.00  0.00    -0.088 A  
ENDBRANCH  20  21
ENDBRANCH  10  20
ENDBRANCH   9  10
ENDBRANCH   8   9
ENDBRANCH   5   8
TORSDOF 7
ENDMDL
MODEL      290
REMARK 921   NORMALIZED FREE ENERGY PREDICTED BY IDOCK:   -4.32 KCAL/MOL
REMARK 922        TOTAL FREE ENERGY PREDICTED BY IDOCK:   -6.97 KCAL/MOL
REMARK 923 INTER-LIGAND FREE ENERGY PREDICTED BY IDOCK:   -5.82 KCAL/MOL
REMARK 924 INTRA-LIGAND FREE ENERGY PREDICTED BY IDOCK:   -1.15 KCAL/MOL
REMARK 927      BINDING AFFINITY PREDICTED BY RF-SCORE:    0.00 PKD
ROOT
HETATM    1 CL   UNL     1     -12.130  13.702  67.175  1.00  0.00    -0.422 Cl 
HETATM    2  C   UNL     1     -11.298  12.451  68.014  1.00  0.00    -0.287 A  
HETATM    3  C   UNL     1      -9.971  12.175  67.700  1.00  0.00    -0.199 A  
HETATM    4  C   UNL     1      -9.310  11.132  68.353  1.00  0.00    -0.185 A  
HETATM    5  C   UNL     1      -9.963  10.362  69.330  1.00  0.00    -0.246 A  
HETATM    6  C   UNL     1     -11.293  10.667  69.648  1.00  0.00    -0.360 A  
HETATM    7  C   UNL     1     -11.958  11.708  68.990  1.00  0.00    -0.368 A  
ENDROOT
BRANCH   5   8
HETATM    8  C   UNL     1      -9.267   9.177  69.963  1.00  0.00    -0.209 C  
BRANCH   8   9
HETATM    9  C   UNL     1      -9.067   8.005  69.000  1.00  0.00    -0.144 C  
BRANCH   9  10
HETATM   10  C   UNL     1     -10.365   7.455  68.370  1.00  0.00    -0.194 C  
BRANCH  10  11
HETATM   11  S   UNL     1     -11.033   6.069  69.382  1.00  0.00    -0.363 SA 
BRANCH  11  12
HETATM   12  C   UNL     1     -10.536   6.150  71.121  1.00  0.00    -0.246 A  
HETATM   13 CL   UNL     1      -8.537   4.167  71.243  1.00  0.00    -0.113 Cl 
HETATM   14  C   UNL     1      -9.994   6.654  73.891  1.00  0.00    -0.317 A  
HETATM   15  C   UNL     1      -9.529   5.451  71.826  1.00  0.00    -0.147 A  
HETATM   16  C   UNL     1      -9.256   5.726  73.183  1.00  0.00    -0.136 A  
HETATM   17  C   UNL     1     -11.031   7.309  73.257  1.00  0.00    -0.355 A  
HETATM   18  C   UNL     1     -11.305   7.063  71.902  1.00  0.00    -0.257 A  
HETATM   19 CL   UNL     1     -12.674   7.954  71.284  1.00  0.00    -0.287 Cl 
ENDBRANCH  11  12
ENDBRANCH  10  11
BRANCH  10  20
HETATM   20  C   UNL     1     -10.443   7.171  66.853  1.00  0.00    -0.294 C  
BRANCH  20  21
HETATM   21  N   UNL     1      -9.726   5.980  66.418  1.00  0.00    -0.147 NA 
HETATM   22  C   UNL     1      -8.369   5.806  66.448  1.00  0.00    -0.113 A  
HETATM   23  N   UNL     1      -8.025   4.632  65.974  1.00  0.00    -0.102 NA 
HETATM   24  C   UNL     1     -10.267   4.881  65.813  1.00  0.00    -0.180 A  
HETATM   25  C   UNL     1      -9.200   4.044  65.579  1.00  0.00    -0.150 A  
ENDBRANCH  20  21
ENDBRANCH  10  20
ENDBRANCH   9  10
ENDBRANCH   8   9
ENDBRANCH   5   8
TORSDOF 7
ENDMDL
MODEL      291
REMARK 921   NORMALIZED FREE ENERGY PREDICTED BY IDOCK:   -4.32 KCAL/MOL
REMARK 922        TOTAL FREE ENERGY PREDICTED BY IDOCK:   -6.97 KCAL/MOL
REMARK 923 INTER-LIGAND FREE ENERGY PREDICTED BY IDOCK:   -6.12 KCAL/MOL
REMARK 924 INTRA-LIGAND FREE ENERGY PREDICTED BY IDOCK:   -0.85 KCAL/MOL
REMARK 927      BINDING AFFINITY PREDICTED BY RF-SCORE:    0.00 PKD
ROOT
HETATM    1 CL   UNL     1     -10.641   3.641  63.901  1.00  0.00    -0.275 Cl 
HETATM    2  C   UNL     1      -9.995   4.664  65.125  1.00  0.00    -0.067 A  
HETATM    3  C   UNL     1     -10.817   5.110  66.155  1.00  0.00    -0.163 A  
HETATM    4  C   UNL     1     -10.302   5.972  67.124  1.00  0.00    -0.284 A  
HETATM    5  C   UNL     1      -8.962   6.391  67.079  1.00  0.00    -0.119 A  
HETATM    6  C   UNL     1      -8.143   5.916  66.047  1.00  0.00    -0.115 A  
HETATM    7  C   UNL     1      -8.660   5.056  65.072  1.00  0.00    -0.149 A  
ENDROOT
BRANCH   5   8
HETATM    8  C   UNL     1      -8.439   7.399  68.081  1.00  0.00    -0.124 C  
BRANCH   8   9
HETATM    9  C   UNL     1      -9.495   8.411  68.530  1.00  0.00    -0.149 C  
BRANCH   9  10
HETATM   10  C   UNL     1      -8.988   9.478  69.525  1.00  0.00    -0.181 C  
BRANCH  10  11
HETATM   11  S   UNL     1      -9.554   9.084  71.233  1.00  0.00    -0.274 SA 
BRANCH  11  12
HETATM   12  C   UNL     1     -11.332   8.760  71.340  1.00  0.00    -0.294 A  
HETATM   13 CL   UNL     1     -12.396  11.369  71.337  1.00  0.00    -0.337 Cl 
HETATM   14  C   UNL     1     -14.038   7.818  71.429  1.00  0.00    -0.458 A  
HETATM   15  C   UNL     1     -12.433   9.646  71.322  1.00  0.00    -0.355 A  
HETATM   16  C   UNL     1     -13.762   9.169  71.342  1.00  0.00    -0.326 A  
HETATM   17  C   UNL     1     -12.989   6.925  71.516  1.00  0.00    -0.362 A  
HETATM   18  C   UNL     1     -11.662   7.379  71.478  1.00  0.00    -0.284 A  
HETATM   19 CL   UNL     1     -10.473   6.109  71.640  1.00  0.00    -0.257 Cl 
ENDBRANCH  11  12
ENDBRANCH  10  11
BRANCH  10  20
HETATM   20  C   UNL     1      -9.109  10.983  69.193  1.00  0.00     0.010 C  
BRANCH  20  21
HETATM   21  N   UNL     1     -10.074  11.301  68.148  1.00  0.00    -0.177 NA 
HETATM   22  C   UNL     1     -11.429  11.400  68.312  1.00  0.00    -0.299 A  
HETATM   23  N   UNL     1     -12.028  11.683  67.180  1.00  0.00    -0.574 NA 
HETATM   24  C   UNL     1      -9.808  11.452  66.817  1.00  0.00    -0.206 A  
HETATM   25  C   UNL     1     -11.028  11.722  66.241  1.00  0.00    -0.300 A  
ENDBRANCH  20  21
ENDBRANCH  10  20
ENDBRANCH   9  10
ENDBRANCH   8   9
ENDBRANCH   5   8
TORSDOF 7
ENDMDL
MODEL      292
REMARK 921   NORMALIZED FREE ENERGY PREDICTED BY IDOCK:   -4.32 KCAL/MOL
REMARK 922        TOTAL FREE ENERGY PREDICTED BY IDOCK:   -6.97 KCAL/MOL
REMARK 923 INTER-LIGAND FREE ENERGY PREDICTED BY IDOCK:   -6.15 KCAL/MOL
REMARK 924 INTRA-LIGAND FREE ENERGY PREDICTED BY IDOCK:   -0.82 KCAL/MOL
REMARK 927      BINDING AFFINITY PREDICTED BY RF-SCORE:    0.00 PKD
ROOT
HETATM    1 CL   UNL     1     -11.349  16.224  64.553  1.00  0.00    -0.371 Cl 
HETATM    2  C   UNL     1     -11.228  14.682  65.308  1.00  0.00    -0.358 A  
HETATM    3  C   UNL     1     -10.010  14.268  65.838  1.00  0.00    -0.340 A  
HETATM    4  C   UNL     1      -9.904  13.000  66.414  1.00  0.00    -0.270 A  
HETATM    5  C   UNL     1     -11.012  12.139  66.473  1.00  0.00    -0.325 A  
HETATM    6  C   UNL     1     -12.235  12.580  65.953  1.00  0.00    -0.310 A  
HETATM    7  C   UNL     1     -12.341  13.848  65.371  1.00  0.00    -0.494 A  
ENDROOT
BRANCH   5   8
HETATM    8  C   UNL     1     -10.862  10.733  67.015  1.00  0.00    -0.311 C  
BRANCH   8   9
HETATM    9  C   UNL     1     -11.222  10.611  68.496  1.00  0.00    -0.342 C  
BRANCH   9  10
HETATM   10  C   UNL     1     -10.396   9.569  69.280  1.00  0.00    -0.208 C  
BRANCH  10  11
HETATM   11  S   UNL     1     -11.456   8.709  70.517  1.00  0.00    -0.125 SA 
BRANCH  11  12
HETATM   12  C   UNL     1     -10.803   7.097  71.021  1.00  0.00    -0.240 A  
HETATM   13 CL   UNL     1     -10.402   7.474  73.784  1.00  0.00    -0.318 Cl 
HETATM   14  C   UNL     1      -9.890   4.407  71.408  1.00  0.00    -0.262 A  
HETATM   15  C   UNL     1     -10.449   6.603  72.297  1.00  0.00    -0.205 A  
HETATM   16  C   UNL     1     -10.024   5.269  72.478  1.00  0.00    -0.208 A  
HETATM   17  C   UNL     1     -10.161   4.871  70.136  1.00  0.00    -0.332 A  
HETATM   18  C   UNL     1     -10.603   6.189  69.939  1.00  0.00    -0.265 A  
HETATM   19 CL   UNL     1     -10.858   6.607  68.262  1.00  0.00    -0.308 Cl 
ENDBRANCH  11  12
ENDBRANCH  10  11
BRANCH  10  20
HETATM   20  C   UNL     1      -9.003   9.931  69.845  1.00  0.00    -0.202 C  
BRANCH  20  21
HETATM   21  N   UNL     1      -8.012   8.867  69.752  1.00  0.00    -0.095 NA 
HETATM   22  C   UNL     1      -7.641   8.215  68.608  1.00  0.00    -0.103 A  
HETATM   23  N   UNL     1      -6.738   7.296  68.852  1.00  0.00    -0.058 NA 
HETATM   24  C   UNL     1      -7.362   8.270  70.794  1.00  0.00    -0.056 A  
HETATM   25  C   UNL     1      -6.552   7.323  70.211  1.00  0.00    -0.047 A  
ENDBRANCH  20  21
ENDBRANCH  10  20
ENDBRANCH   9  10
ENDBRANCH   8   9
ENDBRANCH   5   8
TORSDOF 7
ENDMDL
MODEL      293
REMARK 921   NORMALIZED FREE ENERGY PREDICTED BY IDOCK:   -4.32 KCAL/MOL
REMARK 922        TOTAL FREE ENERGY PREDICTED BY IDOCK:   -6.96 KCAL/MOL
REMARK 923 INTER-LIGAND FREE ENERGY PREDICTED BY IDOCK:   -5.91 KCAL/MOL
REMARK 924 INTRA-LIGAND FREE ENERGY PREDICTED BY IDOCK:   -1.05 KCAL/MOL
REMARK 927      BINDING AFFINITY PREDICTED BY RF-SCORE:    0.00 PKD
ROOT
HETATM    1 CL   UNL     1      -7.487  20.648  67.040  1.00  0.00    -0.363 Cl 
HETATM    2  C   UNL     1      -8.378  19.271  66.520  1.00  0.00    -0.319 A  
HETATM    3  C   UNL     1      -9.754  19.371  66.335  1.00  0.00    -0.460 A  
HETATM    4  C   UNL     1     -10.482  18.243  65.953  1.00  0.00    -0.324 A  
HETATM    5  C   UNL     1      -9.845  17.008  65.744  1.00  0.00    -0.129 A  
HETATM    6  C   UNL     1      -8.457  16.931  65.914  1.00  0.00    -0.025 A  
HETATM    7  C   UNL     1      -7.727  18.060  66.303  1.00  0.00    -0.293 A  
ENDROOT
BRANCH   5   8
HETATM    8  C   UNL     1     -10.656  15.772  65.421  1.00  0.00    -0.441 C  
BRANCH   8   9
HETATM    9  C   UNL     1     -11.086  14.987  66.662  1.00  0.00    -0.326 C  
BRANCH   9  10
HETATM   10  C   UNL     1     -10.737  13.483  66.630  1.00  0.00    -0.282 C  
BRANCH  10  11
HETATM   11  S   UNL     1      -9.754  13.021  68.117  1.00  0.00    -0.225 SA 
BRANCH  11  12
HETATM   12  C   UNL     1      -8.321  14.094  68.388  1.00  0.00    -0.161 A  
HETATM   13 CL   UNL     1      -6.259  12.628  67.146  1.00  0.00    -0.088 Cl 
HETATM   14  C   UNL     1      -6.351  16.099  68.952  1.00  0.00    -0.129 A  
HETATM   15  C   UNL     1      -6.980  13.966  67.961  1.00  0.00    -0.141 A  
HETATM   16  C   UNL     1      -6.024  14.972  68.224  1.00  0.00    -0.124 A  
HETATM   17  C   UNL     1      -7.634  16.229  69.444  1.00  0.00    -0.126 A  
HETATM   18  C   UNL     1      -8.603  15.249  69.176  1.00  0.00    -0.235 A  
HETATM   19 CL   UNL     1     -10.154  15.566  69.913  1.00  0.00    -0.299 Cl 
ENDBRANCH  11  12
ENDBRANCH  10  11
BRANCH  10  20
HETATM   20  C   UNL     1     -10.199  12.828  65.338  1.00  0.00    -0.283 C  
BRANCH  20  21
HETATM   21  N   UNL     1      -9.989  11.388  65.426  1.00  0.00    -0.234 NA 
HETATM   22  C   UNL     1     -10.536  10.555  66.364  1.00  0.00    -0.192 A  
HETATM   23  N   UNL     1     -10.144   9.315  66.189  1.00  0.00    -0.276 NA 
HETATM   24  C   UNL     1      -9.137  10.644  64.661  1.00  0.00    -0.211 A  
HETATM   25  C   UNL     1      -9.276   9.357  65.128  1.00  0.00    -0.225 A  
ENDBRANCH  20  21
ENDBRANCH  10  20
ENDBRANCH   9  10
ENDBRANCH   8   9
ENDBRANCH   5   8
TORSDOF 7
ENDMDL
MODEL      294
REMARK 921   NORMALIZED FREE ENERGY PREDICTED BY IDOCK:   -4.31 KCAL/MOL
REMARK 922        TOTAL FREE ENERGY PREDICTED BY IDOCK:   -6.95 KCAL/MOL
REMARK 923 INTER-LIGAND FREE ENERGY PREDICTED BY IDOCK:   -6.32 KCAL/MOL
REMARK 924 INTRA-LIGAND FREE ENERGY PREDICTED BY IDOCK:   -0.62 KCAL/MOL
REMARK 927      BINDING AFFINITY PREDICTED BY RF-SCORE:    0.00 PKD
ROOT
HETATM    1 CL   UNL     1     -10.181  20.342  66.779  1.00  0.00    -0.550 Cl 
HETATM    2  C   UNL     1      -9.638  18.751  67.147  1.00  0.00    -0.300 A  
HETATM    3  C   UNL     1      -8.295  18.426  66.981  1.00  0.00    -0.257 A  
HETATM    4  C   UNL     1      -7.864  17.123  67.241  1.00  0.00    -0.200 A  
HETATM    5  C   UNL     1      -8.765  16.137  67.676  1.00  0.00    -0.184 A  
HETATM    6  C   UNL     1     -10.109  16.488  67.858  1.00  0.00    -0.256 A  
HETATM    7  C   UNL     1     -10.543  17.791  67.592  1.00  0.00    -0.385 A  
ENDROOT
BRANCH   5   8
HETATM    8  C   UNL     1      -8.304  14.708  67.865  1.00  0.00    -0.153 C  
BRANCH   8   9
HETATM    9  C   UNL     1      -8.979  13.721  66.910  1.00  0.00    -0.234 C  
BRANCH   9  10
HETATM   10  C   UNL     1      -9.855  12.651  67.597  1.00  0.00    -0.210 C  
BRANCH  10  11
HETATM   11  S   UNL     1      -9.009  11.015  67.570  1.00  0.00    -0.138 SA 
BRANCH  11  12
HETATM   12  C   UNL     1      -9.245  10.063  69.091  1.00  0.00    -0.190 A  
HETATM   13 CL   UNL     1     -12.033   9.657  69.093  1.00  0.00     0.524 Cl 
HETATM   14  C   UNL     1      -9.170   8.518  71.505  1.00  0.00    -0.288 A  
HETATM   15  C   UNL     1     -10.410   9.489  69.648  1.00  0.00    -0.221 A  
HETATM   16  C   UNL     1     -10.357   8.710  70.825  1.00  0.00    -0.249 A  
HETATM   17  C   UNL     1      -8.021   9.118  71.030  1.00  0.00    -0.166 A  
HETATM   18  C   UNL     1      -8.052   9.880  69.851  1.00  0.00    -0.188 A  
HETATM   19 CL   UNL     1      -6.513  10.591  69.427  1.00  0.00    -0.054 Cl 
ENDBRANCH  11  12
ENDBRANCH  10  11
BRANCH  10  20
HETATM   20  C   UNL     1     -11.363  12.543  67.274  1.00  0.00    -0.315 C  
BRANCH  20  21
HETATM   21  N   UNL     1     -11.691  12.638  65.857  1.00  0.00    -0.398 NA 
HETATM   22  C   UNL     1     -12.734  13.344  65.323  1.00  0.00    -0.422 A  
HETATM   23  N   UNL     1     -12.776  13.221  64.017  1.00  0.00    -0.667 NA 
HETATM   24  C   UNL     1     -11.086  11.962  64.837  1.00  0.00    -0.307 A  
HETATM   25  C   UNL     1     -11.752  12.365  63.702  1.00  0.00    -0.514 A  
ENDBRANCH  20  21
ENDBRANCH  10  20
ENDBRANCH   9  10
ENDBRANCH   8   9
ENDBRANCH   5   8
TORSDOF 7
ENDMDL
MODEL      295
REMARK 921   NORMALIZED FREE ENERGY PREDICTED BY IDOCK:   -4.30 KCAL/MOL
REMARK 922        TOTAL FREE ENERGY PREDICTED BY IDOCK:   -6.94 KCAL/MOL
REMARK 923 INTER-LIGAND FREE ENERGY PREDICTED BY IDOCK:   -5.37 KCAL/MOL
REMARK 924 INTRA-LIGAND FREE ENERGY PREDICTED BY IDOCK:   -1.57 KCAL/MOL
REMARK 927      BINDING AFFINITY PREDICTED BY RF-SCORE:    0.00 PKD
ROOT
HETATM    1 CL   UNL     1      -7.733   7.885  67.558  1.00  0.00    -0.115 Cl 
HETATM    2  C   UNL     1      -7.803   9.598  67.713  1.00  0.00    -0.094 A  
HETATM    3  C   UNL     1      -7.201  10.401  66.749  1.00  0.00    -0.109 A  
HETATM    4  C   UNL     1      -7.223  11.789  66.897  1.00  0.00    -0.103 A  
HETATM    5  C   UNL     1      -7.852  12.388  68.002  1.00  0.00    -0.141 A  
HETATM    6  C   UNL     1      -8.470  11.565  68.951  1.00  0.00     0.011 A  
HETATM    7  C   UNL     1      -8.443  10.173  68.807  1.00  0.00    -0.131 A  
ENDROOT
BRANCH   5   8
HETATM    8  C   UNL     1      -7.788  13.888  68.200  1.00  0.00    -0.147 C  
BRANCH   8   9
HETATM    9  C   UNL     1      -7.995  14.680  66.907  1.00  0.00     0.018 C  
BRANCH   9  10
HETATM   10  C   UNL     1      -8.734  16.024  67.083  1.00  0.00    -0.190 C  
BRANCH  10  11
HETATM   11  S   UNL     1     -10.554  15.781  66.932  1.00  0.00    -0.303 SA 
BRANCH  11  12
HETATM   12  C   UNL     1     -11.199  14.507  68.044  1.00  0.00    -0.292 A  
HETATM   13 CL   UNL     1     -11.438  15.923  70.468  1.00  0.00    -0.377 Cl 
HETATM   14  C   UNL     1     -12.282  12.244  69.433  1.00  0.00    -0.120 A  
HETATM   15  C   UNL     1     -11.595  14.580  69.399  1.00  0.00    -0.303 A  
HETATM   16  C   UNL     1     -12.149  13.465  70.065  1.00  0.00    -0.404 A  
HETATM   17  C   UNL     1     -11.845  12.114  68.130  1.00  0.00    -0.362 A  
HETATM   18  C   UNL     1     -11.309  13.216  67.445  1.00  0.00    -0.306 A  
HETATM   19 CL   UNL     1     -10.776  12.851  65.823  1.00  0.00    -0.286 Cl 
ENDBRANCH  11  12
ENDBRANCH  10  11
BRANCH  10  20
HETATM   20  C   UNL     1      -8.244  17.293  66.348  1.00  0.00    -0.282 C  
BRANCH  20  21
HETATM   21  N   UNL     1      -7.955  18.427  67.217  1.00  0.00    -0.233 NA 
HETATM   22  C   UNL     1      -7.842  18.383  68.580  1.00  0.00    -0.306 A  
HETATM   23  N   UNL     1      -7.592  19.571  69.078  1.00  0.00    -0.359 NA 
HETATM   24  C   UNL     1      -7.850  19.734  66.837  1.00  0.00    -0.284 A  
HETATM   25  C   UNL     1      -7.591  20.421  68.001  1.00  0.00    -0.153 A  
ENDBRANCH  20  21
ENDBRANCH  10  20
ENDBRANCH   9  10
ENDBRANCH   8   9
ENDBRANCH   5   8
TORSDOF 7
ENDMDL
MODEL      296
REMARK 921   NORMALIZED FREE ENERGY PREDICTED BY IDOCK:   -4.29 KCAL/MOL
REMARK 922        TOTAL FREE ENERGY PREDICTED BY IDOCK:   -6.93 KCAL/MOL
REMARK 923 INTER-LIGAND FREE ENERGY PREDICTED BY IDOCK:   -5.85 KCAL/MOL
REMARK 924 INTRA-LIGAND FREE ENERGY PREDICTED BY IDOCK:   -1.08 KCAL/MOL
REMARK 927      BINDING AFFINITY PREDICTED BY RF-SCORE:    0.00 PKD
ROOT
HETATM    1 CL   UNL     1      -5.574   6.824  62.860  1.00  0.00    -0.031 Cl 
HETATM    2  C   UNL     1      -6.402   7.989  63.818  1.00  0.00    -0.067 A  
HETATM    3  C   UNL     1      -5.680   8.989  64.463  1.00  0.00    -0.064 A  
HETATM    4  C   UNL     1      -6.349   9.909  65.273  1.00  0.00    -0.099 A  
HETATM    5  C   UNL     1      -7.743   9.845  65.440  1.00  0.00    -0.130 A  
HETATM    6  C   UNL     1      -8.455   8.844  64.767  1.00  0.00    -0.193 A  
HETATM    7  C   UNL     1      -7.785   7.918  63.960  1.00  0.00    -0.133 A  
ENDROOT
BRANCH   5   8
HETATM    8  C   UNL     1      -8.444  10.789  66.393  1.00  0.00    -0.158 C  
BRANCH   8   9
HETATM    9  C   UNL     1      -9.969  10.755  66.269  1.00  0.00    -0.272 C  
BRANCH   9  10
HETATM   10  C   UNL     1     -10.726  10.649  67.610  1.00  0.00    -0.267 C  
BRANCH  10  11
HETATM   11  S   UNL     1     -11.660  12.202  67.944  1.00  0.00    -0.341 SA 
BRANCH  11  12
HETATM   12  C   UNL     1     -11.420  13.468  66.673  1.00  0.00    -0.339 A  
HETATM   13 CL   UNL     1     -13.135  12.565  64.628  1.00  0.00    -0.225 Cl 
HETATM   14  C   UNL     1     -10.821  15.702  64.978  1.00  0.00    -0.468 A  
HETATM   15  C   UNL     1     -12.036  13.637  65.412  1.00  0.00    -0.378 A  
HETATM   16  C   UNL     1     -11.750  14.754  64.597  1.00  0.00    -0.426 A  
HETATM   17  C   UNL     1     -10.148  15.537  66.173  1.00  0.00    -0.329 A  
HETATM   18  C   UNL     1     -10.433  14.443  67.005  1.00  0.00    -0.268 A  
HETATM   19 CL   UNL     1      -9.456  14.381  68.452  1.00  0.00    -0.203 Cl 
ENDBRANCH  11  12
ENDBRANCH  10  11
BRANCH  10  20
HETATM   20  C   UNL     1     -10.021  10.100  68.871  1.00  0.00    -0.199 C  
BRANCH  20  21
HETATM   21  N   UNL     1     -10.527   8.818  69.343  1.00  0.00    -0.221 NA 
HETATM   22  C   UNL     1     -11.258   8.615  70.481  1.00  0.00    -0.241 A  
HETATM   23  N   UNL     1     -11.551   7.347  70.643  1.00  0.00    -0.288 NA 
HETATM   24  C   UNL     1     -10.274   7.593  68.793  1.00  0.00    -0.199 A  
HETATM   25  C   UNL     1     -10.947   6.700  69.595  1.00  0.00    -0.313 A  
ENDBRANCH  20  21
ENDBRANCH  10  20
ENDBRANCH   9  10
ENDBRANCH   8   9
ENDBRANCH   5   8
TORSDOF 7
ENDMDL
MODEL      297
REMARK 921   NORMALIZED FREE ENERGY PREDICTED BY IDOCK:   -4.29 KCAL/MOL
REMARK 922        TOTAL FREE ENERGY PREDICTED BY IDOCK:   -6.93 KCAL/MOL
REMARK 923 INTER-LIGAND FREE ENERGY PREDICTED BY IDOCK:   -5.98 KCAL/MOL
REMARK 924 INTRA-LIGAND FREE ENERGY PREDICTED BY IDOCK:   -0.95 KCAL/MOL
REMARK 927      BINDING AFFINITY PREDICTED BY RF-SCORE:    0.00 PKD
ROOT
HETATM    1 CL   UNL     1     -11.799  16.124  68.486  1.00  0.00    -0.194 Cl 
HETATM    2  C   UNL     1     -11.789  14.459  68.917  1.00  0.00    -0.320 A  
HETATM    3  C   UNL     1     -12.288  14.065  70.155  1.00  0.00    -0.409 A  
HETATM    4  C   UNL     1     -12.242  12.718  70.521  1.00  0.00    -0.389 A  
HETATM    5  C   UNL     1     -11.705  11.752  69.653  1.00  0.00    -0.413 A  
HETATM    6  C   UNL     1     -11.225  12.164  68.403  1.00  0.00    -0.314 A  
HETATM    7  C   UNL     1     -11.266  13.514  68.038  1.00  0.00    -0.300 A  
ENDROOT
BRANCH   5   8
HETATM    8  C   UNL     1     -11.574  10.311  70.098  1.00  0.00    -0.376 C  
BRANCH   8   9
HETATM    9  C   UNL     1     -10.140   9.912  70.452  1.00  0.00    -0.258 C  
BRANCH   9  10
HETATM   10  C   UNL     1     -10.015   8.624  71.294  1.00  0.00    -0.246 C  
BRANCH  10  11
HETATM   11  S   UNL     1      -8.931   7.403  70.443  1.00  0.00    -0.150 SA 
BRANCH  11  12
HETATM   12  C   UNL     1      -8.145   8.062  68.951  1.00  0.00    -0.124 A  
HETATM   13 CL   UNL     1     -10.304   8.126  67.141  1.00  0.00    -0.364 Cl 
HETATM   14  C   UNL     1      -6.551   9.195  66.855  1.00  0.00    -0.068 A  
HETATM   15  C   UNL     1      -8.693   8.395  67.691  1.00  0.00    -0.137 A  
HETATM   16  C   UNL     1      -7.902   8.975  66.675  1.00  0.00    -0.100 A  
HETATM   17  C   UNL     1      -5.964   8.822  68.048  1.00  0.00    -0.046 A  
HETATM   18  C   UNL     1      -6.738   8.262  69.077  1.00  0.00    -0.048 A  
HETATM   19 CL   UNL     1      -5.818   7.818  70.493  1.00  0.00    -0.030 Cl 
ENDBRANCH  11  12
ENDBRANCH  10  11
BRANCH  10  20
HETATM   20  C   UNL     1     -11.267   7.969  71.919  1.00  0.00    -0.280 C  
BRANCH  20  21
HETATM   21  N   UNL     1     -11.000   6.776  72.712  1.00  0.00    -0.260 NA 
HETATM   22  C   UNL     1     -11.399   5.503  72.404  1.00  0.00    -0.234 A  
HETATM   23  N   UNL     1     -11.019   4.647  73.322  1.00  0.00    -0.276 NA 
HETATM   24  C   UNL     1     -10.401   6.733  73.938  1.00  0.00    -0.368 A  
HETATM   25  C   UNL     1     -10.392   5.401  74.282  1.00  0.00    -0.276 A  
ENDBRANCH  20  21
ENDBRANCH  10  20
ENDBRANCH   9  10
ENDBRANCH   8   9
ENDBRANCH   5   8
TORSDOF 7
ENDMDL
MODEL      298
REMARK 921   NORMALIZED FREE ENERGY PREDICTED BY IDOCK:   -4.28 KCAL/MOL
REMARK 922        TOTAL FREE ENERGY PREDICTED BY IDOCK:   -6.92 KCAL/MOL
REMARK 923 INTER-LIGAND FREE ENERGY PREDICTED BY IDOCK:   -5.87 KCAL/MOL
REMARK 924 INTRA-LIGAND FREE ENERGY PREDICTED BY IDOCK:   -1.05 KCAL/MOL
REMARK 927      BINDING AFFINITY PREDICTED BY RF-SCORE:    0.00 PKD
ROOT
HETATM    1 CL   UNL     1     -11.780  15.767  64.205  1.00  0.00    -0.297 Cl 
HETATM    2  C   UNL     1     -11.226  14.223  64.725  1.00  0.00    -0.385 A  
HETATM    3  C   UNL     1     -10.327  14.134  65.784  1.00  0.00    -0.338 A  
HETATM    4  C   UNL     1      -9.847  12.883  66.178  1.00  0.00    -0.270 A  
HETATM    5  C   UNL     1     -10.264  11.711  65.525  1.00  0.00    -0.302 A  
HETATM    6  C   UNL     1     -11.185  11.818  64.475  1.00  0.00    -0.368 A  
HETATM    7  C   UNL     1     -11.662  13.071  64.076  1.00  0.00    -0.497 A  
ENDROOT
BRANCH   5   8
HETATM    8  C   UNL     1      -9.666  10.372  65.899  1.00  0.00    -0.272 C  
BRANCH   8   9
HETATM    9  C   UNL     1     -10.489   9.609  66.939  1.00  0.00    -0.282 C  
BRANCH   9  10
HETATM   10  C   UNL     1     -10.165   9.961  68.407  1.00  0.00    -0.178 C  
BRANCH  10  11
HETATM   11  S   UNL     1      -8.363  10.287  68.606  1.00  0.00    -0.129 SA 
BRANCH  11  12
HETATM   12  C   UNL     1      -7.320   8.942  67.989  1.00  0.00    -0.084 A  
HETATM   13 CL   UNL     1      -8.118   6.794  69.629  1.00  0.00    -0.124 Cl 
HETATM   14  C   UNL     1      -5.568   7.092  66.676  1.00  0.00    -0.023 A  
HETATM   15  C   UNL     1      -7.269   7.577  68.349  1.00  0.00    -0.093 A  
HETATM   16  C   UNL     1      -6.418   6.670  67.678  1.00  0.00    -0.045 A  
HETATM   17  C   UNL     1      -5.540   8.431  66.341  1.00  0.00    -0.035 A  
HETATM   18  C   UNL     1      -6.392   9.344  66.983  1.00  0.00    -0.066 A  
HETATM   19 CL   UNL     1      -6.188  10.996  66.455  1.00  0.00    -0.129 Cl 
ENDBRANCH  11  12
ENDBRANCH  10  11
BRANCH  10  20
HETATM   20  C   UNL     1     -10.744   9.116  69.564  1.00  0.00    -0.215 C  
BRANCH  20  21
HETATM   21  N   UNL     1     -11.741   9.800  70.378  1.00  0.00    -0.254 NA 
HETATM   22  C   UNL     1     -12.034  11.136  70.332  1.00  0.00    -0.378 A  
HETATM   23  N   UNL     1     -12.966  11.452  71.198  1.00  0.00    -0.316 NA 
HETATM   24  C   UNL     1     -12.476   9.253  71.391  1.00  0.00    -0.341 A  
HETATM   25  C   UNL     1     -13.254  10.286  71.862  1.00  0.00    -0.445 A  
ENDBRANCH  20  21
ENDBRANCH  10  20
ENDBRANCH   9  10
ENDBRANCH   8   9
ENDBRANCH   5   8
TORSDOF 7
ENDMDL
MODEL      299
REMARK 921   NORMALIZED FREE ENERGY PREDICTED BY IDOCK:   -4.28 KCAL/MOL
REMARK 922        TOTAL FREE ENERGY PREDICTED BY IDOCK:   -6.91 KCAL/MOL
REMARK 923 INTER-LIGAND FREE ENERGY PREDICTED BY IDOCK:   -4.72 KCAL/MOL
REMARK 924 INTRA-LIGAND FREE ENERGY PREDICTED BY IDOCK:   -2.19 KCAL/MOL
REMARK 927      BINDING AFFINITY PREDICTED BY RF-SCORE:    0.00 PKD
ROOT
HETATM    1 CL   UNL     1      -6.268   8.510  72.291  1.00  0.00    -0.068 Cl 
HETATM    2  C   UNL     1      -7.428   8.810  71.056  1.00  0.00    -0.096 A  
HETATM    3  C   UNL     1      -7.351   9.981  70.308  1.00  0.00    -0.152 A  
HETATM    4  C   UNL     1      -8.317  10.241  69.333  1.00  0.00    -0.169 A  
HETATM    5  C   UNL     1      -9.362   9.334  69.092  1.00  0.00    -0.157 A  
HETATM    6  C   UNL     1      -9.413   8.152  69.840  1.00  0.00    -0.160 A  
HETATM    7  C   UNL     1      -8.449   7.892  70.820  1.00  0.00    -0.124 A  
ENDROOT
BRANCH   5   8
HETATM    8  C   UNL     1     -10.455   9.671  68.099  1.00  0.00    -0.266 C  
BRANCH   8   9
HETATM    9  C   UNL     1     -10.382   8.847  66.813  1.00  0.00    -0.317 C  
BRANCH   9  10
HETATM   10  C   UNL     1      -9.800   9.598  65.595  1.00  0.00    -0.299 C  
BRANCH  10  11
HETATM   11  S   UNL     1      -8.304   8.729  64.961  1.00  0.00    -0.175 SA 
BRANCH  11  12
HETATM   12  C   UNL     1      -7.323   7.948  66.267  1.00  0.00    -0.075 A  
HETATM   13 CL   UNL     1      -5.480   9.983  66.901  1.00  0.00    -0.045 Cl 
HETATM   14  C   UNL     1      -6.086   6.392  68.332  1.00  0.00    -0.024 A  
HETATM   15  C   UNL     1      -6.267   8.457  67.056  1.00  0.00    -0.056 A  
HETATM   16  C   UNL     1      -5.682   7.689  68.086  1.00  0.00    -0.028 A  
HETATM   17  C   UNL     1      -7.070   5.835  67.539  1.00  0.00    -0.074 A  
HETATM   18  C   UNL     1      -7.676   6.590  66.522  1.00  0.00    -0.099 A  
HETATM   19 CL   UNL     1      -8.868   5.707  65.600  1.00  0.00    -0.154 Cl 
ENDBRANCH  11  12
ENDBRANCH  10  11
BRANCH  10  20
HETATM   20  C   UNL     1      -9.623  11.133  65.629  1.00  0.00    -0.224 C  
BRANCH  20  21
HETATM   21  N   UNL     1     -10.663  11.881  64.935  1.00  0.00    -0.289 NA 
HETATM   22  C   UNL     1     -10.569  12.404  63.674  1.00  0.00    -0.445 A  
HETATM   23  N   UNL     1     -11.666  13.038  63.335  1.00  0.00    -0.486 NA 
HETATM   24  C   UNL     1     -11.862  12.278  65.456  1.00  0.00    -0.359 A  
HETATM   25  C   UNL     1     -12.481  12.964  64.436  1.00  0.00    -0.375 A  
ENDBRANCH  20  21
ENDBRANCH  10  20
ENDBRANCH   9  10
ENDBRANCH   8   9
ENDBRANCH   5   8
TORSDOF 7
ENDMDL
MODEL      300
REMARK 921   NORMALIZED FREE ENERGY PREDICTED BY IDOCK:   -4.27 KCAL/MOL
REMARK 922        TOTAL FREE ENERGY PREDICTED BY IDOCK:   -6.90 KCAL/MOL
REMARK 923 INTER-LIGAND FREE ENERGY PREDICTED BY IDOCK:   -6.27 KCAL/MOL
REMARK 924 INTRA-LIGAND FREE ENERGY PREDICTED BY IDOCK:   -0.63 KCAL/MOL
REMARK 927      BINDING AFFINITY PREDICTED BY RF-SCORE:    0.00 PKD
ROOT
HETATM    1 CL   UNL     1      -8.396   4.512  72.037  1.00  0.00    -0.110 Cl 
HETATM    2  C   UNL     1      -8.527   5.903  71.032  1.00  0.00    -0.124 A  
HETATM    3  C   UNL     1      -9.369   5.875  69.924  1.00  0.00    -0.173 A  
HETATM    4  C   UNL     1      -9.444   6.990  69.086  1.00  0.00    -0.143 A  
HETATM    5  C   UNL     1      -8.686   8.143  69.350  1.00  0.00    -0.143 A  
HETATM    6  C   UNL     1      -7.860   8.161  70.480  1.00  0.00    -0.087 A  
HETATM    7  C   UNL     1      -7.780   7.042  71.317  1.00  0.00    -0.091 A  
ENDROOT
BRANCH   5   8
HETATM    8  C   UNL     1      -8.704   9.309  68.384  1.00  0.00    -0.129 C  
BRANCH   8   9
HETATM    9  C   UNL     1      -8.958  10.656  69.063  1.00  0.00    -0.165 C  
BRANCH   9  10
HETATM   10  C   UNL     1     -10.010  11.545  68.365  1.00  0.00    -0.206 C  
BRANCH  10  11
HETATM   11  S   UNL     1      -9.278  12.361  66.884  1.00  0.00    -0.212 SA 
BRANCH  11  12
HETATM   12  C   UNL     1     -10.517  12.912  65.686  1.00  0.00    -0.277 A  
HETATM   13 CL   UNL     1     -11.353  15.360  66.801  1.00  0.00    -0.200 Cl 
HETATM   14  C   UNL     1     -12.327  13.450  63.527  1.00  0.00    -0.398 A  
HETATM   15  C   UNL     1     -11.278  14.101  65.626  1.00  0.00    -0.308 A  
HETATM   16  C   UNL     1     -12.148  14.366  64.546  1.00  0.00    -0.498 A  
HETATM   17  C   UNL     1     -11.652  12.246  63.584  1.00  0.00    -0.581 A  
HETATM   18  C   UNL     1     -10.769  11.974  64.640  1.00  0.00    -0.309 A  
HETATM   19 CL   UNL     1     -10.038  10.389  64.562  1.00  0.00    -0.408 Cl 
ENDBRANCH  11  12
ENDBRANCH  10  11
BRANCH  10  20
HETATM   20  C   UNL     1     -10.902  12.502  69.187  1.00  0.00    -0.084 C  
BRANCH  20  21
HETATM   21  N   UNL     1     -11.719  11.852  70.203  1.00  0.00    -0.295 NA 
HETATM   22  C   UNL     1     -11.961  10.508  70.297  1.00  0.00    -0.325 A  
HETATM   23  N   UNL     1     -12.748  10.233  71.310  1.00  0.00    -0.384 NA 
HETATM   24  C   UNL     1     -12.464  12.471  71.166  1.00  0.00    -0.223 A  
HETATM   25  C   UNL     1     -13.066  11.448  71.861  1.00  0.00    -0.400 A  
ENDBRANCH  20  21
ENDBRANCH  10  20
ENDBRANCH   9  10
ENDBRANCH   8   9
ENDBRANCH   5   8
TORSDOF 7
ENDMDL
MODEL      301
REMARK 921   NORMALIZED FREE ENERGY PREDICTED BY IDOCK:   -4.26 KCAL/MOL
REMARK 922        TOTAL FREE ENERGY PREDICTED BY IDOCK:   -6.89 KCAL/MOL
REMARK 923 INTER-LIGAND FREE ENERGY PREDICTED BY IDOCK:   -6.24 KCAL/MOL
REMARK 924 INTRA-LIGAND FREE ENERGY PREDICTED BY IDOCK:   -0.64 KCAL/MOL
REMARK 927      BINDING AFFINITY PREDICTED BY RF-SCORE:    0.00 PKD
ROOT
HETATM    1 CL   UNL     1     -10.576  19.301  67.154  1.00  0.00    -0.543 Cl 
HETATM    2  C   UNL     1     -10.080  17.660  67.302  1.00  0.00    -0.331 A  
HETATM    3  C   UNL     1     -10.257  16.788  66.233  1.00  0.00    -0.341 A  
HETATM    4  C   UNL     1      -9.892  15.447  66.369  1.00  0.00    -0.301 A  
HETATM    5  C   UNL     1      -9.341  14.966  67.568  1.00  0.00    -0.193 A  
HETATM    6  C   UNL     1      -9.151  15.863  68.627  1.00  0.00    -0.206 A  
HETATM    7  C   UNL     1      -9.522  17.205  68.494  1.00  0.00    -0.282 A  
ENDROOT
BRANCH   5   8
HETATM    8  C   UNL     1      -9.037  13.493  67.736  1.00  0.00    -0.207 C  
BRANCH   8   9
HETATM    9  C   UNL     1     -10.279  12.643  68.009  1.00  0.00    -0.230 C  
BRANCH   9  10
HETATM   10  C   UNL     1     -10.004  11.307  68.732  1.00  0.00    -0.193 C  
BRANCH  10  11
HETATM   11  S   UNL     1      -8.447  10.548  68.108  1.00  0.00    -0.126 SA 
BRANCH  11  12
HETATM   12  C   UNL     1      -8.560   8.754  67.896  1.00  0.00    -0.130 A  
HETATM   13 CL   UNL     1      -6.913   7.821  69.984  1.00  0.00    -0.050 Cl 
HETATM   14  C   UNL     1      -9.073   6.002  67.274  1.00  0.00    -0.111 A  
HETATM   15  C   UNL     1      -8.011   7.699  68.660  1.00  0.00    -0.122 A  
HETATM   16  C   UNL     1      -8.291   6.348  68.358  1.00  0.00    -0.116 A  
HETATM   17  C   UNL     1      -9.573   7.002  66.463  1.00  0.00    -0.201 A  
HETATM   18  C   UNL     1      -9.322   8.351  66.759  1.00  0.00    -0.184 A  
HETATM   19 CL   UNL     1     -10.002   9.469  65.602  1.00  0.00    -0.351 Cl 
ENDBRANCH  11  12
ENDBRANCH  10  11
BRANCH  10  20
HETATM   20  C   UNL     1     -11.134  10.269  68.922  1.00  0.00    -0.231 C  
BRANCH  20  21
HETATM   21  N   UNL     1     -11.892  10.412  70.158  1.00  0.00    -0.287 NA 
HETATM   22  C   UNL     1     -12.400  11.582  70.655  1.00  0.00    -0.364 A  
HETATM   23  N   UNL     1     -13.020  11.388  71.795  1.00  0.00    -0.456 NA 
HETATM   24  C   UNL     1     -12.135   9.434  71.080  1.00  0.00    -0.298 A  
HETATM   25  C   UNL     1     -12.865  10.052  72.068  1.00  0.00    -0.389 A  
ENDBRANCH  20  21
ENDBRANCH  10  20
ENDBRANCH   9  10
ENDBRANCH   8   9
ENDBRANCH   5   8
TORSDOF 7
ENDMDL
MODEL      302
REMARK 921   NORMALIZED FREE ENERGY PREDICTED BY IDOCK:   -4.26 KCAL/MOL
REMARK 922        TOTAL FREE ENERGY PREDICTED BY IDOCK:   -6.88 KCAL/MOL
REMARK 923 INTER-LIGAND FREE ENERGY PREDICTED BY IDOCK:   -5.90 KCAL/MOL
REMARK 924 INTRA-LIGAND FREE ENERGY PREDICTED BY IDOCK:   -0.98 KCAL/MOL
REMARK 927      BINDING AFFINITY PREDICTED BY RF-SCORE:    0.00 PKD
ROOT
HETATM    1 CL   UNL     1     -11.477   6.193  72.251  1.00  0.00    -0.344 Cl 
HETATM    2  C   UNL     1     -10.438   7.354  71.519  1.00  0.00    -0.201 A  
HETATM    3  C   UNL     1     -10.952   8.587  71.126  1.00  0.00    -0.306 A  
HETATM    4  C   UNL     1     -10.117   9.512  70.496  1.00  0.00    -0.347 A  
HETATM    5  C   UNL     1      -8.764   9.220  70.259  1.00  0.00    -0.246 A  
HETATM    6  C   UNL     1      -8.259   7.983  70.679  1.00  0.00    -0.114 A  
HETATM    7  C   UNL     1      -9.096   7.053  71.306  1.00  0.00    -0.152 A  
ENDROOT
BRANCH   5   8
HETATM    8  C   UNL     1      -7.893  10.192  69.492  1.00  0.00    -0.165 C  
BRANCH   8   9
HETATM    9  C   UNL     1      -8.686  11.297  68.793  1.00  0.00    -0.105 C  
BRANCH   9  10
HETATM   10  C   UNL     1      -8.484  11.373  67.264  1.00  0.00    -0.148 C  
BRANCH  10  11
HETATM   11  S   UNL     1      -9.881  12.278  66.476  1.00  0.00    -0.233 SA 
BRANCH  11  12
HETATM   12  C   UNL     1     -10.405  13.738  67.410  1.00  0.00    -0.252 A  
HETATM   13 CL   UNL     1      -8.588  15.689  66.499  1.00  0.00    -0.322 Cl 
HETATM   14  C   UNL     1     -11.594  15.805  69.002  1.00  0.00    -0.406 A  
HETATM   15  C   UNL     1      -9.938  15.072  67.374  1.00  0.00    -0.226 A  
HETATM   16  C   UNL     1     -10.548  16.086  68.145  1.00  0.00    -0.286 A  
HETATM   17  C   UNL     1     -12.034  14.501  69.116  1.00  0.00    -0.344 A  
HETATM   18  C   UNL     1     -11.453  13.483  68.343  1.00  0.00    -0.311 A  
HETATM   19 CL   UNL     1     -12.114  11.896  68.651  1.00  0.00    -0.275 Cl 
ENDBRANCH  11  12
ENDBRANCH  10  11
BRANCH  10  20
HETATM   20  C   UNL     1      -8.064  10.120  66.463  1.00  0.00    -0.121 C  
BRANCH  20  21
HETATM   21  N   UNL     1      -8.848   8.924  66.747  1.00  0.00    -0.122 NA 
HETATM   22  C   UNL     1      -8.346   7.668  66.954  1.00  0.00    -0.124 A  
HETATM   23  N   UNL     1      -9.304   6.799  67.170  1.00  0.00    -0.132 NA 
HETATM   24  C   UNL     1     -10.210   8.829  66.754  1.00  0.00    -0.284 A  
HETATM   25  C   UNL     1     -10.471   7.511  67.052  1.00  0.00    -0.338 A  
ENDBRANCH  20  21
ENDBRANCH  10  20
ENDBRANCH   9  10
ENDBRANCH   8   9
ENDBRANCH   5   8
TORSDOF 7
ENDMDL
MODEL      303
REMARK 921   NORMALIZED FREE ENERGY PREDICTED BY IDOCK:   -4.25 KCAL/MOL
REMARK 922        TOTAL FREE ENERGY PREDICTED BY IDOCK:   -6.87 KCAL/MOL
REMARK 923 INTER-LIGAND FREE ENERGY PREDICTED BY IDOCK:   -5.75 KCAL/MOL
REMARK 924 INTRA-LIGAND FREE ENERGY PREDICTED BY IDOCK:   -1.11 KCAL/MOL
REMARK 927      BINDING AFFINITY PREDICTED BY RF-SCORE:    0.00 PKD
ROOT
HETATM    1 CL   UNL     1      -5.407   7.185  63.889  1.00  0.00    -0.028 Cl 
HETATM    2  C   UNL     1      -6.734   8.126  64.451  1.00  0.00    -0.065 A  
HETATM    3  C   UNL     1      -6.866   8.387  65.811  1.00  0.00    -0.067 A  
HETATM    4  C   UNL     1      -7.965   9.116  66.270  1.00  0.00    -0.103 A  
HETATM    5  C   UNL     1      -8.936   9.598  65.377  1.00  0.00    -0.231 A  
HETATM    6  C   UNL     1      -8.776   9.344  64.009  1.00  0.00    -0.225 A  
HETATM    7  C   UNL     1      -7.678   8.608  63.549  1.00  0.00    -0.136 A  
ENDROOT
BRANCH   5   8
HETATM    8  C   UNL     1     -10.170  10.305  65.895  1.00  0.00    -0.293 C  
BRANCH   8   9
HETATM    9  C   UNL     1     -10.804   9.614  67.103  1.00  0.00    -0.184 C  
BRANCH   9  10
HETATM   10  C   UNL     1     -11.188  10.559  68.262  1.00  0.00    -0.291 C  
BRANCH  10  11
HETATM   11  S   UNL     1     -11.515  12.256  67.626  1.00  0.00    -0.351 SA 
BRANCH  11  12
HETATM   12  C   UNL     1     -10.316  13.481  68.207  1.00  0.00    -0.252 A  
HETATM   13 CL   UNL     1      -7.971  12.675  66.870  1.00  0.00    -0.050 Cl 
HETATM   14  C   UNL     1      -8.774  15.639  69.295  1.00  0.00    -0.267 A  
HETATM   15  C   UNL     1      -8.958  13.675  67.868  1.00  0.00    -0.195 A  
HETATM   16  C   UNL     1      -8.216  14.756  68.392  1.00  0.00    -0.154 A  
HETATM   17  C   UNL     1     -10.079  15.444  69.704  1.00  0.00    -0.275 A  
HETATM   18  C   UNL     1     -10.838  14.387  69.178  1.00  0.00    -0.257 A  
HETATM   19 CL   UNL     1     -12.451  14.276  69.840  1.00  0.00    -0.366 Cl 
ENDBRANCH  11  12
ENDBRANCH  10  11
BRANCH  10  20
HETATM   20  C   UNL     1     -10.371  10.567  69.574  1.00  0.00    -0.221 C  
BRANCH  20  21
HETATM   21  N   UNL     1     -10.944   9.773  70.654  1.00  0.00    -0.307 NA 
HETATM   22  C   UNL     1     -12.238   9.836  71.095  1.00  0.00    -0.362 A  
HETATM   23  N   UNL     1     -12.444   9.010  72.092  1.00  0.00    -0.379 NA 
HETATM   24  C   UNL     1     -10.271   8.914  71.475  1.00  0.00    -0.328 A  
HETATM   25  C   UNL     1     -11.227   8.426  72.336  1.00  0.00    -0.368 A  
ENDBRANCH  20  21
ENDBRANCH  10  20
ENDBRANCH   9  10
ENDBRANCH   8   9
ENDBRANCH   5   8
TORSDOF 7
ENDMDL
MODEL      304
REMARK 921   NORMALIZED FREE ENERGY PREDICTED BY IDOCK:   -4.25 KCAL/MOL
REMARK 922        TOTAL FREE ENERGY PREDICTED BY IDOCK:   -6.86 KCAL/MOL
REMARK 923 INTER-LIGAND FREE ENERGY PREDICTED BY IDOCK:   -5.88 KCAL/MOL
REMARK 924 INTRA-LIGAND FREE ENERGY PREDICTED BY IDOCK:   -0.99 KCAL/MOL
REMARK 927      BINDING AFFINITY PREDICTED BY RF-SCORE:    0.00 PKD
ROOT
HETATM    1 CL   UNL     1      -8.653   5.838  72.726  1.00  0.00    -0.119 Cl 
HETATM    2  C   UNL     1      -9.418   7.032  71.751  1.00  0.00    -0.152 A  
HETATM    3  C   UNL     1     -10.101   6.648  70.601  1.00  0.00    -0.205 A  
HETATM    4  C   UNL     1     -10.686   7.622  69.789  1.00  0.00    -0.243 A  
HETATM    5  C   UNL     1     -10.601   8.984  70.119  1.00  0.00    -0.250 A  
HETATM    6  C   UNL     1      -9.928   9.351  71.291  1.00  0.00    -0.274 A  
HETATM    7  C   UNL     1      -9.336   8.377  72.103  1.00  0.00    -0.339 A  
ENDROOT
BRANCH   5   8
HETATM    8  C   UNL     1     -11.158  10.036  69.183  1.00  0.00    -0.232 C  
BRANCH   8   9
HETATM    9  C   UNL     1     -10.665   9.889  67.743  1.00  0.00    -0.332 C  
BRANCH   9  10
HETATM   10  C   UNL     1     -10.580  11.210  66.949  1.00  0.00    -0.258 C  
BRANCH  10  11
HETATM   11  S   UNL     1      -8.830  11.585  66.514  1.00  0.00    -0.188 SA 
BRANCH  11  12
HETATM   12  C   UNL     1      -7.993  10.218  65.674  1.00  0.00    -0.150 A  
HETATM   13 CL   UNL     1      -8.985  10.459  63.047  1.00  0.00    -0.214 Cl 
HETATM   14  C   UNL     1      -6.419   8.020  64.717  1.00  0.00    -0.049 A  
HETATM   15  C   UNL     1      -8.011   9.819  64.318  1.00  0.00    -0.143 A  
HETATM   16  C   UNL     1      -7.213   8.750  63.854  1.00  0.00    -0.096 A  
HETATM   17  C   UNL     1      -6.425   8.336  66.061  1.00  0.00    -0.049 A  
HETATM   18  C   UNL     1      -7.197   9.407  66.537  1.00  0.00    -0.089 A  
HETATM   19 CL   UNL     1      -7.108   9.630  68.267  1.00  0.00    -0.077 Cl 
ENDBRANCH  11  12
ENDBRANCH  10  11
BRANCH  10  20
HETATM   20  C   UNL     1     -11.354  12.462  67.420  1.00  0.00    -0.321 C  
BRANCH  20  21
HETATM   21  N   UNL     1     -11.615  13.446  66.377  1.00  0.00    -0.331 NA 
HETATM   22  C   UNL     1     -12.638  13.398  65.469  1.00  0.00    -0.465 A  
HETATM   23  N   UNL     1     -12.597  14.420  64.648  1.00  0.00    -0.653 NA 
HETATM   24  C   UNL     1     -10.834  14.520  66.060  1.00  0.00    -0.310 A  
HETATM   25  C   UNL     1     -11.480  15.129  65.008  1.00  0.00    -0.339 A  
ENDBRANCH  20  21
ENDBRANCH  10  20
ENDBRANCH   9  10
ENDBRANCH   8   9
ENDBRANCH   5   8
TORSDOF 7
ENDMDL
MODEL      305
REMARK 921   NORMALIZED FREE ENERGY PREDICTED BY IDOCK:   -4.24 KCAL/MOL
REMARK 922        TOTAL FREE ENERGY PREDICTED BY IDOCK:   -6.86 KCAL/MOL
REMARK 923 INTER-LIGAND FREE ENERGY PREDICTED BY IDOCK:   -5.81 KCAL/MOL
REMARK 924 INTRA-LIGAND FREE ENERGY PREDICTED BY IDOCK:   -1.05 KCAL/MOL
REMARK 927      BINDING AFFINITY PREDICTED BY RF-SCORE:    0.00 PKD
ROOT
HETATM    1 CL   UNL     1      -5.125  14.756  72.636  1.00  0.00    -0.210 Cl 
HETATM    2  C   UNL     1      -5.694  13.892  71.262  1.00  0.00    -0.224 A  
HETATM    3  C   UNL     1      -6.446  14.553  70.295  1.00  0.00    -0.144 A  
HETATM    4  C   UNL     1      -6.942  13.841  69.201  1.00  0.00    -0.082 A  
HETATM    5  C   UNL     1      -6.686  12.468  69.057  1.00  0.00    -0.098 A  
HETATM    6  C   UNL     1      -5.909  11.823  70.028  1.00  0.00    -0.148 A  
HETATM    7  C   UNL     1      -5.417  12.534  71.128  1.00  0.00    -0.092 A  
ENDROOT
BRANCH   5   8
HETATM    8  C   UNL     1      -7.305  11.688  67.917  1.00  0.00    -0.096 C  
BRANCH   8   9
HETATM    9  C   UNL     1      -8.595  12.315  67.383  1.00  0.00    -0.178 C  
BRANCH   9  10
HETATM   10  C   UNL     1      -9.874  11.494  67.654  1.00  0.00    -0.181 C  
BRANCH  10  11
HETATM   11  S   UNL     1     -11.366  12.566  67.517  1.00  0.00    -0.333 SA 
BRANCH  11  12
HETATM   12  C   UNL     1     -10.971  14.303  67.195  1.00  0.00    -0.302 A  
HETATM   13 CL   UNL     1     -11.322  15.457  69.741  1.00  0.00    -0.285 Cl 
HETATM   14  C   UNL     1     -10.195  16.909  66.286  1.00  0.00    -0.337 A  
HETATM   15  C   UNL     1     -10.899  15.410  68.070  1.00  0.00    -0.292 A  
HETATM   16  C   UNL     1     -10.492  16.683  67.615  1.00  0.00    -0.320 A  
HETATM   17  C   UNL     1     -10.318  15.869  65.386  1.00  0.00    -0.399 A  
HETATM   18  C   UNL     1     -10.702  14.591  65.823  1.00  0.00    -0.315 A  
HETATM   19 CL   UNL     1     -10.841  13.415  64.539  1.00  0.00    -0.393 Cl 
ENDBRANCH  11  12
ENDBRANCH  10  11
BRANCH  10  20
HETATM   20  C   UNL     1      -9.949  10.528  68.858  1.00  0.00    -0.204 C  
BRANCH  20  21
HETATM   21  N   UNL     1     -10.258   9.146  68.513  1.00  0.00    -0.193 NA 
HETATM   22  C   UNL     1     -10.221   8.079  69.369  1.00  0.00    -0.210 A  
HETATM   23  N   UNL     1     -10.535   6.962  68.756  1.00  0.00    -0.196 NA 
HETATM   24  C   UNL     1     -10.534   8.663  67.265  1.00  0.00    -0.289 A  
HETATM   25  C   UNL     1     -10.737   7.314  67.445  1.00  0.00    -0.288 A  
ENDBRANCH  20  21
ENDBRANCH  10  20
ENDBRANCH   9  10
ENDBRANCH   8   9
ENDBRANCH   5   8
TORSDOF 7
ENDMDL
MODEL      306
REMARK 921   NORMALIZED FREE ENERGY PREDICTED BY IDOCK:   -4.24 KCAL/MOL
REMARK 922        TOTAL FREE ENERGY PREDICTED BY IDOCK:   -6.85 KCAL/MOL
REMARK 923 INTER-LIGAND FREE ENERGY PREDICTED BY IDOCK:   -5.93 KCAL/MOL
REMARK 924 INTRA-LIGAND FREE ENERGY PREDICTED BY IDOCK:   -0.92 KCAL/MOL
REMARK 927      BINDING AFFINITY PREDICTED BY RF-SCORE:    0.00 PKD
ROOT
HETATM    1 CL   UNL     1     -11.397  15.370  64.517  1.00  0.00    -0.367 Cl 
HETATM    2  C   UNL     1     -10.894  13.766  64.881  1.00  0.00    -0.391 A  
HETATM    3  C   UNL     1     -10.144  13.522  66.027  1.00  0.00    -0.316 A  
HETATM    4  C   UNL     1      -9.702  12.225  66.300  1.00  0.00    -0.254 A  
HETATM    5  C   UNL     1     -10.010  11.161  65.436  1.00  0.00    -0.309 A  
HETATM    6  C   UNL     1     -10.783  11.421  64.298  1.00  0.00    -0.420 A  
HETATM    7  C   UNL     1     -11.222  12.721  64.021  1.00  0.00    -0.463 A  
ENDROOT
BRANCH   5   8
HETATM    8  C   UNL     1      -9.447   9.779  65.692  1.00  0.00    -0.307 C  
BRANCH   8   9
HETATM    9  C   UNL     1     -10.391   8.878  66.491  1.00  0.00    -0.267 C  
BRANCH   9  10
HETATM   10  C   UNL     1      -9.785   8.291  67.785  1.00  0.00    -0.158 C  
BRANCH  10  11
HETATM   11  S   UNL     1      -8.137   7.545  67.441  1.00  0.00    -0.117 SA 
BRANCH  11  12
HETATM   12  C   UNL     1      -8.130   6.465  65.988  1.00  0.00    -0.120 A  
HETATM   13 CL   UNL     1     -10.432   4.899  66.421  1.00  0.00    -0.333 Cl 
HETATM   14  C   UNL     1      -7.798   5.027  63.530  1.00  0.00    -0.081 A  
HETATM   15  C   UNL     1      -9.052   5.480  65.567  1.00  0.00    -0.091 A  
HETATM   16  C   UNL     1      -8.891   4.796  64.342  1.00  0.00    -0.142 A  
HETATM   17  C   UNL     1      -6.840   5.933  63.938  1.00  0.00    -0.038 A  
HETATM   18  C   UNL     1      -6.994   6.637  65.143  1.00  0.00    -0.051 A  
HETATM   19 CL   UNL     1      -5.664   7.709  65.512  1.00  0.00    -0.037 Cl 
ENDBRANCH  11  12
ENDBRANCH  10  11
BRANCH  10  20
HETATM   20  C   UNL     1     -10.643   7.421  68.730  1.00  0.00    -0.168 C  
BRANCH  20  21
HETATM   21  N   UNL     1     -11.021   8.069  69.980  1.00  0.00    -0.235 NA 
HETATM   22  C   UNL     1     -11.537   7.443  71.082  1.00  0.00    -0.286 A  
HETATM   23  N   UNL     1     -11.791   8.299  72.043  1.00  0.00    -0.323 NA 
HETATM   24  C   UNL     1     -11.024   9.411  70.230  1.00  0.00    -0.262 A  
HETATM   25  C   UNL     1     -11.472   9.529  71.526  1.00  0.00    -0.395 A  
ENDBRANCH  20  21
ENDBRANCH  10  20
ENDBRANCH   9  10
ENDBRANCH   8   9
ENDBRANCH   5   8
TORSDOF 7
ENDMDL
MODEL      307
REMARK 921   NORMALIZED FREE ENERGY PREDICTED BY IDOCK:   -4.23 KCAL/MOL
REMARK 922        TOTAL FREE ENERGY PREDICTED BY IDOCK:   -6.84 KCAL/MOL
REMARK 923 INTER-LIGAND FREE ENERGY PREDICTED BY IDOCK:   -5.90 KCAL/MOL
REMARK 924 INTRA-LIGAND FREE ENERGY PREDICTED BY IDOCK:   -0.94 KCAL/MOL
REMARK 927      BINDING AFFINITY PREDICTED BY RF-SCORE:    0.00 PKD
ROOT
HETATM    1 CL   UNL     1     -11.629  15.915  64.285  1.00  0.00    -0.322 Cl 
HETATM    2  C   UNL     1     -11.464  14.467  65.199  1.00  0.00    -0.362 A  
HETATM    3  C   UNL     1     -10.908  13.337  64.606  1.00  0.00    -0.396 A  
HETATM    4  C   UNL     1     -10.812  12.151  65.337  1.00  0.00    -0.335 A  
HETATM    5  C   UNL     1     -11.262  12.084  66.666  1.00  0.00    -0.380 A  
HETATM    6  C   UNL     1     -11.800  13.236  67.254  1.00  0.00    -0.421 A  
HETATM    7  C   UNL     1     -11.901  14.423  66.520  1.00  0.00    -0.406 A  
ENDROOT
BRANCH   5   8
HETATM    8  C   UNL     1     -11.239  10.769  67.417  1.00  0.00    -0.315 C  
BRANCH   8   9
HETATM    9  C   UNL     1      -9.933   9.992  67.241  1.00  0.00    -0.245 C  
BRANCH   9  10
HETATM   10  C   UNL     1      -9.604   9.009  68.385  1.00  0.00    -0.152 C  
BRANCH  10  11
HETATM   11  S   UNL     1      -7.941   8.260  68.130  1.00  0.00    -0.124 SA 
BRANCH  11  12
HETATM   12  C   UNL     1      -7.980   6.766  67.109  1.00  0.00    -0.116 A  
HETATM   13 CL   UNL     1      -8.159   7.845  64.512  1.00  0.00    -0.136 Cl 
HETATM   14  C   UNL     1      -7.930   4.181  65.868  1.00  0.00    -0.094 A  
HETATM   15  C   UNL     1      -8.007   6.609  65.704  1.00  0.00    -0.115 A  
HETATM   16  C   UNL     1      -7.957   5.331  65.105  1.00  0.00    -0.108 A  
HETATM   17  C   UNL     1      -7.970   4.289  67.244  1.00  0.00    -0.096 A  
HETATM   18  C   UNL     1      -8.000   5.552  67.858  1.00  0.00    -0.097 A  
HETATM   19 CL   UNL     1      -8.088   5.489  69.602  1.00  0.00    -0.099 Cl 
ENDBRANCH  11  12
ENDBRANCH  10  11
BRANCH  10  20
HETATM   20  C   UNL     1     -10.652   7.977  68.861  1.00  0.00    -0.140 C  
BRANCH  20  21
HETATM   21  N   UNL     1     -10.986   8.056  70.277  1.00  0.00    -0.249 NA 
HETATM   22  C   UNL     1     -11.172   9.207  70.993  1.00  0.00    -0.312 A  
HETATM   23  N   UNL     1     -11.447   8.950  72.250  1.00  0.00    -0.311 NA 
HETATM   24  C   UNL     1     -11.070   7.010  71.151  1.00  0.00    -0.258 A  
HETATM   25  C   UNL     1     -11.390   7.584  72.360  1.00  0.00    -0.312 A  
ENDBRANCH  20  21
ENDBRANCH  10  20
ENDBRANCH   9  10
ENDBRANCH   8   9
ENDBRANCH   5   8
TORSDOF 7
ENDMDL
MODEL      308
REMARK 921   NORMALIZED FREE ENERGY PREDICTED BY IDOCK:   -4.22 KCAL/MOL
REMARK 922        TOTAL FREE ENERGY PREDICTED BY IDOCK:   -6.83 KCAL/MOL
REMARK 923 INTER-LIGAND FREE ENERGY PREDICTED BY IDOCK:   -5.76 KCAL/MOL
REMARK 924 INTRA-LIGAND FREE ENERGY PREDICTED BY IDOCK:   -1.08 KCAL/MOL
REMARK 927      BINDING AFFINITY PREDICTED BY RF-SCORE:    0.00 PKD
ROOT
HETATM    1 CL   UNL     1      -6.583   8.090  62.553  1.00  0.00    -0.085 Cl 
HETATM    2  C   UNL     1      -7.646   9.175  63.362  1.00  0.00    -0.108 A  
HETATM    3  C   UNL     1      -8.825   9.575  62.740  1.00  0.00    -0.244 A  
HETATM    4  C   UNL     1      -9.667  10.487  63.380  1.00  0.00    -0.368 A  
HETATM    5  C   UNL     1      -9.345  11.001  64.647  1.00  0.00    -0.235 A  
HETATM    6  C   UNL     1      -8.165  10.571  65.267  1.00  0.00    -0.146 A  
HETATM    7  C   UNL     1      -7.318   9.662  64.624  1.00  0.00    -0.123 A  
ENDROOT
BRANCH   5   8
HETATM    8  C   UNL     1     -10.217  12.059  65.289  1.00  0.00    -0.304 C  
BRANCH   8   9
HETATM    9  C   UNL     1     -11.381  11.479  66.096  1.00  0.00    -0.200 C  
BRANCH   9  10
HETATM   10  C   UNL     1     -11.010  11.001  67.516  1.00  0.00    -0.281 C  
BRANCH  10  11
HETATM   11  S   UNL     1      -9.782  12.143  68.278  1.00  0.00    -0.202 SA 
BRANCH  11  12
HETATM   12  C   UNL     1     -10.360  13.856  68.369  1.00  0.00    -0.249 A  
HETATM   13 CL   UNL     1      -8.665  15.137  66.518  1.00  0.00    -0.312 Cl 
HETATM   14  C   UNL     1     -11.620  16.403  68.749  1.00  0.00    -0.144 A  
HETATM   15  C   UNL     1      -9.964  15.003  67.644  1.00  0.00    -0.225 A  
HETATM   16  C   UNL     1     -10.608  16.246  67.823  1.00  0.00    -0.314 A  
HETATM   17  C   UNL     1     -11.991  15.323  69.525  1.00  0.00    -0.356 A  
HETATM   18  C   UNL     1     -11.375  14.074  69.348  1.00  0.00    -0.268 A  
HETATM   19 CL   UNL     1     -11.947  12.840  70.444  1.00  0.00    -0.385 Cl 
ENDBRANCH  11  12
ENDBRANCH  10  11
BRANCH  10  20
HETATM   20  C   UNL     1     -10.681   9.514  67.785  1.00  0.00    -0.242 C  
BRANCH  20  21
HETATM   21  N   UNL     1     -10.535   9.167  69.193  1.00  0.00    -0.216 NA 
HETATM   22  C   UNL     1      -9.513   8.436  69.735  1.00  0.00    -0.162 A  
HETATM   23  N   UNL     1      -9.672   8.278  71.028  1.00  0.00    -0.158 NA 
HETATM   24  C   UNL     1     -11.435   9.419  70.189  1.00  0.00    -0.138 A  
HETATM   25  C   UNL     1     -10.864   8.890  71.323  1.00  0.00    -0.290 A  
ENDBRANCH  20  21
ENDBRANCH  10  20
ENDBRANCH   9  10
ENDBRANCH   8   9
ENDBRANCH   5   8
TORSDOF 7
ENDMDL
MODEL      309
REMARK 921   NORMALIZED FREE ENERGY PREDICTED BY IDOCK:   -4.22 KCAL/MOL
REMARK 922        TOTAL FREE ENERGY PREDICTED BY IDOCK:   -6.83 KCAL/MOL
REMARK 923 INTER-LIGAND FREE ENERGY PREDICTED BY IDOCK:   -5.18 KCAL/MOL
REMARK 924 INTRA-LIGAND FREE ENERGY PREDICTED BY IDOCK:   -1.65 KCAL/MOL
REMARK 927      BINDING AFFINITY PREDICTED BY RF-SCORE:    0.00 PKD
ROOT
HETATM    1 CL   UNL     1      -5.671   6.570  73.819  1.00  0.00    -0.053 Cl 
HETATM    2  C   UNL     1      -6.223   7.363  72.396  1.00  0.00    -0.043 A  
HETATM    3  C   UNL     1      -5.561   7.154  71.190  1.00  0.00    -0.028 A  
HETATM    4  C   UNL     1      -5.985   7.830  70.044  1.00  0.00    -0.023 A  
HETATM    5  C   UNL     1      -7.076   8.714  70.090  1.00  0.00    -0.044 A  
HETATM    6  C   UNL     1      -7.743   8.897  71.307  1.00  0.00    -0.145 A  
HETATM    7  C   UNL     1      -7.315   8.224  72.457  1.00  0.00    -0.142 A  
ENDROOT
BRANCH   5   8
HETATM    8  C   UNL     1      -7.468   9.512  68.864  1.00  0.00    -0.074 C  
BRANCH   8   9
HETATM    9  C   UNL     1      -8.395  10.688  69.176  1.00  0.00    -0.140 C  
BRANCH   9  10
HETATM   10  C   UNL     1      -9.333  11.098  68.020  1.00  0.00    -0.166 C  
BRANCH  10  11
HETATM   11  S   UNL     1     -10.935  10.199  68.144  1.00  0.00    -0.231 SA 
BRANCH  11  12
HETATM   12  C   UNL     1     -11.060   9.161  69.622  1.00  0.00    -0.087 A  
HETATM   13 CL   UNL     1     -10.159   6.671  68.659  1.00  0.00    -0.157 Cl 
HETATM   14  C   UNL     1     -11.327   7.904  72.185  1.00  0.00    -0.367 A  
HETATM   15  C   UNL     1     -10.705   7.810  69.833  1.00  0.00    -0.245 A  
HETATM   16  C   UNL     1     -10.818   7.209  71.106  1.00  0.00    -0.261 A  
HETATM   17  C   UNL     1     -11.749   9.206  72.004  1.00  0.00    -0.384 A  
HETATM   18  C   UNL     1     -11.625   9.827  70.751  1.00  0.00    -0.339 A  
HETATM   19 CL   UNL     1     -12.246  11.459  70.704  1.00  0.00    -0.473 Cl 
ENDBRANCH  11  12
ENDBRANCH  10  11
BRANCH  10  20
HETATM   20  C   UNL     1      -8.807  11.171  66.568  1.00  0.00    -0.171 C  
BRANCH  20  21
HETATM   21  N   UNL     1      -9.585  12.024  65.680  1.00  0.00    -0.224 NA 
HETATM   22  C   UNL     1      -9.915  13.332  65.911  1.00  0.00    -0.272 A  
HETATM   23  N   UNL     1     -10.638  13.824  64.932  1.00  0.00    -0.390 NA 
HETATM   24  C   UNL     1     -10.204  11.642  64.524  1.00  0.00    -0.291 A  
HETATM   25  C   UNL     1     -10.821  12.781  64.059  1.00  0.00    -0.424 A  
ENDBRANCH  20  21
ENDBRANCH  10  20
ENDBRANCH   9  10
ENDBRANCH   8   9
ENDBRANCH   5   8
TORSDOF 7
ENDMDL
MODEL      310
REMARK 921   NORMALIZED FREE ENERGY PREDICTED BY IDOCK:   -4.22 KCAL/MOL
REMARK 922        TOTAL FREE ENERGY PREDICTED BY IDOCK:   -6.82 KCAL/MOL
REMARK 923 INTER-LIGAND FREE ENERGY PREDICTED BY IDOCK:   -5.88 KCAL/MOL
REMARK 924 INTRA-LIGAND FREE ENERGY PREDICTED BY IDOCK:   -0.94 KCAL/MOL
REMARK 927      BINDING AFFINITY PREDICTED BY RF-SCORE:    0.00 PKD
ROOT
HETATM    1 CL   UNL     1     -14.365   7.482  72.274  1.00  0.00    -0.264 Cl 
HETATM    2  C   UNL     1     -13.070   8.144  71.354  1.00  0.00    -0.225 A  
HETATM    3  C   UNL     1     -12.104   7.298  70.816  1.00  0.00    -0.284 A  
HETATM    4  C   UNL     1     -11.032   7.839  70.105  1.00  0.00    -0.246 A  
HETATM    5  C   UNL     1     -10.916   9.227  69.918  1.00  0.00    -0.231 A  
HETATM    6  C   UNL     1     -11.908  10.062  70.448  1.00  0.00    -0.343 A  
HETATM    7  C   UNL     1     -12.980   9.520  71.166  1.00  0.00    -0.349 A  
ENDROOT
BRANCH   5   8
HETATM    8  C   UNL     1      -9.701   9.808  69.227  1.00  0.00    -0.204 C  
BRANCH   8   9
HETATM    9  C   UNL     1     -10.038  10.953  68.269  1.00  0.00    -0.189 C  
BRANCH   9  10
HETATM   10  C   UNL     1      -9.290  12.275  68.552  1.00  0.00    -0.099 C  
BRANCH  10  11
HETATM   11  S   UNL     1     -10.476  13.683  68.613  1.00  0.00    -0.206 SA 
BRANCH  11  12
HETATM   12  C   UNL     1     -10.790  14.423  66.992  1.00  0.00    -0.297 A  
HETATM   13 CL   UNL     1     -12.212  12.372  65.684  1.00  0.00    -0.426 Cl 
HETATM   14  C   UNL     1     -11.142  15.980  64.609  1.00  0.00    -0.346 A  
HETATM   15  C   UNL     1     -11.513  13.935  65.879  1.00  0.00    -0.325 A  
HETATM   16  C   UNL     1     -11.700  14.721  64.721  1.00  0.00    -0.422 A  
HETATM   17  C   UNL     1     -10.373  16.466  65.648  1.00  0.00    -0.371 A  
HETATM   18  C   UNL     1     -10.192  15.707  66.815  1.00  0.00    -0.276 A  
HETATM   19 CL   UNL     1      -9.159  16.467  68.001  1.00  0.00    -0.198 Cl 
ENDBRANCH  11  12
ENDBRANCH  10  11
BRANCH  10  20
HETATM   20  C   UNL     1      -7.995  12.625  67.785  1.00  0.00    -0.158 C  
BRANCH  20  21
HETATM   21  N   UNL     1      -6.948  13.227  68.601  1.00  0.00    -0.097 NA 
HETATM   22  C   UNL     1      -6.493  12.750  69.800  1.00  0.00    -0.005 A  
HETATM   23  N   UNL     1      -5.556  13.522  70.298  1.00  0.00    -0.126 NA 
HETATM   24  C   UNL     1      -6.317  14.415  68.365  1.00  0.00    -0.101 A  
HETATM   25  C   UNL     1      -5.434  14.561  69.410  1.00  0.00    -0.089 A  
ENDBRANCH  20  21
ENDBRANCH  10  20
ENDBRANCH   9  10
ENDBRANCH   8   9
ENDBRANCH   5   8
TORSDOF 7
ENDMDL
MODEL      311
REMARK 921   NORMALIZED FREE ENERGY PREDICTED BY IDOCK:   -4.21 KCAL/MOL
REMARK 922        TOTAL FREE ENERGY PREDICTED BY IDOCK:   -6.82 KCAL/MOL
REMARK 923 INTER-LIGAND FREE ENERGY PREDICTED BY IDOCK:   -5.93 KCAL/MOL
REMARK 924 INTRA-LIGAND FREE ENERGY PREDICTED BY IDOCK:   -0.89 KCAL/MOL
REMARK 927      BINDING AFFINITY PREDICTED BY RF-SCORE:    0.00 PKD
ROOT
HETATM    1 CL   UNL     1      -6.867   5.777  69.788  1.00  0.00    -0.058 Cl 
HETATM    2  C   UNL     1      -8.013   6.824  69.047  1.00  0.00    -0.116 A  
HETATM    3  C   UNL     1      -7.868   7.165  67.705  1.00  0.00    -0.114 A  
HETATM    4  C   UNL     1      -8.775   8.047  67.116  1.00  0.00    -0.134 A  
HETATM    5  C   UNL     1      -9.839   8.590  67.855  1.00  0.00    -0.208 A  
HETATM    6  C   UNL     1      -9.982   8.220  69.198  1.00  0.00    -0.196 A  
HETATM    7  C   UNL     1      -9.070   7.341  69.791  1.00  0.00    -0.141 A  
ENDROOT
BRANCH   5   8
HETATM    8  C   UNL     1     -10.761   9.617  67.231  1.00  0.00    -0.284 C  
BRANCH   8   9
HETATM    9  C   UNL     1     -10.059  10.530  66.225  1.00  0.00    -0.290 C  
BRANCH   9  10
HETATM   10  C   UNL     1     -10.273  12.041  66.462  1.00  0.00    -0.206 C  
BRANCH  10  11
HETATM   11  S   UNL     1      -9.318  12.601  67.934  1.00  0.00    -0.210 SA 
BRANCH  11  12
HETATM   12  C   UNL     1      -9.943  14.143  68.648  1.00  0.00    -0.222 A  
HETATM   13 CL   UNL     1     -12.191  13.243  70.089  1.00  0.00    -0.398 Cl 
HETATM   14  C   UNL     1     -10.545  16.765  69.639  1.00  0.00    -0.242 A  
HETATM   15  C   UNL     1     -11.023  14.380  69.529  1.00  0.00    -0.197 A  
HETATM   16  C   UNL     1     -11.294  15.672  70.029  1.00  0.00    -0.341 A  
HETATM   17  C   UNL     1      -9.524  16.585  68.727  1.00  0.00    -0.246 A  
HETATM   18  C   UNL     1      -9.226  15.305  68.234  1.00  0.00    -0.189 A  
HETATM   19 CL   UNL     1      -7.930  15.280  67.064  1.00  0.00    -0.251 Cl 
ENDBRANCH  11  12
ENDBRANCH  10  11
BRANCH  10  20
HETATM   20  C   UNL     1     -11.692  12.652  66.411  1.00  0.00    -0.405 C  
BRANCH  20  21
HETATM   21  N   UNL     1     -11.831  13.795  65.518  1.00  0.00    -0.346 NA 
HETATM   22  C   UNL     1     -12.979  14.177  64.878  1.00  0.00     0.006 A  
HETATM   23  N   UNL     1     -12.781  15.236  64.130  1.00  0.00    -0.559 NA 
HETATM   24  C   UNL     1     -10.828  14.615  65.085  1.00  0.00    -0.401 A  
HETATM   25  C   UNL     1     -11.445  15.521  64.254  1.00  0.00    -0.180 A  
ENDBRANCH  20  21
ENDBRANCH  10  20
ENDBRANCH   9  10
ENDBRANCH   8   9
ENDBRANCH   5   8
TORSDOF 7
ENDMDL
MODEL      312
REMARK 921   NORMALIZED FREE ENERGY PREDICTED BY IDOCK:   -4.21 KCAL/MOL
REMARK 922        TOTAL FREE ENERGY PREDICTED BY IDOCK:   -6.81 KCAL/MOL
REMARK 923 INTER-LIGAND FREE ENERGY PREDICTED BY IDOCK:   -6.49 KCAL/MOL
REMARK 924 INTRA-LIGAND FREE ENERGY PREDICTED BY IDOCK:   -0.33 KCAL/MOL
REMARK 927      BINDING AFFINITY PREDICTED BY RF-SCORE:    0.00 PKD
ROOT
HETATM    1 CL   UNL     1      -5.171  17.436  69.667  1.00  0.00    -0.165 Cl 
HETATM    2  C   UNL     1      -5.974  15.981  69.223  1.00  0.00    -0.132 A  
HETATM    3  C   UNL     1      -6.763  15.952  68.077  1.00  0.00    -0.140 A  
HETATM    4  C   UNL     1      -7.447  14.782  67.741  1.00  0.00    -0.178 A  
HETATM    5  C   UNL     1      -7.345  13.630  68.539  1.00  0.00    -0.114 A  
HETATM    6  C   UNL     1      -6.530  13.671  69.677  1.00  0.00    -0.083 A  
HETATM    7  C   UNL     1      -5.849  14.845  70.018  1.00  0.00    -0.134 A  
ENDROOT
BRANCH   5   8
HETATM    8  C   UNL     1      -8.164  12.398  68.216  1.00  0.00    -0.170 C  
BRANCH   8   9
HETATM    9  C   UNL     1      -9.238  12.645  67.155  1.00  0.00    -0.214 C  
BRANCH   9  10
HETATM   10  C   UNL     1     -10.639  12.973  67.715  1.00  0.00    -0.226 C  
BRANCH  10  11
HETATM   11  S   UNL     1     -11.536  11.423  68.148  1.00  0.00    -0.304 SA 
BRANCH  11  12
HETATM   12  C   UNL     1     -10.466   9.963  68.179  1.00  0.00    -0.215 A  
HETATM   13 CL   UNL     1      -9.838   9.648  65.450  1.00  0.00    -0.380 Cl 
HETATM   14  C   UNL     1      -8.771   7.704  68.675  1.00  0.00    -0.128 A  
HETATM   15  C   UNL     1      -9.764   9.312  67.139  1.00  0.00    -0.172 A  
HETATM   16  C   UNL     1      -8.914   8.215  67.400  1.00  0.00    -0.145 A  
HETATM   17  C   UNL     1      -9.493   8.270  69.707  1.00  0.00    -0.163 A  
HETATM   18  C   UNL     1     -10.329   9.373  69.471  1.00  0.00    -0.214 A  
HETATM   19 CL   UNL     1     -11.188   9.927  70.887  1.00  0.00    -0.410 Cl 
ENDBRANCH  11  12
ENDBRANCH  10  11
BRANCH  10  20
HETATM   20  C   UNL     1     -11.547  14.004  67.008  1.00  0.00    -0.371 C  
BRANCH  20  21
HETATM   21  N   UNL     1     -11.873  13.682  65.625  1.00  0.00    -0.347 NA 
HETATM   22  C   UNL     1     -12.318  14.567  64.680  1.00  0.00    -0.403 A  
HETATM   23  N   UNL     1     -12.540  13.970  63.533  1.00  0.00    -0.777 NA 
HETATM   24  C   UNL     1     -11.892  12.437  65.064  1.00  0.00    -0.388 A  
HETATM   25  C   UNL     1     -12.275  12.643  63.758  1.00  0.00    -0.514 A  
ENDBRANCH  20  21
ENDBRANCH  10  20
ENDBRANCH   9  10
ENDBRANCH   8   9
ENDBRANCH   5   8
TORSDOF 7
ENDMDL
MODEL      313
REMARK 921   NORMALIZED FREE ENERGY PREDICTED BY IDOCK:   -4.20 KCAL/MOL
REMARK 922        TOTAL FREE ENERGY PREDICTED BY IDOCK:   -6.80 KCAL/MOL
REMARK 923 INTER-LIGAND FREE ENERGY PREDICTED BY IDOCK:   -5.93 KCAL/MOL
REMARK 924 INTRA-LIGAND FREE ENERGY PREDICTED BY IDOCK:   -0.87 KCAL/MOL
REMARK 927      BINDING AFFINITY PREDICTED BY RF-SCORE:    0.00 PKD
ROOT
HETATM    1 CL   UNL     1     -11.657  16.384  64.251  1.00  0.00    -0.146 Cl 
HETATM    2  C   UNL     1     -11.410  14.818  64.920  1.00  0.00    -0.410 A  
HETATM    3  C   UNL     1     -10.139  14.443  65.345  1.00  0.00    -0.388 A  
HETATM    4  C   UNL     1      -9.932  13.158  65.850  1.00  0.00    -0.275 A  
HETATM    5  C   UNL     1     -10.990  12.239  65.943  1.00  0.00    -0.338 A  
HETATM    6  C   UNL     1     -12.267  12.640  65.531  1.00  0.00    -0.501 A  
HETATM    7  C   UNL     1     -12.474  13.926  65.019  1.00  0.00    -0.447 A  
ENDROOT
BRANCH   5   8
HETATM    8  C   UNL     1     -10.735  10.820  66.404  1.00  0.00    -0.228 C  
BRANCH   8   9
HETATM    9  C   UNL     1     -10.846  10.645  67.920  1.00  0.00    -0.328 C  
BRANCH   9  10
HETATM   10  C   UNL     1      -9.779   9.720  68.545  1.00  0.00    -0.154 C  
BRANCH  10  11
HETATM   11  S   UNL     1     -10.326   9.139  70.205  1.00  0.00    -0.229 SA 
BRANCH  11  12
HETATM   12  C   UNL     1     -10.175   7.348  70.421  1.00  0.00    -0.198 A  
HETATM   13 CL   UNL     1     -11.144   6.384  67.957  1.00  0.00    -0.396 Cl 
HETATM   14  C   UNL     1      -9.697   4.612  71.132  1.00  0.00    -0.252 A  
HETATM   15  C   UNL     1     -10.439   6.286  69.527  1.00  0.00    -0.237 A  
HETATM   16  C   UNL     1     -10.177   4.944  69.880  1.00  0.00    -0.299 A  
HETATM   17  C   UNL     1      -9.490   5.615  72.057  1.00  0.00    -0.169 A  
HETATM   18  C   UNL     1      -9.727   6.957  71.718  1.00  0.00    -0.159 A  
HETATM   19 CL   UNL     1      -9.446   8.079  73.027  1.00  0.00    -0.329 Cl 
ENDBRANCH  11  12
ENDBRANCH  10  11
BRANCH  10  20
HETATM   20  C   UNL     1      -8.285  10.114  68.519  1.00  0.00    -0.111 C  
BRANCH  20  21
HETATM   21  N   UNL     1      -7.377   9.037  68.145  1.00  0.00    -0.082 NA 
HETATM   22  C   UNL     1      -7.730   7.874  67.517  1.00  0.00    -0.117 A  
HETATM   23  N   UNL     1      -6.690   7.096  67.330  1.00  0.00    -0.062 NA 
HETATM   24  C   UNL     1      -6.047   8.954  68.446  1.00  0.00    -0.046 A  
HETATM   25  C   UNL     1      -5.634   7.760  67.901  1.00  0.00    -0.032 A  
ENDBRANCH  20  21
ENDBRANCH  10  20
ENDBRANCH   9  10
ENDBRANCH   8   9
ENDBRANCH   5   8
TORSDOF 7
ENDMDL
MODEL      314
REMARK 921   NORMALIZED FREE ENERGY PREDICTED BY IDOCK:   -4.20 KCAL/MOL
REMARK 922        TOTAL FREE ENERGY PREDICTED BY IDOCK:   -6.80 KCAL/MOL
REMARK 923 INTER-LIGAND FREE ENERGY PREDICTED BY IDOCK:   -5.67 KCAL/MOL
REMARK 924 INTRA-LIGAND FREE ENERGY PREDICTED BY IDOCK:   -1.13 KCAL/MOL
REMARK 927      BINDING AFFINITY PREDICTED BY RF-SCORE:    0.00 PKD
ROOT
HETATM    1 CL   UNL     1     -10.505  17.128  67.498  1.00  0.00    -0.348 Cl 
HETATM    2  C   UNL     1     -10.393  15.428  67.257  1.00  0.00    -0.271 A  
HETATM    3  C   UNL     1     -10.161  14.592  68.345  1.00  0.00    -0.241 A  
HETATM    4  C   UNL     1     -10.029  13.217  68.142  1.00  0.00    -0.234 A  
HETATM    5  C   UNL     1     -10.135  12.663  66.855  1.00  0.00    -0.234 A  
HETATM    6  C   UNL     1     -10.389  13.517  65.775  1.00  0.00    -0.296 A  
HETATM    7  C   UNL     1     -10.516  14.896  65.976  1.00  0.00    -0.326 A  
ENDROOT
BRANCH   5   8
HETATM    8  C   UNL     1      -9.897  11.184  66.635  1.00  0.00    -0.231 C  
BRANCH   8   9
HETATM    9  C   UNL     1      -9.136  10.514  67.781  1.00  0.00    -0.140 C  
BRANCH   9  10
HETATM   10  C   UNL     1      -9.039   8.977  67.682  1.00  0.00    -0.133 C  
BRANCH  10  11
HETATM   11  S   UNL     1     -10.655   8.202  68.107  1.00  0.00    -0.047 SA 
BRANCH  11  12
HETATM   12  C   UNL     1     -10.814   7.797  69.864  1.00  0.00    -0.226 A  
HETATM   13 CL   UNL     1      -9.995   5.102  69.913  1.00  0.00    -0.294 Cl 
HETATM   14  C   UNL     1     -11.122   7.598  72.708  1.00  0.00    -0.437 A  
HETATM   15  C   UNL     1     -10.503   6.612  70.569  1.00  0.00    -0.203 A  
HETATM   16  C   UNL     1     -10.636   6.535  71.973  1.00  0.00    -0.244 A  
HETATM   17  C   UNL     1     -11.500   8.751  72.048  1.00  0.00    -0.441 A  
HETATM   18  C   UNL     1     -11.357   8.853  70.655  1.00  0.00    -0.259 A  
HETATM   19 CL   UNL     1     -11.923  10.368  69.995  1.00  0.00    -0.331 Cl 
ENDBRANCH  11  12
ENDBRANCH  10  11
BRANCH  10  20
HETATM   20  C   UNL     1      -7.840   8.223  68.303  1.00  0.00    -0.118 C  
BRANCH  20  21
HETATM   21  N   UNL     1      -7.105   8.974  69.312  1.00  0.00    -0.057 NA 
HETATM   22  C   UNL     1      -7.473   9.131  70.621  1.00  0.00    -0.124 A  
HETATM   23  N   UNL     1      -6.613   9.875  71.274  1.00  0.00    -0.326 NA 
HETATM   24  C   UNL     1      -5.986   9.731  69.106  1.00  0.00    -0.034 A  
HETATM   25  C   UNL     1      -5.679  10.252  70.342  1.00  0.00    -0.078 A  
ENDBRANCH  20  21
ENDBRANCH  10  20
ENDBRANCH   9  10
ENDBRANCH   8   9
ENDBRANCH   5   8
TORSDOF 7
ENDMDL
MODEL      315
REMARK 921   NORMALIZED FREE ENERGY PREDICTED BY IDOCK:   -4.20 KCAL/MOL
REMARK 922        TOTAL FREE ENERGY PREDICTED BY IDOCK:   -6.80 KCAL/MOL
REMARK 923 INTER-LIGAND FREE ENERGY PREDICTED BY IDOCK:   -6.04 KCAL/MOL
REMARK 924 INTRA-LIGAND FREE ENERGY PREDICTED BY IDOCK:   -0.76 KCAL/MOL
REMARK 927      BINDING AFFINITY PREDICTED BY RF-SCORE:    0.00 PKD
ROOT
HETATM    1 CL   UNL     1      -8.371   2.074  67.465  1.00  0.00    -0.074 Cl 
HETATM    2  C   UNL     1      -9.045   3.657  67.439  1.00  0.00    -0.161 A  
HETATM    3  C   UNL     1      -8.700   4.568  68.432  1.00  0.00    -0.114 A  
HETATM    4  C   UNL     1      -9.279   5.839  68.434  1.00  0.00    -0.121 A  
HETATM    5  C   UNL     1     -10.200   6.214  67.441  1.00  0.00    -0.226 A  
HETATM    6  C   UNL     1     -10.520   5.291  66.437  1.00  0.00    -0.347 A  
HETATM    7  C   UNL     1      -9.944   4.016  66.439  1.00  0.00    -0.114 A  
ENDROOT
BRANCH   5   8
HETATM    8  C   UNL     1     -10.891   7.560  67.505  1.00  0.00    -0.232 C  
BRANCH   8   9
HETATM    9  C   UNL     1     -10.254   8.613  66.597  1.00  0.00    -0.343 C  
BRANCH   9  10
HETATM   10  C   UNL     1     -10.229  10.042  67.181  1.00  0.00    -0.228 C  
BRANCH  10  11
HETATM   11  S   UNL     1      -9.819  11.266  65.867  1.00  0.00    -0.244 SA 
BRANCH  11  12
HETATM   12  C   UNL     1     -10.174  12.975  66.346  1.00  0.00    -0.280 A  
HETATM   13 CL   UNL     1      -8.027  13.548  68.078  1.00  0.00    -0.137 Cl 
HETATM   14  C   UNL     1     -11.045  15.673  66.778  1.00  0.00    -0.169 A  
HETATM   15  C   UNL     1      -9.447  13.875  67.158  1.00  0.00    -0.246 A  
HETATM   16  C   UNL     1      -9.873  15.209  67.343  1.00  0.00    -0.224 A  
HETATM   17  C   UNL     1     -11.819  14.805  66.033  1.00  0.00    -0.201 A  
HETATM   18  C   UNL     1     -11.401  13.481  65.822  1.00  0.00    -0.305 A  
HETATM   19 CL   UNL     1     -12.526  12.524  64.889  1.00  0.00    -0.555 Cl 
ENDBRANCH  11  12
ENDBRANCH  10  11
BRANCH  10  20
HETATM   20  C   UNL     1      -9.499  10.336  68.512  1.00  0.00    -0.158 C  
BRANCH  20  21
HETATM   21  N   UNL     1     -10.249   9.982  69.710  1.00  0.00    -0.238 NA 
HETATM   22  C   UNL     1     -11.510  10.414  70.023  1.00  0.00    -0.308 A  
HETATM   23  N   UNL     1     -11.907   9.934  71.177  1.00  0.00    -0.356 NA 
HETATM   24  C   UNL     1      -9.791   9.250  70.768  1.00  0.00    -0.283 A  
HETATM   25  C   UNL     1     -10.847   9.203  71.650  1.00  0.00    -0.372 A  
ENDBRANCH  20  21
ENDBRANCH  10  20
ENDBRANCH   9  10
ENDBRANCH   8   9
ENDBRANCH   5   8
TORSDOF 7
ENDMDL
MODEL      316
REMARK 921   NORMALIZED FREE ENERGY PREDICTED BY IDOCK:   -4.19 KCAL/MOL
REMARK 922        TOTAL FREE ENERGY PREDICTED BY IDOCK:   -6.79 KCAL/MOL
REMARK 923 INTER-LIGAND FREE ENERGY PREDICTED BY IDOCK:   -6.05 KCAL/MOL
REMARK 924 INTRA-LIGAND FREE ENERGY PREDICTED BY IDOCK:   -0.74 KCAL/MOL
REMARK 927      BINDING AFFINITY PREDICTED BY RF-SCORE:    0.00 PKD
ROOT
HETATM    1 CL   UNL     1      -8.347   4.532  71.970  1.00  0.00    -0.110 Cl 
HETATM    2  C   UNL     1      -8.555   5.876  70.916  1.00  0.00    -0.131 A  
HETATM    3  C   UNL     1      -9.415   5.771  69.828  1.00  0.00    -0.183 A  
HETATM    4  C   UNL     1      -9.552   6.848  68.950  1.00  0.00    -0.139 A  
HETATM    5  C   UNL     1      -8.838   8.041  69.154  1.00  0.00    -0.145 A  
HETATM    6  C   UNL     1      -7.992   8.137  70.267  1.00  0.00    -0.103 A  
HETATM    7  C   UNL     1      -7.851   7.055  71.143  1.00  0.00    -0.099 A  
ENDROOT
BRANCH   5   8
HETATM    8  C   UNL     1      -8.923   9.167  68.146  1.00  0.00    -0.129 C  
BRANCH   8   9
HETATM    9  C   UNL     1      -9.246  10.523  68.776  1.00  0.00    -0.177 C  
BRANCH   9  10
HETATM   10  C   UNL     1     -10.414  11.284  68.111  1.00  0.00    -0.189 C  
BRANCH  10  11
HETATM   11  S   UNL     1      -9.984  11.729  66.376  1.00  0.00    -0.217 SA 
BRANCH  11  12
HETATM   12  C   UNL     1      -9.949  13.515  66.083  1.00  0.00    -0.304 A  
HETATM   13 CL   UNL     1     -12.261  13.889  64.515  1.00  0.00    -0.450 Cl 
HETATM   14  C   UNL     1      -9.569  16.353  65.931  1.00  0.00    -0.309 A  
HETATM   15  C   UNL     1     -10.864  14.357  65.410  1.00  0.00    -0.344 A  
HETATM   16  C   UNL     1     -10.678  15.756  65.363  1.00  0.00    -0.420 A  
HETATM   17  C   UNL     1      -8.619  15.557  66.539  1.00  0.00    -0.320 A  
HETATM   18  C   UNL     1      -8.796  14.166  66.613  1.00  0.00    -0.114 A  
HETATM   19 CL   UNL     1      -7.474  13.324  67.383  1.00  0.00    -0.160 Cl 
ENDBRANCH  11  12
ENDBRANCH  10  11
BRANCH  10  20
HETATM   20  C   UNL     1     -11.130  12.433  68.856  1.00  0.00    -0.258 C  
BRANCH  20  21
HETATM   21  N   UNL     1     -11.920  12.015  70.007  1.00  0.00    -0.339 NA 
HETATM   22  C   UNL     1     -12.283  10.729  70.304  1.00  0.00    -0.348 A  
HETATM   23  N   UNL     1     -13.007  10.677  71.397  1.00  0.00    -0.422 NA 
HETATM   24  C   UNL     1     -12.517  12.833  70.923  1.00  0.00    -0.283 A  
HETATM   25  C   UNL     1     -13.156  11.981  71.794  1.00  0.00    -0.355 A  
ENDBRANCH  20  21
ENDBRANCH  10  20
ENDBRANCH   9  10
ENDBRANCH   8   9
ENDBRANCH   5   8
TORSDOF 7
ENDMDL
MODEL      317
REMARK 921   NORMALIZED FREE ENERGY PREDICTED BY IDOCK:   -4.18 KCAL/MOL
REMARK 922        TOTAL FREE ENERGY PREDICTED BY IDOCK:   -6.78 KCAL/MOL
REMARK 923 INTER-LIGAND FREE ENERGY PREDICTED BY IDOCK:   -5.85 KCAL/MOL
REMARK 924 INTRA-LIGAND FREE ENERGY PREDICTED BY IDOCK:   -0.93 KCAL/MOL
REMARK 927      BINDING AFFINITY PREDICTED BY RF-SCORE:    0.00 PKD
ROOT
HETATM    1 CL   UNL     1      -5.134  15.405  71.475  1.00  0.00    -0.152 Cl 
HETATM    2  C   UNL     1      -5.491  14.252  70.249  1.00  0.00    -0.112 A  
HETATM    3  C   UNL     1      -5.651  14.674  68.932  1.00  0.00    -0.087 A  
HETATM    4  C   UNL     1      -5.980  13.743  67.945  1.00  0.00    -0.145 A  
HETATM    5  C   UNL     1      -6.145  12.384  68.260  1.00  0.00    -0.055 A  
HETATM    6  C   UNL     1      -5.960  11.974  69.586  1.00  0.00    -0.120 A  
HETATM    7  C   UNL     1      -5.636  12.907  70.577  1.00  0.00    -0.174 A  
ENDROOT
BRANCH   5   8
HETATM    8  C   UNL     1      -6.594  11.401  67.199  1.00  0.00    -0.118 C  
BRANCH   8   9
HETATM    9  C   UNL     1      -8.057  11.577  66.789  1.00  0.00    -0.158 C  
BRANCH   9  10
HETATM   10  C   UNL     1      -8.874  10.268  66.729  1.00  0.00    -0.133 C  
BRANCH  10  11
HETATM   11  S   UNL     1     -10.674  10.628  66.885  1.00  0.00    -0.204 SA 
BRANCH  11  12
HETATM   12  C   UNL     1     -11.240  11.937  65.771  1.00  0.00    -0.312 A  
HETATM   13 CL   UNL     1     -10.307  11.016  63.276  1.00  0.00    -0.376 Cl 
HETATM   14  C   UNL     1     -12.376  14.158  64.357  1.00  0.00    -0.410 A  
HETATM   15  C   UNL     1     -11.146  12.056  64.365  1.00  0.00    -0.342 A  
HETATM   16  C   UNL     1     -11.731  13.143  63.678  1.00  0.00    -0.505 A  
HETATM   17  C   UNL     1     -12.430  14.112  65.736  1.00  0.00    -0.490 A  
HETATM   18  C   UNL     1     -11.872  13.030  66.435  1.00  0.00    -0.405 A  
HETATM   19 CL   UNL     1     -12.003  13.166  68.171  1.00  0.00    -0.371 Cl 
ENDBRANCH  11  12
ENDBRANCH  10  11
BRANCH  10  20
HETATM   20  C   UNL     1      -8.444   9.034  67.554  1.00  0.00    -0.116 C  
BRANCH  20  21
HETATM   21  N   UNL     1      -9.080   8.922  68.860  1.00  0.00    -0.140 NA 
HETATM   22  C   UNL     1     -10.124   8.095  69.175  1.00  0.00    -0.202 A  
HETATM   23  N   UNL     1     -10.485   8.235  70.429  1.00  0.00    -0.210 NA 
HETATM   24  C   UNL     1      -8.817   9.688  69.960  1.00  0.00    -0.232 A  
HETATM   25  C   UNL     1      -9.674   9.222  70.930  1.00  0.00    -0.276 A  
ENDBRANCH  20  21
ENDBRANCH  10  20
ENDBRANCH   9  10
ENDBRANCH   8   9
ENDBRANCH   5   8
TORSDOF 7
ENDMDL
MODEL      318
REMARK 921   NORMALIZED FREE ENERGY PREDICTED BY IDOCK:   -4.18 KCAL/MOL
REMARK 922        TOTAL FREE ENERGY PREDICTED BY IDOCK:   -6.77 KCAL/MOL
REMARK 923 INTER-LIGAND FREE ENERGY PREDICTED BY IDOCK:   -6.15 KCAL/MOL
REMARK 924 INTRA-LIGAND FREE ENERGY PREDICTED BY IDOCK:   -0.62 KCAL/MOL
REMARK 927      BINDING AFFINITY PREDICTED BY RF-SCORE:    0.00 PKD
ROOT
HETATM    1 CL   UNL     1      -9.639   4.565  65.314  1.00  0.00    -0.174 Cl 
HETATM    2  C   UNL     1      -9.512   6.029  66.208  1.00  0.00    -0.127 A  
HETATM    3  C   UNL     1      -8.424   6.871  66.000  1.00  0.00    -0.140 A  
HETATM    4  C   UNL     1      -8.301   8.039  66.756  1.00  0.00    -0.116 A  
HETATM    5  C   UNL     1      -9.265   8.382  67.718  1.00  0.00    -0.142 A  
HETATM    6  C   UNL     1     -10.365   7.534  67.899  1.00  0.00    -0.266 A  
HETATM    7  C   UNL     1     -10.486   6.360  67.147  1.00  0.00    -0.342 A  
ENDROOT
BRANCH   5   8
HETATM    8  C   UNL     1      -9.074   9.601  68.595  1.00  0.00    -0.132 C  
BRANCH   8   9
HETATM    9  C   UNL     1      -9.121  10.919  67.821  1.00  0.00    -0.149 C  
BRANCH   9  10
HETATM   10  C   UNL     1     -10.142  10.954  66.663  1.00  0.00    -0.219 C  
BRANCH  10  11
HETATM   11  S   UNL     1      -9.478  11.933  65.251  1.00  0.00     0.007 SA 
BRANCH  11  12
HETATM   12  C   UNL     1     -10.323  13.516  65.018  1.00  0.00    -0.362 A  
HETATM   13 CL   UNL     1      -8.672  15.272  66.477  1.00  0.00    -0.330 Cl 
HETATM   14  C   UNL     1     -11.906  15.809  64.341  1.00  0.00    -0.148 A  
HETATM   15  C   UNL     1      -9.977  14.818  65.447  1.00  0.00    -0.334 A  
HETATM   16  C   UNL     1     -10.752  15.942  65.087  1.00  0.00    -0.449 A  
HETATM   17  C   UNL     1     -12.315  14.546  63.960  1.00  0.00    -0.207 A  
HETATM   18  C   UNL     1     -11.547  13.419  64.292  1.00  0.00    -0.402 A  
HETATM   19 CL   UNL     1     -12.241  11.907  63.759  1.00  0.00    -0.561 Cl 
ENDBRANCH  11  12
ENDBRANCH  10  11
BRANCH  10  20
HETATM   20  C   UNL     1     -11.634  11.251  66.939  1.00  0.00     0.090 C  
BRANCH  20  21
HETATM   21  N   UNL     1     -11.888  12.030  68.144  1.00  0.00    -0.471 NA 
HETATM   22  C   UNL     1     -11.914  13.396  68.223  1.00  0.00    -0.317 A  
HETATM   23  N   UNL     1     -12.153  13.799  69.449  1.00  0.00    -0.337 NA 
HETATM   24  C   UNL     1     -12.038  11.542  69.410  1.00  0.00    -0.279 A  
HETATM   25  C   UNL     1     -12.236  12.653  70.197  1.00  0.00    -0.238 A  
ENDBRANCH  20  21
ENDBRANCH  10  20
ENDBRANCH   9  10
ENDBRANCH   8   9
ENDBRANCH   5   8
TORSDOF 7
ENDMDL
MODEL      319
REMARK 921   NORMALIZED FREE ENERGY PREDICTED BY IDOCK:   -4.17 KCAL/MOL
REMARK 922        TOTAL FREE ENERGY PREDICTED BY IDOCK:   -6.76 KCAL/MOL
REMARK 923 INTER-LIGAND FREE ENERGY PREDICTED BY IDOCK:   -5.73 KCAL/MOL
REMARK 924 INTRA-LIGAND FREE ENERGY PREDICTED BY IDOCK:   -1.03 KCAL/MOL
REMARK 927      BINDING AFFINITY PREDICTED BY RF-SCORE:    0.00 PKD
ROOT
HETATM    1 CL   UNL     1     -13.397  15.510  71.886  1.00  0.00    -0.530 Cl 
HETATM    2  C   UNL     1     -12.746  14.252  70.910  1.00  0.00    -0.357 A  
HETATM    3  C   UNL     1     -12.263  14.545  69.638  1.00  0.00    -0.336 A  
HETATM    4  C   UNL     1     -11.772  13.516  68.832  1.00  0.00    -0.379 A  
HETATM    5  C   UNL     1     -11.752  12.188  69.289  1.00  0.00    -0.386 A  
HETATM    6  C   UNL     1     -12.223  11.913  70.579  1.00  0.00    -0.426 A  
HETATM    7  C   UNL     1     -12.720  12.943  71.386  1.00  0.00    -0.366 A  
ENDROOT
BRANCH   5   8
HETATM    8  C   UNL     1     -11.306  11.069  68.373  1.00  0.00    -0.363 C  
BRANCH   8   9
HETATM    9  C   UNL     1      -9.786  10.914  68.299  1.00  0.00    -0.171 C  
BRANCH   9  10
HETATM   10  C   UNL     1      -9.119  11.627  67.103  1.00  0.00    -0.171 C  
BRANCH  10  11
HETATM   11  S   UNL     1      -9.381  10.664  65.555  1.00  0.00    -0.220 SA 
BRANCH  11  12
HETATM   12  C   UNL     1      -8.733   8.976  65.644  1.00  0.00    -0.175 A  
HETATM   13 CL   UNL     1     -10.745   7.661  67.113  1.00  0.00    -0.401 Cl 
HETATM   14  C   UNL     1      -7.404   6.441  65.482  1.00  0.00    -0.076 A  
HETATM   15  C   UNL     1      -9.291   7.802  66.199  1.00  0.00    -0.100 A  
HETATM   16  C   UNL     1      -8.638   6.555  66.091  1.00  0.00    -0.146 A  
HETATM   17  C   UNL     1      -6.794   7.577  64.986  1.00  0.00    -0.047 A  
HETATM   18  C   UNL     1      -7.437   8.822  65.067  1.00  0.00    -0.097 A  
HETATM   19 CL   UNL     1      -6.498  10.147  64.423  1.00  0.00    -0.131 Cl 
ENDBRANCH  11  12
ENDBRANCH  10  11
BRANCH  10  20
HETATM   20  C   UNL     1      -7.680  12.179  67.219  1.00  0.00    -0.168 C  
BRANCH  20  21
HETATM   21  N   UNL     1      -7.560  13.409  67.993  1.00  0.00    -0.127 NA 
HETATM   22  C   UNL     1      -8.392  14.492  67.910  1.00  0.00    -0.159 A  
HETATM   23  N   UNL     1      -8.013  15.450  68.722  1.00  0.00    -0.146 NA 
HETATM   24  C   UNL     1      -6.548  13.732  68.851  1.00  0.00    -0.104 A  
HETATM   25  C   UNL     1      -6.867  14.987  69.317  1.00  0.00    -0.149 A  
ENDBRANCH  20  21
ENDBRANCH  10  20
ENDBRANCH   9  10
ENDBRANCH   8   9
ENDBRANCH   5   8
TORSDOF 7
ENDMDL
MODEL      320
REMARK 921   NORMALIZED FREE ENERGY PREDICTED BY IDOCK:   -4.17 KCAL/MOL
REMARK 922        TOTAL FREE ENERGY PREDICTED BY IDOCK:   -6.76 KCAL/MOL
REMARK 923 INTER-LIGAND FREE ENERGY PREDICTED BY IDOCK:   -5.91 KCAL/MOL
REMARK 924 INTRA-LIGAND FREE ENERGY PREDICTED BY IDOCK:   -0.85 KCAL/MOL
REMARK 927      BINDING AFFINITY PREDICTED BY RF-SCORE:    0.00 PKD
ROOT
HETATM    1 CL   UNL     1     -13.258   6.673  71.826  1.00  0.00    -0.236 Cl 
HETATM    2  C   UNL     1     -12.083   7.747  71.173  1.00  0.00    -0.286 A  
HETATM    3  C   UNL     1     -10.974   7.233  70.507  1.00  0.00    -0.282 A  
HETATM    4  C   UNL     1     -10.001   8.104  70.013  1.00  0.00    -0.192 A  
HETATM    5  C   UNL     1     -10.129   9.494  70.172  1.00  0.00    -0.293 A  
HETATM    6  C   UNL     1     -11.261   9.995  70.826  1.00  0.00    -0.428 A  
HETATM    7  C   UNL     1     -12.234   9.123  71.326  1.00  0.00    -0.395 A  
ENDROOT
BRANCH   5   8
HETATM    8  C   UNL     1      -9.023  10.423  69.715  1.00  0.00     0.024 C  
BRANCH   8   9
HETATM    9  C   UNL     1      -9.008  10.651  68.203  1.00  0.00    -0.141 C  
BRANCH   9  10
HETATM   10  C   UNL     1     -10.373  10.464  67.505  1.00  0.00    -0.224 C  
BRANCH  10  11
HETATM   11  S   UNL     1     -10.238   9.221  66.153  1.00  0.00    -0.027 SA 
BRANCH  11  12
HETATM   12  C   UNL     1      -9.403   9.856  64.678  1.00  0.00    -0.277 A  
HETATM   13 CL   UNL     1     -11.379  11.533  63.573  1.00  0.00    -0.457 Cl 
HETATM   14  C   UNL     1      -7.708  10.680  62.517  1.00  0.00    -0.159 A  
HETATM   15  C   UNL     1      -9.827  10.796  63.712  1.00  0.00    -0.339 A  
HETATM   16  C   UNL     1      -8.974  11.212  62.666  1.00  0.00    -0.347 A  
HETATM   17  C   UNL     1      -7.282   9.709  63.402  1.00  0.00    -0.113 A  
HETATM   18  C   UNL     1      -8.108   9.298  64.460  1.00  0.00    -0.139 A  
HETATM   19 CL   UNL     1      -7.416   8.036  65.450  1.00  0.00    -0.076 Cl 
ENDBRANCH  11  12
ENDBRANCH  10  11
BRANCH  10  20
HETATM   20  C   UNL     1     -11.224  11.689  67.100  1.00  0.00    -0.309 C  
BRANCH  20  21
HETATM   21  N   UNL     1     -10.645  12.978  67.457  1.00  0.00    -0.229 NA 
HETATM   22  C   UNL     1      -9.765  13.699  66.697  1.00  0.00    -0.284 A  
HETATM   23  N   UNL     1      -9.413  14.811  67.298  1.00  0.00    -0.210 NA 
HETATM   24  C   UNL     1     -10.796  13.635  68.645  1.00  0.00    -0.263 A  
HETATM   25  C   UNL     1     -10.052  14.785  68.511  1.00  0.00    -0.230 A  
ENDBRANCH  20  21
ENDBRANCH  10  20
ENDBRANCH   9  10
ENDBRANCH   8   9
ENDBRANCH   5   8
TORSDOF 7
ENDMDL
MODEL      321
REMARK 921   NORMALIZED FREE ENERGY PREDICTED BY IDOCK:   -4.16 KCAL/MOL
REMARK 922        TOTAL FREE ENERGY PREDICTED BY IDOCK:   -6.74 KCAL/MOL
REMARK 923 INTER-LIGAND FREE ENERGY PREDICTED BY IDOCK:   -5.81 KCAL/MOL
REMARK 924 INTRA-LIGAND FREE ENERGY PREDICTED BY IDOCK:   -0.93 KCAL/MOL
REMARK 927      BINDING AFFINITY PREDICTED BY RF-SCORE:    0.00 PKD
ROOT
HETATM    1 CL   UNL     1     -12.675  13.834  64.763  1.00  0.00    -0.310 Cl 
HETATM    2  C   UNL     1     -11.833  13.027  66.027  1.00  0.00    -0.417 A  
HETATM    3  C   UNL     1     -11.164  11.836  65.759  1.00  0.00    -0.337 A  
HETATM    4  C   UNL     1     -10.515  11.161  66.794  1.00  0.00    -0.297 A  
HETATM    5  C   UNL     1     -10.521  11.670  68.104  1.00  0.00    -0.217 A  
HETATM    6  C   UNL     1     -11.181  12.880  68.352  1.00  0.00    -0.305 A  
HETATM    7  C   UNL     1     -11.836  13.554  67.316  1.00  0.00    -0.427 A  
ENDROOT
BRANCH   5   8
HETATM    8  C   UNL     1      -9.894  10.882  69.235  1.00  0.00    -0.113 C  
BRANCH   8   9
HETATM    9  C   UNL     1     -10.921  10.252  70.177  1.00  0.00    -0.377 C  
BRANCH   9  10
HETATM   10  C   UNL     1     -10.508   8.885  70.765  1.00  0.00    -0.227 C  
BRANCH  10  11
HETATM   11  S   UNL     1      -9.124   8.160  69.791  1.00  0.00    -0.148 SA 
BRANCH  11  12
HETATM   12  C   UNL     1      -8.533   6.582  70.454  1.00  0.00    -0.131 A  
HETATM   13 CL   UNL     1      -9.860   4.727  68.800  1.00  0.00    -0.233 Cl 
HETATM   14  C   UNL     1      -7.302   4.332  71.735  1.00  0.00    -0.064 A  
HETATM   15  C   UNL     1      -8.776   5.256  70.031  1.00  0.00    -0.116 A  
HETATM   16  C   UNL     1      -8.144   4.157  70.655  1.00  0.00    -0.059 A  
HETATM   17  C   UNL     1      -7.092   5.608  72.221  1.00  0.00    -0.087 A  
HETATM   18  C   UNL     1      -7.696   6.714  71.601  1.00  0.00    -0.098 A  
HETATM   19 CL   UNL     1      -7.346   8.239  72.378  1.00  0.00    -0.132 Cl 
ENDBRANCH  11  12
ENDBRANCH  10  11
BRANCH  10  20
HETATM   20  C   UNL     1     -11.579   7.837  71.144  1.00  0.00    -0.281 C  
BRANCH  20  21
HETATM   21  N   UNL     1     -11.219   6.975  72.263  1.00  0.00    -0.254 NA 
HETATM   22  C   UNL     1     -11.528   5.648  72.384  1.00  0.00    -0.251 A  
HETATM   23  N   UNL     1     -11.079   5.152  73.513  1.00  0.00    -0.320 NA 
HETATM   24  C   UNL     1     -10.608   7.362  73.422  1.00  0.00    -0.377 A  
HETATM   25  C   UNL     1     -10.500   6.210  74.167  1.00  0.00    -0.231 A  
ENDBRANCH  20  21
ENDBRANCH  10  20
ENDBRANCH   9  10
ENDBRANCH   8   9
ENDBRANCH   5   8
TORSDOF 7
ENDMDL
MODEL      322
REMARK 921   NORMALIZED FREE ENERGY PREDICTED BY IDOCK:   -4.16 KCAL/MOL
REMARK 922        TOTAL FREE ENERGY PREDICTED BY IDOCK:   -6.74 KCAL/MOL
REMARK 923 INTER-LIGAND FREE ENERGY PREDICTED BY IDOCK:   -5.29 KCAL/MOL
REMARK 924 INTRA-LIGAND FREE ENERGY PREDICTED BY IDOCK:   -1.45 KCAL/MOL
REMARK 927      BINDING AFFINITY PREDICTED BY RF-SCORE:    0.00 PKD
ROOT
HETATM    1 CL   UNL     1      -9.205   2.778  64.943  1.00  0.00    -0.146 Cl 
HETATM    2  C   UNL     1      -9.356   4.308  65.715  1.00  0.00    -0.164 A  
HETATM    3  C   UNL     1      -8.216   5.057  65.990  1.00  0.00    -0.113 A  
HETATM    4  C   UNL     1      -8.338   6.280  66.654  1.00  0.00    -0.112 A  
HETATM    5  C   UNL     1      -9.596   6.769  67.041  1.00  0.00    -0.188 A  
HETATM    6  C   UNL     1     -10.735   6.012  66.738  1.00  0.00    -0.374 A  
HETATM    7  C   UNL     1     -10.613   4.784  66.079  1.00  0.00    -0.300 A  
ENDROOT
BRANCH   5   8
HETATM    8  C   UNL     1      -9.707   8.050  67.842  1.00  0.00    -0.189 C  
BRANCH   8   9
HETATM    9  C   UNL     1     -10.898   8.919  67.434  1.00  0.00    -0.096 C  
BRANCH   9  10
HETATM   10  C   UNL     1     -10.799  10.398  67.868  1.00  0.00    -0.279 C  
BRANCH  10  11
HETATM   11  S   UNL     1      -9.972  11.396  66.560  1.00  0.00    -0.217 SA 
BRANCH  11  12
HETATM   12  C   UNL     1      -8.171  11.214  66.554  1.00  0.00    -0.167 A  
HETATM   13 CL   UNL     1      -7.378  13.251  68.332  1.00  0.00    -0.105 Cl 
HETATM   14  C   UNL     1      -5.393  10.541  66.324  1.00  0.00    -0.070 A  
HETATM   15  C   UNL     1      -7.173  11.897  67.285  1.00  0.00    -0.147 A  
HETATM   16  C   UNL     1      -5.810  11.540  67.182  1.00  0.00    -0.110 A  
HETATM   17  C   UNL     1      -6.330   9.896  65.542  1.00  0.00    -0.086 A  
HETATM   18  C   UNL     1      -7.692  10.224  65.645  1.00  0.00    -0.148 A  
HETATM   19 CL   UNL     1      -8.720   9.331  64.552  1.00  0.00    -0.220 Cl 
ENDBRANCH  11  12
ENDBRANCH  10  11
BRANCH  10  20
HETATM   20  C   UNL     1     -10.319  10.770  69.289  1.00  0.00    -0.205 C  
BRANCH  20  21
HETATM   21  N   UNL     1     -11.227  10.382  70.361  1.00  0.00    -0.314 NA 
HETATM   22  C   UNL     1     -11.063   9.315  71.202  1.00  0.00    -0.341 A  
HETATM   23  N   UNL     1     -12.059   9.218  72.051  1.00  0.00    -0.359 NA 
HETATM   24  C   UNL     1     -12.439  10.946  70.643  1.00  0.00    -0.369 A  
HETATM   25  C   UNL     1     -12.920  10.231  71.715  1.00  0.00    -0.469 A  
ENDBRANCH  20  21
ENDBRANCH  10  20
ENDBRANCH   9  10
ENDBRANCH   8   9
ENDBRANCH   5   8
TORSDOF 7
ENDMDL
MODEL      323
REMARK 921   NORMALIZED FREE ENERGY PREDICTED BY IDOCK:   -4.16 KCAL/MOL
REMARK 922        TOTAL FREE ENERGY PREDICTED BY IDOCK:   -6.74 KCAL/MOL
REMARK 923 INTER-LIGAND FREE ENERGY PREDICTED BY IDOCK:   -5.87 KCAL/MOL
REMARK 924 INTRA-LIGAND FREE ENERGY PREDICTED BY IDOCK:   -0.87 KCAL/MOL
REMARK 927      BINDING AFFINITY PREDICTED BY RF-SCORE:    0.00 PKD
ROOT
HETATM    1 CL   UNL     1     -12.547  14.125  65.703  1.00  0.00    -0.512 Cl 
HETATM    2  C   UNL     1     -11.749  12.678  66.185  1.00  0.00    -0.406 A  
HETATM    3  C   UNL     1     -11.002  11.962  65.255  1.00  0.00    -0.354 A  
HETATM    4  C   UNL     1     -10.388  10.767  65.636  1.00  0.00    -0.297 A  
HETATM    5  C   UNL     1     -10.508  10.281  66.949  1.00  0.00    -0.291 A  
HETATM    6  C   UNL     1     -11.246  11.025  67.877  1.00  0.00    -0.375 A  
HETATM    7  C   UNL     1     -11.866  12.220  67.494  1.00  0.00    -0.331 A  
ENDROOT
BRANCH   5   8
HETATM    8  C   UNL     1      -9.917   8.939  67.326  1.00  0.00    -0.277 C  
BRANCH   8   9
HETATM    9  C   UNL     1      -9.570   8.824  68.811  1.00  0.00    -0.160 C  
BRANCH   9  10
HETATM   10  C   UNL     1      -8.861   7.512  69.211  1.00  0.00    -0.136 C  
BRANCH  10  11
HETATM   11  S   UNL     1      -7.888   6.850  67.794  1.00  0.00    -0.114 SA 
BRANCH  11  12
HETATM   12  C   UNL     1      -8.163   5.085  67.500  1.00  0.00    -0.106 A  
HETATM   13 CL   UNL     1     -10.703   5.092  66.280  1.00  0.00    -0.344 Cl 
HETATM   14  C   UNL     1      -8.166   2.240  67.144  1.00  0.00    -0.079 A  
HETATM   15  C   UNL     1      -9.230   4.412  66.861  1.00  0.00    -0.140 A  
HETATM   16  C   UNL     1      -9.208   3.013  66.671  1.00  0.00    -0.152 A  
HETATM   17  C   UNL     1      -7.138   2.852  67.833  1.00  0.00    -0.049 A  
HETATM   18  C   UNL     1      -7.133   4.244  68.016  1.00  0.00    -0.060 A  
HETATM   19 CL   UNL     1      -5.774   4.832  68.942  1.00  0.00    -0.016 Cl 
ENDBRANCH  11  12
ENDBRANCH  10  11
BRANCH  10  20
HETATM   20  C   UNL     1      -9.627   6.405  69.971  1.00  0.00    -0.158 C  
BRANCH  20  21
HETATM   21  N   UNL     1     -10.683   6.889  70.851  1.00  0.00    -0.226 NA 
HETATM   22  C   UNL     1     -12.028   6.771  70.628  1.00  0.00    -0.362 A  
HETATM   23  N   UNL     1     -12.724   7.320  71.595  1.00  0.00    -0.363 NA 
HETATM   24  C   UNL     1     -10.518   7.628  71.988  1.00  0.00    -0.213 A  
HETATM   25  C   UNL     1     -11.794   7.854  72.451  1.00  0.00    -0.348 A  
ENDBRANCH  20  21
ENDBRANCH  10  20
ENDBRANCH   9  10
ENDBRANCH   8   9
ENDBRANCH   5   8
TORSDOF 7
ENDMDL
MODEL      324
REMARK 921   NORMALIZED FREE ENERGY PREDICTED BY IDOCK:   -4.14 KCAL/MOL
REMARK 922        TOTAL FREE ENERGY PREDICTED BY IDOCK:   -6.72 KCAL/MOL
REMARK 923 INTER-LIGAND FREE ENERGY PREDICTED BY IDOCK:   -6.95 KCAL/MOL
REMARK 924 INTRA-LIGAND FREE ENERGY PREDICTED BY IDOCK:    0.24 KCAL/MOL
REMARK 927      BINDING AFFINITY PREDICTED BY RF-SCORE:    0.00 PKD
ROOT
HETATM    1 CL   UNL     1     -13.777  15.424  73.299  1.00  0.00    -0.351 Cl 
HETATM    2  C   UNL     1     -12.915  14.935  71.892  1.00  0.00    -0.333 A  
HETATM    3  C   UNL     1     -11.786  15.645  71.494  1.00  0.00    -0.493 A  
HETATM    4  C   UNL     1     -11.112  15.272  70.329  1.00  0.00    -0.316 A  
HETATM    5  C   UNL     1     -11.552  14.184  69.557  1.00  0.00    -0.349 A  
HETATM    6  C   UNL     1     -12.678  13.468  69.983  1.00  0.00    -0.005 A  
HETATM    7  C   UNL     1     -13.357  13.845  71.147  1.00  0.00    -0.255 A  
ENDROOT
BRANCH   5   8
HETATM    8  C   UNL     1     -10.870  13.848  68.248  1.00  0.00    -0.263 C  
BRANCH   8   9
HETATM    9  C   UNL     1     -10.927  14.983  67.224  1.00  0.00    -0.326 C  
BRANCH   9  10
HETATM   10  C   UNL     1      -9.931  14.848  66.051  1.00  0.00    -0.313 C  
BRANCH  10  11
HETATM   11  S   UNL     1      -8.467  15.931  66.325  1.00  0.00    -0.150 SA 
BRANCH  11  12
HETATM   12  C   UNL     1      -8.902  17.669  66.586  1.00  0.00    -0.263 A  
HETATM   13 CL   UNL     1     -11.405  17.453  67.862  1.00  0.00     0.153 Cl 
HETATM   14  C   UNL     1      -9.167  20.509  66.878  1.00  0.00    -0.400 A  
HETATM   15  C   UNL     1     -10.014  18.254  67.233  1.00  0.00    -0.335 A  
HETATM   16  C   UNL     1     -10.122  19.653  67.392  1.00  0.00    -0.536 A  
HETATM   17  C   UNL     1      -8.099  19.980  66.181  1.00  0.00    -0.307 A  
HETATM   18  C   UNL     1      -7.966  18.590  66.030  1.00  0.00    -0.119 A  
HETATM   19 CL   UNL     1      -6.576  18.111  65.086  1.00  0.00     0.001 Cl 
ENDBRANCH  11  12
ENDBRANCH  10  11
BRANCH  10  20
HETATM   20  C   UNL     1     -10.429  14.885  64.589  1.00  0.00    -0.111 C  
BRANCH  20  21
HETATM   21  N   UNL     1     -11.076  13.661  64.134  1.00  0.00    -0.307 NA 
HETATM   22  C   UNL     1     -10.441  12.494  63.804  1.00  0.00    -0.419 A  
HETATM   23  N   UNL     1     -11.296  11.578  63.415  1.00  0.00    -0.310 NA 
HETATM   24  C   UNL     1     -12.404  13.498  63.860  1.00  0.00    -0.334 A  
HETATM   25  C   UNL     1     -12.523  12.190  63.449  1.00  0.00    -0.512 A  
ENDBRANCH  20  21
ENDBRANCH  10  20
ENDBRANCH   9  10
ENDBRANCH   8   9
ENDBRANCH   5   8
TORSDOF 7
ENDMDL
MODEL      325
REMARK 921   NORMALIZED FREE ENERGY PREDICTED BY IDOCK:   -4.14 KCAL/MOL
REMARK 922        TOTAL FREE ENERGY PREDICTED BY IDOCK:   -6.72 KCAL/MOL
REMARK 923 INTER-LIGAND FREE ENERGY PREDICTED BY IDOCK:   -5.16 KCAL/MOL
REMARK 924 INTRA-LIGAND FREE ENERGY PREDICTED BY IDOCK:   -1.55 KCAL/MOL
REMARK 927      BINDING AFFINITY PREDICTED BY RF-SCORE:    0.00 PKD
ROOT
HETATM    1 CL   UNL     1     -10.404  14.583  67.986  1.00  0.00    -0.227 Cl 
HETATM    2  C   UNL     1     -10.527  12.904  67.630  1.00  0.00    -0.224 A  
HETATM    3  C   UNL     1     -11.295  12.081  68.448  1.00  0.00    -0.332 A  
HETATM    4  C   UNL     1     -11.360  10.712  68.182  1.00  0.00    -0.354 A  
HETATM    5  C   UNL     1     -10.668  10.154  67.094  1.00  0.00    -0.286 A  
HETATM    6  C   UNL     1      -9.917  11.000  66.269  1.00  0.00    -0.269 A  
HETATM    7  C   UNL     1      -9.846  12.371  66.539  1.00  0.00    -0.244 A  
ENDROOT
BRANCH   5   8
HETATM    8  C   UNL     1     -10.671   8.656  66.871  1.00  0.00    -0.152 C  
BRANCH   8   9
HETATM    9  C   UNL     1      -9.365   8.129  66.272  1.00  0.00    -0.259 C  
BRANCH   9  10
HETATM   10  C   UNL     1      -8.997   6.689  66.689  1.00  0.00    -0.142 C  
BRANCH  10  11
HETATM   11  S   UNL     1      -8.099   6.696  68.297  1.00  0.00    -0.111 SA 
BRANCH  11  12
HETATM   12  C   UNL     1      -9.046   7.451  69.641  1.00  0.00    -0.140 A  
HETATM   13 CL   UNL     1      -7.994  10.064  69.693  1.00  0.00    -0.158 Cl 
HETATM   14  C   UNL     1     -10.804   8.278  71.750  1.00  0.00    -0.332 A  
HETATM   15  C   UNL     1      -9.044   8.773  70.142  1.00  0.00    -0.167 A  
HETATM   16  C   UNL     1      -9.931   9.174  71.165  1.00  0.00    -0.377 A  
HETATM   17  C   UNL     1     -10.790   6.961  71.335  1.00  0.00    -0.256 A  
HETATM   18  C   UNL     1      -9.928   6.548  70.307  1.00  0.00    -0.174 A  
HETATM   19 CL   UNL     1     -10.024   4.842  69.945  1.00  0.00    -0.301 Cl 
ENDBRANCH  11  12
ENDBRANCH  10  11
BRANCH  10  20
HETATM   20  C   UNL     1      -8.374   5.710  65.667  1.00  0.00    -0.135 C  
BRANCH  20  21
HETATM   21  N   UNL     1      -8.368   4.314  66.086  1.00  0.00    -0.109 NA 
HETATM   22  C   UNL     1      -7.293   3.469  66.044  1.00  0.00    -0.072 A  
HETATM   23  N   UNL     1      -7.608   2.271  66.473  1.00  0.00    -0.069 NA 
HETATM   24  C   UNL     1      -9.449   3.583  66.490  1.00  0.00    -0.153 A  
HETATM   25  C   UNL     1      -8.949   2.330  66.758  1.00  0.00    -0.119 A  
ENDBRANCH  20  21
ENDBRANCH  10  20
ENDBRANCH   9  10
ENDBRANCH   8   9
ENDBRANCH   5   8
TORSDOF 7
ENDMDL
MODEL      326
REMARK 921   NORMALIZED FREE ENERGY PREDICTED BY IDOCK:   -4.12 KCAL/MOL
REMARK 922        TOTAL FREE ENERGY PREDICTED BY IDOCK:   -6.69 KCAL/MOL
REMARK 923 INTER-LIGAND FREE ENERGY PREDICTED BY IDOCK:   -5.63 KCAL/MOL
REMARK 924 INTRA-LIGAND FREE ENERGY PREDICTED BY IDOCK:   -1.05 KCAL/MOL
REMARK 927      BINDING AFFINITY PREDICTED BY RF-SCORE:    0.00 PKD
ROOT
HETATM    1 CL   UNL     1     -14.346   7.126  71.626  1.00  0.00    -0.557 Cl 
HETATM    2  C   UNL     1     -12.728   7.606  71.289  1.00  0.00    -0.275 A  
HETATM    3  C   UNL     1     -12.273   8.846  71.726  1.00  0.00    -0.429 A  
HETATM    4  C   UNL     1     -10.973   9.251  71.417  1.00  0.00    -0.429 A  
HETATM    5  C   UNL     1     -10.114   8.421  70.678  1.00  0.00    -0.220 A  
HETATM    6  C   UNL     1     -10.582   7.168  70.264  1.00  0.00    -0.245 A  
HETATM    7  C   UNL     1     -11.887   6.764  70.568  1.00  0.00    -0.418 A  
ENDROOT
BRANCH   5   8
HETATM    8  C   UNL     1      -8.740   8.910  70.269  1.00  0.00    -0.183 C  
BRANCH   8   9
HETATM    9  C   UNL     1      -8.467   8.768  68.771  1.00  0.00    -0.129 C  
BRANCH   9  10
HETATM   10  C   UNL     1      -8.591  10.079  67.963  1.00  0.00    -0.121 C  
BRANCH  10  11
HETATM   11  S   UNL     1      -7.170  10.256  66.805  1.00  0.00    -0.110 SA 
BRANCH  11  12
HETATM   12  C   UNL     1      -7.355   9.279  65.292  1.00  0.00    -0.094 A  
HETATM   13 CL   UNL     1      -5.350   7.327  65.615  1.00  0.00    -0.027 Cl 
HETATM   14  C   UNL     1      -8.030   7.964  62.835  1.00  0.00    -0.145 A  
HETATM   15  C   UNL     1      -6.687   8.111  64.861  1.00  0.00    -0.055 A  
HETATM   16  C   UNL     1      -7.045   7.459  63.660  1.00  0.00    -0.066 A  
HETATM   17  C   UNL     1      -8.660   9.141  63.187  1.00  0.00    -0.186 A  
HETATM   18  C   UNL     1      -8.332   9.793  64.387  1.00  0.00    -0.168 A  
HETATM   19 CL   UNL     1      -9.204  11.284  64.644  1.00  0.00    -0.146 Cl 
ENDBRANCH  11  12
ENDBRANCH  10  11
BRANCH  10  20
HETATM   20  C   UNL     1      -8.948  11.406  68.669  1.00  0.00    -0.131 C  
BRANCH  20  21
HETATM   21  N   UNL     1     -10.082  12.117  68.092  1.00  0.00    -0.201 NA 
HETATM   22  C   UNL     1     -11.362  11.642  67.999  1.00  0.00    -0.296 A  
HETATM   23  N   UNL     1     -12.154  12.511  67.415  1.00  0.00    -0.455 NA 
HETATM   24  C   UNL     1     -10.045  13.326  67.458  1.00  0.00    -0.223 A  
HETATM   25  C   UNL     1     -11.345  13.566  67.077  1.00  0.00    -0.324 A  
ENDBRANCH  20  21
ENDBRANCH  10  20
ENDBRANCH   9  10
ENDBRANCH   8   9
ENDBRANCH   5   8
TORSDOF 7
ENDMDL
MODEL      327
REMARK 921   NORMALIZED FREE ENERGY PREDICTED BY IDOCK:   -4.12 KCAL/MOL
REMARK 922        TOTAL FREE ENERGY PREDICTED BY IDOCK:   -6.69 KCAL/MOL
REMARK 923 INTER-LIGAND FREE ENERGY PREDICTED BY IDOCK:   -6.68 KCAL/MOL
REMARK 924 INTRA-LIGAND FREE ENERGY PREDICTED BY IDOCK:   -0.00 KCAL/MOL
REMARK 927      BINDING AFFINITY PREDICTED BY RF-SCORE:    0.00 PKD
ROOT
HETATM    1 CL   UNL     1     -11.568   5.369  72.841  1.00  0.00    -0.350 Cl 
HETATM    2  C   UNL     1     -11.711   6.981  72.258  1.00  0.00    -0.255 A  
HETATM    3  C   UNL     1     -12.951   7.456  71.841  1.00  0.00    -0.296 A  
HETATM    4  C   UNL     1     -13.058   8.751  71.331  1.00  0.00    -0.297 A  
HETATM    5  C   UNL     1     -11.932   9.586  71.238  1.00  0.00    -0.445 A  
HETATM    6  C   UNL     1     -10.695   9.099  71.681  1.00  0.00    -0.441 A  
HETATM    7  C   UNL     1     -10.586   7.800  72.187  1.00  0.00    -0.295 A  
ENDROOT
BRANCH   5   8
HETATM    8  C   UNL     1     -12.042  10.953  70.596  1.00  0.00    -0.468 C  
BRANCH   8   9
HETATM    9  C   UNL     1     -11.883  10.924  69.075  1.00  0.00    -0.370 C  
BRANCH   9  10
HETATM   10  C   UNL     1     -10.468  11.274  68.565  1.00  0.00    -0.197 C  
BRANCH  10  11
HETATM   11  S   UNL     1     -10.522  11.724  66.780  1.00  0.00    -0.234 SA 
BRANCH  11  12
HETATM   12  C   UNL     1     -10.404  13.506  66.488  1.00  0.00    -0.282 A  
HETATM   13 CL   UNL     1     -13.035  14.140  65.704  1.00  0.00    -0.437 Cl 
HETATM   14  C   UNL     1      -9.813  16.300  66.221  1.00  0.00    -0.334 A  
HETATM   15  C   UNL     1     -11.393  14.449  66.126  1.00  0.00    -0.350 A  
HETATM   16  C   UNL     1     -11.095  15.826  66.022  1.00  0.00    -0.085 A  
HETATM   17  C   UNL     1      -8.805  15.401  66.510  1.00  0.00    -0.347 A  
HETATM   18  C   UNL     1      -9.086  14.032  66.637  1.00  0.00    -0.200 A  
HETATM   19 CL   UNL     1      -7.681  13.048  66.965  1.00  0.00    -0.030 Cl 
ENDBRANCH  11  12
ENDBRANCH  10  11
BRANCH  10  20
HETATM   20  C   UNL     1      -9.262  10.372  68.912  1.00  0.00    -0.177 C  
BRANCH  20  21
HETATM   21  N   UNL     1      -9.216   9.110  68.186  1.00  0.00    -0.132 NA 
HETATM   22  C   UNL     1      -9.831   8.850  66.991  1.00  0.00    -0.214 A  
HETATM   23  N   UNL     1      -9.616   7.616  66.600  1.00  0.00    -0.201 NA 
HETATM   24  C   UNL     1      -8.645   7.946  68.615  1.00  0.00    -0.128 A  
HETATM   25  C   UNL     1      -8.874   7.043  67.602  1.00  0.00    -0.119 A  
ENDBRANCH  20  21
ENDBRANCH  10  20
ENDBRANCH   9  10
ENDBRANCH   8   9
ENDBRANCH   5   8
TORSDOF 7
ENDMDL
MODEL      328
REMARK 921   NORMALIZED FREE ENERGY PREDICTED BY IDOCK:   -4.12 KCAL/MOL
REMARK 922        TOTAL FREE ENERGY PREDICTED BY IDOCK:   -6.68 KCAL/MOL
REMARK 923 INTER-LIGAND FREE ENERGY PREDICTED BY IDOCK:   -5.67 KCAL/MOL
REMARK 924 INTRA-LIGAND FREE ENERGY PREDICTED BY IDOCK:   -1.01 KCAL/MOL
REMARK 927      BINDING AFFINITY PREDICTED BY RF-SCORE:    0.00 PKD
ROOT
HETATM    1 CL   UNL     1     -11.893  15.682  64.263  1.00  0.00    -0.285 Cl 
HETATM    2  C   UNL     1     -11.631  14.262  65.200  1.00  0.00    -0.355 A  
HETATM    3  C   UNL     1     -10.980  13.172  64.630  1.00  0.00    -0.374 A  
HETATM    4  C   UNL     1     -10.805  12.006  65.378  1.00  0.00    -0.336 A  
HETATM    5  C   UNL     1     -11.270  11.919  66.701  1.00  0.00    -0.384 A  
HETATM    6  C   UNL     1     -11.905  13.033  67.265  1.00  0.00    -0.419 A  
HETATM    7  C   UNL     1     -12.086  14.200  66.514  1.00  0.00    -0.481 A  
ENDROOT
BRANCH   5   8
HETATM    8  C   UNL     1     -11.158  10.620  67.470  1.00  0.00    -0.367 C  
BRANCH   8   9
HETATM    9  C   UNL     1      -9.793   9.944  67.324  1.00  0.00    -0.228 C  
BRANCH   9  10
HETATM   10  C   UNL     1      -9.414   8.993  68.480  1.00  0.00    -0.143 C  
BRANCH  10  11
HETATM   11  S   UNL     1      -7.701   8.356  68.252  1.00  0.00    -0.107 SA 
BRANCH  11  12
HETATM   12  C   UNL     1      -7.006   8.741  66.625  1.00  0.00    -0.080 A  
HETATM   13 CL   UNL     1      -5.973  11.330  67.036  1.00  0.00    -0.085 Cl 
HETATM   14  C   UNL     1      -5.975   8.916  63.955  1.00  0.00    -0.071 A  
HETATM   15  C   UNL     1      -6.287   9.871  66.173  1.00  0.00    -0.077 A  
HETATM   16  C   UNL     1      -5.763   9.934  64.864  1.00  0.00    -0.090 A  
HETATM   17  C   UNL     1      -6.730   7.825  64.337  1.00  0.00    -0.056 A  
HETATM   18  C   UNL     1      -7.243   7.735  65.642  1.00  0.00    -0.068 A  
HETATM   19 CL   UNL     1      -8.203   6.305  65.928  1.00  0.00    -0.122 Cl 
ENDBRANCH  11  12
ENDBRANCH  10  11
BRANCH  10  20
HETATM   20  C   UNL     1     -10.396   7.895  68.949  1.00  0.00    -0.213 C  
BRANCH  20  21
HETATM   21  N   UNL     1     -10.712   7.928  70.371  1.00  0.00    -0.229 NA 
HETATM   22  C   UNL     1     -10.390   8.934  71.241  1.00  0.00    -0.285 A  
HETATM   23  N   UNL     1     -10.797   8.664  72.458  1.00  0.00    -0.241 NA 
HETATM   24  C   UNL     1     -11.286   6.924  71.099  1.00  0.00    -0.274 A  
HETATM   25  C   UNL     1     -11.361   7.415  72.382  1.00  0.00    -0.297 A  
ENDBRANCH  20  21
ENDBRANCH  10  20
ENDBRANCH   9  10
ENDBRANCH   8   9
ENDBRANCH   5   8
TORSDOF 7
ENDMDL
MODEL      329
REMARK 921   NORMALIZED FREE ENERGY PREDICTED BY IDOCK:   -4.10 KCAL/MOL
REMARK 922        TOTAL FREE ENERGY PREDICTED BY IDOCK:   -6.66 KCAL/MOL
REMARK 923 INTER-LIGAND FREE ENERGY PREDICTED BY IDOCK:   -5.33 KCAL/MOL
REMARK 924 INTRA-LIGAND FREE ENERGY PREDICTED BY IDOCK:   -1.33 KCAL/MOL
REMARK 927      BINDING AFFINITY PREDICTED BY RF-SCORE:    0.00 PKD
ROOT
HETATM    1 CL   UNL     1      -6.067  13.988  70.926  1.00  0.00    -0.176 Cl 
HETATM    2  C   UNL     1      -6.279  12.943  69.575  1.00  0.00    -0.118 A  
HETATM    3  C   UNL     1      -6.432  13.486  68.303  1.00  0.00    -0.104 A  
HETATM    4  C   UNL     1      -6.645  12.639  67.213  1.00  0.00    -0.109 A  
HETATM    5  C   UNL     1      -6.700  11.245  67.382  1.00  0.00    -0.085 A  
HETATM    6  C   UNL     1      -6.524  10.716  68.666  1.00  0.00    -0.051 A  
HETATM    7  C   UNL     1      -6.316  11.564  69.760  1.00  0.00    -0.140 A  
ENDROOT
BRANCH   5   8
HETATM    8  C   UNL     1      -7.025  10.344  66.210  1.00  0.00    -0.118 C  
BRANCH   8   9
HETATM    9  C   UNL     1      -8.339  10.703  65.513  1.00  0.00    -0.158 C  
BRANCH   9  10
HETATM   10  C   UNL     1      -9.400   9.581  65.514  1.00  0.00    -0.255 C  
BRANCH  10  11
HETATM   11  S   UNL     1     -10.890  10.106  66.459  1.00  0.00     0.123 SA 
BRANCH  11  12
HETATM   12  C   UNL     1     -11.285  11.861  66.253  1.00  0.00    -0.337 A  
HETATM   13 CL   UNL     1     -12.428  11.898  63.678  1.00  0.00    -0.614 Cl 
HETATM   14  C   UNL     1     -11.817  14.676  66.366  1.00  0.00    -0.304 A  
HETATM   15  C   UNL     1     -11.933  12.543  65.198  1.00  0.00    -0.434 A  
HETATM   16  C   UNL     1     -12.211  13.925  65.276  1.00  0.00    -0.449 A  
HETATM   17  C   UNL     1     -11.121  14.060  67.387  1.00  0.00    -0.317 A  
HETATM   18  C   UNL     1     -10.853  12.683  67.336  1.00  0.00    -0.243 A  
HETATM   19 CL   UNL     1      -9.932  12.090  68.697  1.00  0.00    -0.189 Cl 
ENDBRANCH  11  12
ENDBRANCH  10  11
BRANCH  10  20
HETATM   20  C   UNL     1      -8.997   8.118  65.809  1.00  0.00    -0.119 C  
BRANCH  20  21
HETATM   21  N   UNL     1      -9.620   7.542  66.994  1.00  0.00    -0.159 NA 
HETATM   22  C   UNL     1      -9.169   7.673  68.280  1.00  0.00    -0.139 A  
HETATM   23  N   UNL     1      -9.936   7.025  69.124  1.00  0.00    -0.162 NA 
HETATM   24  C   UNL     1     -10.689   6.693  67.018  1.00  0.00    -0.366 A  
HETATM   25  C   UNL     1     -10.889   6.413  68.351  1.00  0.00    -0.311 A  
ENDBRANCH  20  21
ENDBRANCH  10  20
ENDBRANCH   9  10
ENDBRANCH   8   9
ENDBRANCH   5   8
TORSDOF 7
ENDMDL
MODEL      330
REMARK 921   NORMALIZED FREE ENERGY PREDICTED BY IDOCK:   -4.09 KCAL/MOL
REMARK 922        TOTAL FREE ENERGY PREDICTED BY IDOCK:   -6.64 KCAL/MOL
REMARK 923 INTER-LIGAND FREE ENERGY PREDICTED BY IDOCK:   -5.57 KCAL/MOL
REMARK 924 INTRA-LIGAND FREE ENERGY PREDICTED BY IDOCK:   -1.07 KCAL/MOL
REMARK 927      BINDING AFFINITY PREDICTED BY RF-SCORE:    0.00 PKD
ROOT
HETATM    1 CL   UNL     1     -13.378  12.929  71.726  1.00  0.00    -0.497 Cl 
HETATM    2  C   UNL     1     -12.864  11.299  71.522  1.00  0.00    -0.414 A  
HETATM    3  C   UNL     1     -11.788  11.016  70.687  1.00  0.00    -0.434 A  
HETATM    4  C   UNL     1     -11.398   9.689  70.490  1.00  0.00    -0.360 A  
HETATM    5  C   UNL     1     -12.072   8.636  71.131  1.00  0.00    -0.297 A  
HETATM    6  C   UNL     1     -13.140   8.942  71.985  1.00  0.00    -0.454 A  
HETATM    7  C   UNL     1     -13.535  10.270  72.177  1.00  0.00    -0.332 A  
ENDROOT
BRANCH   5   8
HETATM    8  C   UNL     1     -11.701   7.198  70.838  1.00  0.00    -0.367 C  
BRANCH   8   9
HETATM    9  C   UNL     1     -11.511   6.351  72.098  1.00  0.00    -0.344 C  
BRANCH   9  10
HETATM   10  C   UNL     1     -10.091   6.400  72.703  1.00  0.00    -0.178 C  
BRANCH  10  11
HETATM   11  S   UNL     1      -8.848   5.827  71.470  1.00  0.00    -0.136 SA 
BRANCH  11  12
HETATM   12  C   UNL     1      -8.650   6.963  70.074  1.00  0.00    -0.141 A  
HETATM   13 CL   UNL     1      -7.741   9.301  71.356  1.00  0.00    -0.001 Cl 
HETATM   14  C   UNL     1      -8.396   8.399  67.605  1.00  0.00    -0.130 A  
HETATM   15  C   UNL     1      -8.166   8.290  70.027  1.00  0.00    -0.119 A  
HETATM   16  C   UNL     1      -8.023   8.978  68.802  1.00  0.00    -0.101 A  
HETATM   17  C   UNL     1      -8.937   7.128  67.616  1.00  0.00    -0.125 A  
HETATM   18  C   UNL     1      -9.068   6.421  68.822  1.00  0.00    -0.125 A  
HETATM   19 CL   UNL     1      -9.806   4.848  68.644  1.00  0.00    -0.227 Cl 
ENDBRANCH  11  12
ENDBRANCH  10  11
BRANCH  10  20
HETATM   20  C   UNL     1      -9.820   5.842  74.119  1.00  0.00    -0.216 C  
BRANCH  20  21
HETATM   21  N   UNL     1      -9.646   4.397  74.182  1.00  0.00    -0.110 NA 
HETATM   22  C   UNL     1     -10.629   3.463  73.997  1.00  0.00    -0.201 A  
HETATM   23  N   UNL     1     -10.163   2.244  74.133  1.00  0.00    -0.110 NA 
HETATM   24  C   UNL     1      -8.507   3.730  74.535  1.00  0.00    -0.088 A  
HETATM   25  C   UNL     1      -8.841   2.397  74.465  1.00  0.00    -0.070 A  
ENDBRANCH  20  21
ENDBRANCH  10  20
ENDBRANCH   9  10
ENDBRANCH   8   9
ENDBRANCH   5   8
TORSDOF 7
ENDMDL
MODEL      331
REMARK 921   NORMALIZED FREE ENERGY PREDICTED BY IDOCK:   -4.07 KCAL/MOL
REMARK 922        TOTAL FREE ENERGY PREDICTED BY IDOCK:   -6.62 KCAL/MOL
REMARK 923 INTER-LIGAND FREE ENERGY PREDICTED BY IDOCK:   -5.63 KCAL/MOL
REMARK 924 INTRA-LIGAND FREE ENERGY PREDICTED BY IDOCK:   -0.99 KCAL/MOL
REMARK 927      BINDING AFFINITY PREDICTED BY RF-SCORE:    0.00 PKD
ROOT
HETATM    1 CL   UNL     1     -11.509  15.975  64.216  1.00  0.00    -0.336 Cl 
HETATM    2  C   UNL     1     -11.337  14.870  65.524  1.00  0.00    -0.339 A  
HETATM    3  C   UNL     1     -12.363  13.974  65.809  1.00  0.00    -0.506 A  
HETATM    4  C   UNL     1     -12.239  13.107  66.896  1.00  0.00    -0.284 A  
HETATM    5  C   UNL     1     -11.089  13.119  67.703  1.00  0.00    -0.295 A  
HETATM    6  C   UNL     1     -10.058  14.013  67.389  1.00  0.00    -0.244 A  
HETATM    7  C   UNL     1     -10.183  14.887  66.304  1.00  0.00    -0.306 A  
ENDROOT
BRANCH   5   8
HETATM    8  C   UNL     1     -11.006  12.240  68.932  1.00  0.00    -0.265 C  
BRANCH   8   9
HETATM    9  C   UNL     1     -10.020  11.080  68.784  1.00  0.00    -0.215 C  
BRANCH   9  10
HETATM   10  C   UNL     1      -9.958  10.459  67.371  1.00  0.00    -0.187 C  
BRANCH  10  11
HETATM   11  S   UNL     1     -10.416   8.676  67.433  1.00  0.00    -0.247 SA 
BRANCH  11  12
HETATM   12  C   UNL     1      -9.042   7.602  67.918  1.00  0.00    -0.134 A  
HETATM   13 CL   UNL     1      -8.155   6.637  65.423  1.00  0.00    -0.124 Cl 
HETATM   14  C   UNL     1      -6.911   6.085  69.093  1.00  0.00    -0.064 A  
HETATM   15  C   UNL     1      -8.132   6.858  67.133  1.00  0.00    -0.117 A  
HETATM   16  C   UNL     1      -7.072   6.134  67.722  1.00  0.00    -0.081 A  
HETATM   17  C   UNL     1      -7.820   6.743  69.897  1.00  0.00    -0.115 A  
HETATM   18  C   UNL     1      -8.869   7.484  69.329  1.00  0.00    -0.136 A  
HETATM   19 CL   UNL     1      -9.937   8.214  70.502  1.00  0.00    -0.188 Cl 
ENDBRANCH  11  12
ENDBRANCH  10  11
BRANCH  10  20
HETATM   20  C   UNL     1      -8.749  10.728  66.447  1.00  0.00    -0.158 C  
BRANCH  20  21
HETATM   21  N   UNL     1      -9.049  10.681  65.021  1.00  0.00    -0.195 NA 
HETATM   22  C   UNL     1      -9.951  11.474  64.366  1.00  0.00    -0.269 A  
HETATM   23  N   UNL     1     -10.008  11.181  63.089  1.00  0.00    -0.351 NA 
HETATM   24  C   UNL     1      -8.565   9.777  64.119  1.00  0.00    -0.194 A  
HETATM   25  C   UNL     1      -9.145  10.127  62.921  1.00  0.00    -0.286 A  
ENDBRANCH  20  21
ENDBRANCH  10  20
ENDBRANCH   9  10
ENDBRANCH   8   9
ENDBRANCH   5   8
TORSDOF 7
ENDMDL
MODEL      332
REMARK 921   NORMALIZED FREE ENERGY PREDICTED BY IDOCK:   -4.06 KCAL/MOL
REMARK 922        TOTAL FREE ENERGY PREDICTED BY IDOCK:   -6.61 KCAL/MOL
REMARK 923 INTER-LIGAND FREE ENERGY PREDICTED BY IDOCK:   -6.12 KCAL/MOL
REMARK 924 INTRA-LIGAND FREE ENERGY PREDICTED BY IDOCK:   -0.49 KCAL/MOL
REMARK 927      BINDING AFFINITY PREDICTED BY RF-SCORE:    0.00 PKD
ROOT
HETATM    1 CL   UNL     1     -10.927  16.823  68.022  1.00  0.00    -0.338 Cl 
HETATM    2  C   UNL     1     -11.189  15.124  67.949  1.00  0.00    -0.329 A  
HETATM    3  C   UNL     1     -11.518  14.427  69.108  1.00  0.00    -0.328 A  
HETATM    4  C   UNL     1     -11.690  13.042  69.055  1.00  0.00    -0.376 A  
HETATM    5  C   UNL     1     -11.544  12.342  67.846  1.00  0.00    -0.415 A  
HETATM    6  C   UNL     1     -11.234  13.062  66.685  1.00  0.00    -0.341 A  
HETATM    7  C   UNL     1     -11.055  14.449  66.739  1.00  0.00    -0.323 A  
ENDROOT
BRANCH   5   8
HETATM    8  C   UNL     1     -11.641  10.831  67.818  1.00  0.00    -0.155 C  
BRANCH   8   9
HETATM    9  C   UNL     1     -10.285  10.134  67.940  1.00  0.00    -0.217 C  
BRANCH   9  10
HETATM   10  C   UNL     1     -10.082   9.334  69.245  1.00  0.00    -0.200 C  
BRANCH  10  11
HETATM   11  S   UNL     1     -10.232   7.528  68.921  1.00  0.00    -0.211 SA 
BRANCH  11  12
HETATM   12  C   UNL     1      -9.137   6.945  67.603  1.00  0.00    -0.118 A  
HETATM   13 CL   UNL     1     -10.844   5.244  66.143  1.00  0.00    -0.250 Cl 
HETATM   14  C   UNL     1      -7.119   6.339  65.659  1.00  0.00    -0.065 A  
HETATM   15  C   UNL     1      -9.393   6.105  66.495  1.00  0.00    -0.153 A  
HETATM   16  C   UNL     1      -8.397   5.834  65.531  1.00  0.00    -0.140 A  
HETATM   17  C   UNL     1      -6.810   7.109  66.763  1.00  0.00    -0.068 A  
HETATM   18  C   UNL     1      -7.792   7.405  67.721  1.00  0.00    -0.113 A  
HETATM   19 CL   UNL     1      -7.207   8.357  69.064  1.00  0.00    -0.068 Cl 
ENDBRANCH  11  12
ENDBRANCH  10  11
BRANCH  10  20
HETATM   20  C   UNL     1     -10.794   9.763  70.549  1.00  0.00    -0.323 C  
BRANCH  20  21
HETATM   21  N   UNL     1     -10.557   8.888  71.689  1.00  0.00    -0.325 NA 
HETATM   22  C   UNL     1      -9.344   8.650  72.278  1.00  0.00    -0.252 A  
HETATM   23  N   UNL     1      -9.453   7.803  73.273  1.00  0.00    -0.259 NA 
HETATM   24  C   UNL     1     -11.475   8.080  72.298  1.00  0.00    -0.360 A  
HETATM   25  C   UNL     1     -10.777   7.443  73.298  1.00  0.00    -0.391 A  
ENDBRANCH  20  21
ENDBRANCH  10  20
ENDBRANCH   9  10
ENDBRANCH   8   9
ENDBRANCH   5   8
TORSDOF 7
ENDMDL
MODEL      333
REMARK 921   NORMALIZED FREE ENERGY PREDICTED BY IDOCK:   -4.04 KCAL/MOL
REMARK 922        TOTAL FREE ENERGY PREDICTED BY IDOCK:   -6.57 KCAL/MOL
REMARK 923 INTER-LIGAND FREE ENERGY PREDICTED BY IDOCK:   -6.10 KCAL/MOL
REMARK 924 INTRA-LIGAND FREE ENERGY PREDICTED BY IDOCK:   -0.47 KCAL/MOL
REMARK 927      BINDING AFFINITY PREDICTED BY RF-SCORE:    0.00 PKD
ROOT
HETATM    1 CL   UNL     1     -11.882  15.996  64.181  1.00  0.00    -0.155 Cl 
HETATM    2  C   UNL     1     -11.367  14.386  64.501  1.00  0.00    -0.321 A  
HETATM    3  C   UNL     1     -10.296  14.163  65.362  1.00  0.00    -0.384 A  
HETATM    4  C   UNL     1      -9.853  12.859  65.588  1.00  0.00    -0.185 A  
HETATM    5  C   UNL     1     -10.477  11.765  64.965  1.00  0.00    -0.332 A  
HETATM    6  C   UNL     1     -11.566  12.006  64.118  1.00  0.00    -0.460 A  
HETATM    7  C   UNL     1     -12.007  13.313  63.886  1.00  0.00    -0.541 A  
ENDROOT
BRANCH   5   8
HETATM    8  C   UNL     1      -9.929  10.365  65.144  1.00  0.00    -0.390 C  
BRANCH   8   9
HETATM    9  C   UNL     1     -10.576   9.604  66.302  1.00  0.00    -0.051 C  
BRANCH   9  10
HETATM   10  C   UNL     1     -10.003   9.937  67.697  1.00  0.00    -0.171 C  
BRANCH  10  11
HETATM   11  S   UNL     1      -8.687   8.733  68.154  1.00  0.00    -0.134 SA 
BRANCH  11  12
HETATM   12  C   UNL     1      -9.316   7.292  69.052  1.00  0.00    -0.148 A  
HETATM   13 CL   UNL     1      -9.795   5.470  66.958  1.00  0.00    -0.155 Cl 
HETATM   14  C   UNL     1     -10.177   5.227  70.845  1.00  0.00    -0.304 A  
HETATM   15  C   UNL     1      -9.691   6.010  68.591  1.00  0.00    -0.127 A  
HETATM   16  C   UNL     1     -10.090   4.993  69.487  1.00  0.00    -0.301 A  
HETATM   17  C   UNL     1      -9.885   6.487  71.328  1.00  0.00    -0.197 A  
HETATM   18  C   UNL     1      -9.467   7.505  70.455  1.00  0.00    -0.161 A  
HETATM   19 CL   UNL     1      -9.179   9.038  71.241  1.00  0.00    -0.322 Cl 
ENDBRANCH  11  12
ENDBRANCH  10  11
BRANCH  10  20
HETATM   20  C   UNL     1     -10.947  10.259  68.878  1.00  0.00    -0.238 C  
BRANCH  20  21
HETATM   21  N   UNL     1     -11.175  11.680  69.107  1.00  0.00    -0.246 NA 
HETATM   22  C   UNL     1     -10.299  12.689  68.811  1.00  0.00    -0.112 A  
HETATM   23  N   UNL     1     -10.786  13.860  69.149  1.00  0.00    -0.194 NA 
HETATM   24  C   UNL     1     -12.246  12.239  69.744  1.00  0.00    -0.134 A  
HETATM   25  C   UNL     1     -12.001  13.593  69.728  1.00  0.00    -0.341 A  
ENDBRANCH  20  21
ENDBRANCH  10  20
ENDBRANCH   9  10
ENDBRANCH   8   9
ENDBRANCH   5   8
TORSDOF 7
ENDMDL
MODEL      334
REMARK 921   NORMALIZED FREE ENERGY PREDICTED BY IDOCK:   -4.04 KCAL/MOL
REMARK 922        TOTAL FREE ENERGY PREDICTED BY IDOCK:   -6.57 KCAL/MOL
REMARK 923 INTER-LIGAND FREE ENERGY PREDICTED BY IDOCK:   -5.97 KCAL/MOL
REMARK 924 INTRA-LIGAND FREE ENERGY PREDICTED BY IDOCK:   -0.60 KCAL/MOL
REMARK 927      BINDING AFFINITY PREDICTED BY RF-SCORE:    0.00 PKD
ROOT
HETATM    1 CL   UNL     1      -7.686   5.065  67.158  1.00  0.00    -0.091 Cl 
HETATM    2  C   UNL     1      -8.329   6.520  66.503  1.00  0.00    -0.116 A  
HETATM    3  C   UNL     1      -7.698   7.125  65.420  1.00  0.00    -0.111 A  
HETATM    4  C   UNL     1      -8.196   8.328  64.915  1.00  0.00    -0.154 A  
HETATM    5  C   UNL     1      -9.331   8.933  65.480  1.00  0.00    -0.214 A  
HETATM    6  C   UNL     1      -9.966   8.300  66.556  1.00  0.00    -0.320 A  
HETATM    7  C   UNL     1      -9.463   7.098  67.066  1.00  0.00    -0.192 A  
ENDROOT
BRANCH   5   8
HETATM    8  C   UNL     1      -9.807  10.283  64.985  1.00  0.00    -0.397 C  
BRANCH   8   9
HETATM    9  C   UNL     1      -9.266  11.455  65.806  1.00  0.00    -0.223 C  
BRANCH   9  10
HETATM   10  C   UNL     1      -9.820  11.548  67.244  1.00  0.00    -0.190 C  
BRANCH  10  11
HETATM   11  S   UNL     1     -11.381  12.526  67.269  1.00  0.00    -0.336 SA 
BRANCH  11  12
HETATM   12  C   UNL     1     -11.133  14.257  67.735  1.00  0.00    -0.280 A  
HETATM   13 CL   UNL     1      -9.879  15.301  65.438  1.00  0.00    -0.354 Cl 
HETATM   14  C   UNL     1     -11.009  16.907  68.824  1.00  0.00    -0.234 A  
HETATM   15  C   UNL     1     -10.603  15.343  67.002  1.00  0.00    -0.309 A  
HETATM   16  C   UNL     1     -10.569  16.648  67.540  1.00  0.00    -0.311 A  
HETATM   17  C   UNL     1     -11.471  15.860  69.597  1.00  0.00    -0.346 A  
HETATM   18  C   UNL     1     -11.530  14.559  69.072  1.00  0.00    -0.290 A  
HETATM   19 CL   UNL     1     -12.106  13.363  70.207  1.00  0.00    -0.428 Cl 
ENDBRANCH  11  12
ENDBRANCH  10  11
BRANCH  10  20
HETATM   20  C   UNL     1      -8.886  11.896  68.426  1.00  0.00    -0.159 C  
BRANCH  20  21
HETATM   21  N   UNL     1      -7.791  12.798  68.092  1.00  0.00    -0.137 NA 
HETATM   22  C   UNL     1      -6.573  12.428  67.589  1.00  0.00    -0.131 A  
HETATM   23  N   UNL     1      -5.794  13.468  67.409  1.00  0.00    -0.350 NA 
HETATM   24  C   UNL     1      -7.751  14.145  68.318  1.00  0.00    -0.139 A  
HETATM   25  C   UNL     1      -6.518  14.545  67.855  1.00  0.00    -0.162 A  
ENDBRANCH  20  21
ENDBRANCH  10  20
ENDBRANCH   9  10
ENDBRANCH   8   9
ENDBRANCH   5   8
TORSDOF 7
ENDMDL
MODEL      335
REMARK 921   NORMALIZED FREE ENERGY PREDICTED BY IDOCK:   -4.02 KCAL/MOL
REMARK 922        TOTAL FREE ENERGY PREDICTED BY IDOCK:   -6.55 KCAL/MOL
REMARK 923 INTER-LIGAND FREE ENERGY PREDICTED BY IDOCK:   -5.73 KCAL/MOL
REMARK 924 INTRA-LIGAND FREE ENERGY PREDICTED BY IDOCK:   -0.82 KCAL/MOL
REMARK 927      BINDING AFFINITY PREDICTED BY RF-SCORE:    0.00 PKD
ROOT
HETATM    1 CL   UNL     1      -9.257  18.972  68.686  1.00  0.00    -0.403 Cl 
HETATM    2  C   UNL     1      -9.583  17.293  68.496  1.00  0.00    -0.291 A  
HETATM    3  C   UNL     1      -8.562  16.367  68.684  1.00  0.00    -0.237 A  
HETATM    4  C   UNL     1      -8.819  15.008  68.490  1.00  0.00    -0.181 A  
HETATM    5  C   UNL     1     -10.097  14.561  68.115  1.00  0.00    -0.227 A  
HETATM    6  C   UNL     1     -11.118  15.505  67.951  1.00  0.00    -0.321 A  
HETATM    7  C   UNL     1     -10.860  16.867  68.139  1.00  0.00    -0.351 A  
ENDROOT
BRANCH   5   8
HETATM    8  C   UNL     1     -10.339  13.096  67.817  1.00  0.00    -0.230 C  
BRANCH   8   9
HETATM    9  C   UNL     1      -9.060  12.324  67.489  1.00  0.00    -0.182 C  
BRANCH   9  10
HETATM   10  C   UNL     1      -9.288  10.911  66.908  1.00  0.00    -0.168 C  
BRANCH  10  11
HETATM   11  S   UNL     1     -10.872  10.208  67.531  1.00  0.00    -0.251 SA 
BRANCH  11  12
HETATM   12  C   UNL     1     -10.696   9.334  69.106  1.00  0.00    -0.183 A  
HETATM   13 CL   UNL     1      -9.527   6.904  68.291  1.00  0.00    -0.127 Cl 
HETATM   14  C   UNL     1     -10.522   8.344  71.791  1.00  0.00    -0.353 A  
HETATM   15  C   UNL     1     -10.122   8.078  69.404  1.00  0.00    -0.197 A  
HETATM   16  C   UNL     1     -10.020   7.612  70.733  1.00  0.00    -0.181 A  
HETATM   17  C   UNL     1     -11.151   9.547  71.535  1.00  0.00    -0.406 A  
HETATM   18  C   UNL     1     -11.244  10.035  70.222  1.00  0.00    -0.313 A  
HETATM   19 CL   UNL     1     -12.105  11.549  70.089  1.00  0.00    -0.423 Cl 
ENDBRANCH  11  12
ENDBRANCH  10  11
BRANCH  10  20
HETATM   20  C   UNL     1      -8.144   9.872  66.896  1.00  0.00    -0.113 C  
BRANCH  20  21
HETATM   21  N   UNL     1      -7.603   9.575  65.575  1.00  0.00    -0.102 NA 
HETATM   22  C   UNL     1      -6.495  10.151  65.016  1.00  0.00    -0.126 A  
HETATM   23  N   UNL     1      -6.273   9.686  63.809  1.00  0.00    -0.102 NA 
HETATM   24  C   UNL     1      -8.161   8.757  64.635  1.00  0.00    -0.165 A  
HETATM   25  C   UNL     1      -7.302   8.814  63.562  1.00  0.00    -0.100 A  
ENDBRANCH  20  21
ENDBRANCH  10  20
ENDBRANCH   9  10
ENDBRANCH   8   9
ENDBRANCH   5   8
TORSDOF 7
ENDMDL
MODEL      336
REMARK 921   NORMALIZED FREE ENERGY PREDICTED BY IDOCK:   -4.02 KCAL/MOL
REMARK 922        TOTAL FREE ENERGY PREDICTED BY IDOCK:   -6.55 KCAL/MOL
REMARK 923 INTER-LIGAND FREE ENERGY PREDICTED BY IDOCK:   -5.74 KCAL/MOL
REMARK 924 INTRA-LIGAND FREE ENERGY PREDICTED BY IDOCK:   -0.81 KCAL/MOL
REMARK 927      BINDING AFFINITY PREDICTED BY RF-SCORE:    0.00 PKD
ROOT
HETATM    1 CL   UNL     1     -12.605  14.155  65.475  1.00  0.00    -0.511 Cl 
HETATM    2  C   UNL     1     -11.840  13.027  66.526  1.00  0.00    -0.403 A  
HETATM    3  C   UNL     1     -11.231  11.894  65.995  1.00  0.00    -0.377 A  
HETATM    4  C   UNL     1     -10.647  10.959  66.852  1.00  0.00    -0.312 A  
HETATM    5  C   UNL     1     -10.659  11.149  68.244  1.00  0.00    -0.221 A  
HETATM    6  C   UNL     1     -11.258  12.305  68.759  1.00  0.00    -0.312 A  
HETATM    7  C   UNL     1     -11.848  13.239  67.902  1.00  0.00    -0.388 A  
ENDROOT
BRANCH   5   8
HETATM    8  C   UNL     1     -10.106  10.084  69.167  1.00  0.00    -0.219 C  
BRANCH   8   9
HETATM    9  C   UNL     1     -11.173   9.429  70.045  1.00  0.00    -0.217 C  
BRANCH   9  10
HETATM   10  C   UNL     1     -10.804   8.026  70.574  1.00  0.00    -0.241 C  
BRANCH  10  11
HETATM   11  S   UNL     1      -8.974   7.826  70.645  1.00  0.00    -0.146 SA 
BRANCH  11  12
HETATM   12  C   UNL     1      -8.447   6.423  71.659  1.00  0.00    -0.128 A  
HETATM   13 CL   UNL     1     -10.432   6.376  73.658  1.00  0.00    -0.286 Cl 
HETATM   14  C   UNL     1      -7.323   4.113  72.932  1.00  0.00    -0.073 A  
HETATM   15  C   UNL     1      -9.045   5.829  72.793  1.00  0.00    -0.133 A  
HETATM   16  C   UNL     1      -8.496   4.676  73.397  1.00  0.00    -0.102 A  
HETATM   17  C   UNL     1      -6.672   4.704  71.868  1.00  0.00    -0.035 A  
HETATM   18  C   UNL     1      -7.214   5.839  71.243  1.00  0.00    -0.074 A  
HETATM   19 CL   UNL     1      -6.232   6.468  69.943  1.00  0.00    -0.036 Cl 
ENDBRANCH  11  12
ENDBRANCH  10  11
BRANCH  10  20
HETATM   20  C   UNL     1     -11.516   6.767  70.027  1.00  0.00    -0.334 C  
BRANCH  20  21
HETATM   21  N   UNL     1     -10.882   6.167  68.860  1.00  0.00    -0.310 NA 
HETATM   22  C   UNL     1     -11.017   6.594  67.567  1.00  0.00    -0.338 A  
HETATM   23  N   UNL     1     -10.336   5.838  66.740  1.00  0.00    -0.230 NA 
HETATM   24  C   UNL     1     -10.135   5.024  68.840  1.00  0.00    -0.144 A  
HETATM   25  C   UNL     1      -9.778   4.858  67.521  1.00  0.00    -0.164 A  
ENDBRANCH  20  21
ENDBRANCH  10  20
ENDBRANCH   9  10
ENDBRANCH   8   9
ENDBRANCH   5   8
TORSDOF 7
ENDMDL
MODEL      337
REMARK 921   NORMALIZED FREE ENERGY PREDICTED BY IDOCK:   -4.01 KCAL/MOL
REMARK 922        TOTAL FREE ENERGY PREDICTED BY IDOCK:   -6.53 KCAL/MOL
REMARK 923 INTER-LIGAND FREE ENERGY PREDICTED BY IDOCK:   -5.99 KCAL/MOL
REMARK 924 INTRA-LIGAND FREE ENERGY PREDICTED BY IDOCK:   -0.54 KCAL/MOL
REMARK 927      BINDING AFFINITY PREDICTED BY RF-SCORE:    0.00 PKD
ROOT
HETATM    1 CL   UNL     1      -7.616  20.612  66.807  1.00  0.00    -0.288 Cl 
HETATM    2  C   UNL     1      -8.591  19.235  66.469  1.00  0.00    -0.334 A  
HETATM    3  C   UNL     1      -9.936  19.403  66.156  1.00  0.00    -0.501 A  
HETATM    4  C   UNL     1     -10.735  18.282  65.922  1.00  0.00    -0.168 A  
HETATM    5  C   UNL     1     -10.198  16.985  65.990  1.00  0.00    -0.337 A  
HETATM    6  C   UNL     1      -8.838  16.836  66.286  1.00  0.00    -0.334 A  
HETATM    7  C   UNL     1      -8.038  17.958  66.526  1.00  0.00    -0.303 A  
ENDROOT
BRANCH   5   8
HETATM    8  C   UNL     1     -11.094  15.776  65.827  1.00  0.00    -0.124 C  
BRANCH   8   9
HETATM    9  C   UNL     1     -11.469  15.115  67.155  1.00  0.00    -0.254 C  
BRANCH   9  10
HETATM   10  C   UNL     1     -10.845  13.721  67.383  1.00  0.00    -0.277 C  
BRANCH  10  11
HETATM   11  S   UNL     1     -10.265  13.555  69.124  1.00  0.00     0.275 SA 
BRANCH  11  12
HETATM   12  C   UNL     1     -11.606  13.650  70.336  1.00  0.00    -0.038 A  
HETATM   13 CL   UNL     1     -11.562  16.380  71.032  1.00  0.00    -0.339 Cl 
HETATM   14  C   UNL     1     -13.833  13.385  72.122  1.00  0.00    -0.605 A  
HETATM   15  C   UNL     1     -12.143  14.758  71.031  1.00  0.00    -0.330 A  
HETATM   16  C   UNL     1     -13.256  14.618  71.889  1.00  0.00    -0.436 A  
HETATM   17  C   UNL     1     -13.295  12.269  71.514  1.00  0.00    -0.138 A  
HETATM   18  C   UNL     1     -12.201  12.390  70.642  1.00  0.00    -0.278 A  
HETATM   19 CL   UNL     1     -11.634  10.868  70.000  1.00  0.00    -0.391 Cl 
ENDBRANCH  11  12
ENDBRANCH  10  11
BRANCH  10  20
HETATM   20  C   UNL     1      -9.841  13.132  66.366  1.00  0.00    -0.279 C  
BRANCH  20  21
HETATM   21  N   UNL     1      -8.718  12.419  66.961  1.00  0.00    -0.203 NA 
HETATM   22  C   UNL     1      -8.764  11.166  67.509  1.00  0.00    -0.129 A  
HETATM   23  N   UNL     1      -7.593  10.805  67.977  1.00  0.00    -0.090 NA 
HETATM   24  C   UNL     1      -7.461  12.912  67.169  1.00  0.00    -0.006 A  
HETATM   25  C   UNL     1      -6.771  11.883  67.768  1.00  0.00    -0.087 A  
ENDBRANCH  20  21
ENDBRANCH  10  20
ENDBRANCH   9  10
ENDBRANCH   8   9
ENDBRANCH   5   8
TORSDOF 7
ENDMDL
MODEL      338
REMARK 921   NORMALIZED FREE ENERGY PREDICTED BY IDOCK:   -4.01 KCAL/MOL
REMARK 922        TOTAL FREE ENERGY PREDICTED BY IDOCK:   -6.53 KCAL/MOL
REMARK 923 INTER-LIGAND FREE ENERGY PREDICTED BY IDOCK:   -5.22 KCAL/MOL
REMARK 924 INTRA-LIGAND FREE ENERGY PREDICTED BY IDOCK:   -1.31 KCAL/MOL
REMARK 927      BINDING AFFINITY PREDICTED BY RF-SCORE:    0.00 PKD
ROOT
HETATM    1 CL   UNL     1     -14.385   7.225  71.602  1.00  0.00    -0.588 Cl 
HETATM    2  C   UNL     1     -12.737   7.720  71.577  1.00  0.00    -0.332 A  
HETATM    3  C   UNL     1     -12.422   9.052  71.325  1.00  0.00    -0.346 A  
HETATM    4  C   UNL     1     -11.083   9.444  71.264  1.00  0.00    -0.446 A  
HETATM    5  C   UNL     1     -10.049   8.515  71.462  1.00  0.00    -0.315 A  
HETATM    6  C   UNL     1     -10.385   7.183  71.735  1.00  0.00    -0.216 A  
HETATM    7  C   UNL     1     -11.726   6.788  71.790  1.00  0.00    -0.353 A  
ENDROOT
BRANCH   5   8
HETATM    8  C   UNL     1      -8.602   8.932  71.301  1.00  0.00    -0.259 C  
BRANCH   8   9
HETATM    9  C   UNL     1      -7.717   7.835  70.707  1.00  0.00    -0.084 C  
BRANCH   9  10
HETATM   10  C   UNL     1      -7.833   7.667  69.176  1.00  0.00    -0.118 C  
BRANCH  10  11
HETATM   11  S   UNL     1      -6.861   6.206  68.615  1.00  0.00    -0.073 SA 
BRANCH  11  12
HETATM   12  C   UNL     1      -7.891   4.769  68.227  1.00  0.00    -0.081 A  
HETATM   13 CL   UNL     1      -8.476   5.196  65.504  1.00  0.00    -0.132 Cl 
HETATM   14  C   UNL     1      -9.392   2.336  68.013  1.00  0.00    -0.251 A  
HETATM   15  C   UNL     1      -8.468   4.351  67.006  1.00  0.00    -0.104 A  
HETATM   16  C   UNL     1      -9.184   3.138  66.908  1.00  0.00    -0.187 A  
HETATM   17  C   UNL     1      -8.902   2.743  69.238  1.00  0.00    -0.152 A  
HETATM   18  C   UNL     1      -8.170   3.936  69.351  1.00  0.00    -0.057 A  
HETATM   19 CL   UNL     1      -7.666   4.306  70.982  1.00  0.00    -0.065 Cl 
ENDBRANCH  11  12
ENDBRANCH  10  11
BRANCH  10  20
HETATM   20  C   UNL     1      -7.669   8.883  68.237  1.00  0.00    -0.096 C  
BRANCH  20  21
HETATM   21  N   UNL     1      -8.878   9.674  68.046  1.00  0.00    -0.120 NA 
HETATM   22  C   UNL     1      -9.006  11.014  68.293  1.00  0.00    -0.155 A  
HETATM   23  N   UNL     1     -10.223  11.434  68.039  1.00  0.00    -0.180 NA 
HETATM   24  C   UNL     1     -10.110   9.202  67.692  1.00  0.00    -0.220 A  
HETATM   25  C   UNL     1     -10.919  10.315  67.660  1.00  0.00    -0.294 A  
ENDBRANCH  20  21
ENDBRANCH  10  20
ENDBRANCH   9  10
ENDBRANCH   8   9
ENDBRANCH   5   8
TORSDOF 7
ENDMDL
MODEL      339
REMARK 921   NORMALIZED FREE ENERGY PREDICTED BY IDOCK:   -3.98 KCAL/MOL
REMARK 922        TOTAL FREE ENERGY PREDICTED BY IDOCK:   -6.49 KCAL/MOL
REMARK 923 INTER-LIGAND FREE ENERGY PREDICTED BY IDOCK:   -5.23 KCAL/MOL
REMARK 924 INTRA-LIGAND FREE ENERGY PREDICTED BY IDOCK:   -1.26 KCAL/MOL
REMARK 927      BINDING AFFINITY PREDICTED BY RF-SCORE:    0.00 PKD
ROOT
HETATM    1 CL   UNL     1     -13.642  12.353  71.938  1.00  0.00    -0.347 Cl 
HETATM    2  C   UNL     1     -12.421  11.655  70.946  1.00  0.00    -0.341 A  
HETATM    3  C   UNL     1     -11.924  10.392  71.252  1.00  0.00    -0.425 A  
HETATM    4  C   UNL     1     -10.905   9.844  70.470  1.00  0.00    -0.391 A  
HETATM    5  C   UNL     1     -10.378  10.546  69.374  1.00  0.00    -0.258 A  
HETATM    6  C   UNL     1     -10.905  11.808  69.068  1.00  0.00    -0.239 A  
HETATM    7  C   UNL     1     -11.922  12.360  69.854  1.00  0.00    -0.369 A  
ENDROOT
BRANCH   5   8
HETATM    8  C   UNL     1      -9.211   9.983  68.592  1.00  0.00    -0.152 C  
BRANCH   8   9
HETATM    9  C   UNL     1      -8.565   8.767  69.257  1.00  0.00    -0.130 C  
BRANCH   9  10
HETATM   10  C   UNL     1      -8.966   7.406  68.647  1.00  0.00    -0.131 C  
BRANCH  10  11
HETATM   11  S   UNL     1      -8.766   6.061  69.890  1.00  0.00    -0.132 SA 
BRANCH  11  12
HETATM   12  C   UNL     1      -9.175   6.580  71.575  1.00  0.00    -0.144 A  
HETATM   13 CL   UNL     1     -11.979   6.298  71.603  1.00  0.00    -0.333 Cl 
HETATM   14  C   UNL     1      -9.380   7.383  74.320  1.00  0.00    -0.142 A  
HETATM   15  C   UNL     1     -10.415   6.616  72.254  1.00  0.00    -0.205 A  
HETATM   16  C   UNL     1     -10.499   6.990  73.613  1.00  0.00    -0.414 A  
HETATM   17  C   UNL     1      -8.160   7.426  73.674  1.00  0.00    -0.157 A  
HETATM   18  C   UNL     1      -8.054   7.039  72.328  1.00  0.00    -0.095 A  
HETATM   19 CL   UNL     1      -6.443   7.196  71.672  1.00  0.00    -0.047 Cl 
ENDBRANCH  11  12
ENDBRANCH  10  11
BRANCH  10  20
HETATM   20  C   UNL     1      -8.463   6.994  67.244  1.00  0.00    -0.121 C  
BRANCH  20  21
HETATM   21  N   UNL     1      -9.080   5.789  66.705  1.00  0.00    -0.123 NA 
HETATM   22  C   UNL     1      -8.443   4.603  66.461  1.00  0.00    -0.109 A  
HETATM   23  N   UNL     1      -9.265   3.712  65.960  1.00  0.00    -0.156 NA 
HETATM   24  C   UNL     1     -10.365   5.665  66.257  1.00  0.00    -0.121 A  
HETATM   25  C   UNL     1     -10.467   4.361  65.832  1.00  0.00    -0.144 A  
ENDBRANCH  20  21
ENDBRANCH  10  20
ENDBRANCH   9  10
ENDBRANCH   8   9
ENDBRANCH   5   8
TORSDOF 7
ENDMDL
MODEL      340
REMARK 921   NORMALIZED FREE ENERGY PREDICTED BY IDOCK:   -3.97 KCAL/MOL
REMARK 922        TOTAL FREE ENERGY PREDICTED BY IDOCK:   -6.47 KCAL/MOL
REMARK 923 INTER-LIGAND FREE ENERGY PREDICTED BY IDOCK:   -5.43 KCAL/MOL
REMARK 924 INTRA-LIGAND FREE ENERGY PREDICTED BY IDOCK:   -1.04 KCAL/MOL
REMARK 927      BINDING AFFINITY PREDICTED BY RF-SCORE:    0.00 PKD
ROOT
HETATM    1 CL   UNL     1     -11.169  14.950  67.612  1.00  0.00    -0.316 Cl 
HETATM    2  C   UNL     1     -10.824  13.297  67.284  1.00  0.00    -0.264 A  
HETATM    3  C   UNL     1      -9.941  12.968  66.260  1.00  0.00    -0.283 A  
HETATM    4  C   UNL     1      -9.693  11.625  65.968  1.00  0.00    -0.257 A  
HETATM    5  C   UNL     1     -10.318  10.600  66.697  1.00  0.00    -0.297 A  
HETATM    6  C   UNL     1     -11.189  10.949  67.737  1.00  0.00    -0.384 A  
HETATM    7  C   UNL     1     -11.441  12.295  68.027  1.00  0.00    -0.378 A  
ENDROOT
BRANCH   5   8
HETATM    8  C   UNL     1     -10.115   9.150  66.311  1.00  0.00    -0.319 C  
BRANCH   8   9
HETATM    9  C   UNL     1     -10.595   8.165  67.377  1.00  0.00    -0.325 C  
BRANCH   9  10
HETATM   10  C   UNL     1      -9.534   7.143  67.840  1.00  0.00    -0.130 C  
BRANCH  10  11
HETATM   11  S   UNL     1      -8.559   7.823  69.247  1.00  0.00    -0.139 SA 
BRANCH  11  12
HETATM   12  C   UNL     1      -9.282   7.451  70.864  1.00  0.00    -0.154 A  
HETATM   13 CL   UNL     1     -11.587   9.072  70.852  1.00  0.00    -0.332 Cl 
HETATM   14  C   UNL     1     -10.127   6.529  73.444  1.00  0.00    -0.235 A  
HETATM   15  C   UNL     1     -10.486   7.893  71.459  1.00  0.00    -0.210 A  
HETATM   16  C   UNL     1     -10.903   7.413  72.720  1.00  0.00    -0.374 A  
HETATM   17  C   UNL     1      -8.912   6.126  72.927  1.00  0.00    -0.125 A  
HETATM   18  C   UNL     1      -8.490   6.577  71.666  1.00  0.00    -0.124 A  
HETATM   19 CL   UNL     1      -6.913   5.992  71.196  1.00  0.00    -0.066 Cl 
ENDBRANCH  11  12
ENDBRANCH  10  11
BRANCH  10  20
HETATM   20  C   UNL     1      -8.650   6.406  66.809  1.00  0.00    -0.113 C  
BRANCH  20  21
HETATM   21  N   UNL     1      -8.592   4.960  66.977  1.00  0.00    -0.105 NA 
HETATM   22  C   UNL     1      -9.414   4.049  66.370  1.00  0.00    -0.191 A  
HETATM   23  N   UNL     1      -9.124   2.823  66.736  1.00  0.00    -0.158 NA 
HETATM   24  C   UNL     1      -7.787   4.274  67.841  1.00  0.00    -0.079 A  
HETATM   25  C   UNL     1      -8.108   2.950  67.650  1.00  0.00    -0.075 A  
ENDBRANCH  20  21
ENDBRANCH  10  20
ENDBRANCH   9  10
ENDBRANCH   8   9
ENDBRANCH   5   8
TORSDOF 7
ENDMDL
MODEL      341
REMARK 921   NORMALIZED FREE ENERGY PREDICTED BY IDOCK:   -3.95 KCAL/MOL
REMARK 922        TOTAL FREE ENERGY PREDICTED BY IDOCK:   -6.45 KCAL/MOL
REMARK 923 INTER-LIGAND FREE ENERGY PREDICTED BY IDOCK:   -5.44 KCAL/MOL
REMARK 924 INTRA-LIGAND FREE ENERGY PREDICTED BY IDOCK:   -1.01 KCAL/MOL
REMARK 927      BINDING AFFINITY PREDICTED BY RF-SCORE:    0.00 PKD
ROOT
HETATM    1 CL   UNL     1      -5.947   7.777  63.762  1.00  0.00    -0.056 Cl 
HETATM    2  C   UNL     1      -7.118   8.921  64.291  1.00  0.00    -0.090 A  
HETATM    3  C   UNL     1      -8.335   9.020  63.622  1.00  0.00    -0.178 A  
HETATM    4  C   UNL     1      -9.268   9.977  64.027  1.00  0.00    -0.318 A  
HETATM    5  C   UNL     1      -9.001  10.836  65.106  1.00  0.00    -0.215 A  
HETATM    6  C   UNL     1      -7.780  10.708  65.781  1.00  0.00    -0.130 A  
HETATM    7  C   UNL     1      -6.842   9.753  65.372  1.00  0.00    -0.101 A  
ENDROOT
BRANCH   5   8
HETATM    8  C   UNL     1      -9.980  11.930  65.476  1.00  0.00    -0.266 C  
BRANCH   8   9
HETATM    9  C   UNL     1     -11.241  11.407  66.165  1.00  0.00    -0.203 C  
BRANCH   9  10
HETATM   10  C   UNL     1     -11.053  11.010  67.646  1.00  0.00    -0.300 C  
BRANCH  10  11
HETATM   11  S   UNL     1     -10.004  12.250  68.514  1.00  0.00    -0.122 SA 
BRANCH  11  12
HETATM   12  C   UNL     1     -10.907  13.747  68.984  1.00  0.00    -0.217 A  
HETATM   13 CL   UNL     1     -12.631  12.776  70.990  1.00  0.00    -0.422 Cl 
HETATM   14  C   UNL     1     -12.033  16.337  69.481  1.00  0.00     0.086 A  
HETATM   15  C   UNL     1     -11.884  13.959  69.984  1.00  0.00    -0.315 A  
HETATM   16  C   UNL     1     -12.413  15.244  70.235  1.00  0.00    -0.405 A  
HETATM   17  C   UNL     1     -11.131  16.159  68.451  1.00  0.00    -0.359 A  
HETATM   18  C   UNL     1     -10.580  14.892  68.199  1.00  0.00    -0.244 A  
HETATM   19 CL   UNL     1      -9.489  14.853  66.835  1.00  0.00    -0.237 Cl 
ENDBRANCH  11  12
ENDBRANCH  10  11
BRANCH  10  20
HETATM   20  C   UNL     1     -10.694   9.557  68.031  1.00  0.00    -0.212 C  
BRANCH  20  21
HETATM   21  N   UNL     1     -10.684   9.291  69.464  1.00  0.00    -0.229 NA 
HETATM   22  C   UNL     1     -11.748   9.434  70.312  1.00  0.00    -0.083 A  
HETATM   23  N   UNL     1     -11.420   9.132  71.546  1.00  0.00    -0.339 NA 
HETATM   24  C   UNL     1      -9.597   8.957  70.220  1.00  0.00    -0.186 A  
HETATM   25  C   UNL     1     -10.083   8.830  71.501  1.00  0.00    -0.301 A  
ENDBRANCH  20  21
ENDBRANCH  10  20
ENDBRANCH   9  10
ENDBRANCH   8   9
ENDBRANCH   5   8
TORSDOF 7
ENDMDL
MODEL      342
REMARK 921   NORMALIZED FREE ENERGY PREDICTED BY IDOCK:   -3.95 KCAL/MOL
REMARK 922        TOTAL FREE ENERGY PREDICTED BY IDOCK:   -6.44 KCAL/MOL
REMARK 923 INTER-LIGAND FREE ENERGY PREDICTED BY IDOCK:   -5.64 KCAL/MOL
REMARK 924 INTRA-LIGAND FREE ENERGY PREDICTED BY IDOCK:   -0.80 KCAL/MOL
REMARK 927      BINDING AFFINITY PREDICTED BY RF-SCORE:    0.00 PKD
ROOT
HETATM    1 CL   UNL     1     -11.108  16.321  67.798  1.00  0.00    -0.277 Cl 
HETATM    2  C   UNL     1     -11.081  14.628  67.490  1.00  0.00    -0.313 A  
HETATM    3  C   UNL     1     -11.864  13.775  68.262  1.00  0.00    -0.413 A  
HETATM    4  C   UNL     1     -11.810  12.398  68.038  1.00  0.00    -0.376 A  
HETATM    5  C   UNL     1     -10.981  11.861  67.039  1.00  0.00    -0.326 A  
HETATM    6  C   UNL     1     -10.216  12.736  66.258  1.00  0.00    -0.264 A  
HETATM    7  C   UNL     1     -10.265  14.115  66.485  1.00  0.00    -0.278 A  
ENDROOT
BRANCH   5   8
HETATM    8  C   UNL     1     -10.860  10.361  66.867  1.00  0.00    -0.229 C  
BRANCH   8   9
HETATM    9  C   UNL     1      -9.601   9.777  67.511  1.00  0.00    -0.178 C  
BRANCH   9  10
HETATM   10  C   UNL     1      -9.839   9.046  68.851  1.00  0.00    -0.175 C  
BRANCH  10  11
HETATM   11  S   UNL     1      -9.902   7.225  68.587  1.00  0.00    -0.165 SA 
BRANCH  11  12
HETATM   12  C   UNL     1      -8.573   6.610  67.523  1.00  0.00    -0.120 A  
HETATM   13 CL   UNL     1      -6.351   8.053  68.482  1.00  0.00    -0.051 Cl 
HETATM   14  C   UNL     1      -6.765   5.325  65.707  1.00  0.00    -0.053 A  
HETATM   15  C   UNL     1      -7.188   6.891  67.523  1.00  0.00    -0.090 A  
HETATM   16  C   UNL     1      -6.304   6.233  66.640  1.00  0.00    -0.041 A  
HETATM   17  C   UNL     1      -8.120   5.073  65.630  1.00  0.00    -0.113 A  
HETATM   18  C   UNL     1      -9.012   5.703  66.513  1.00  0.00    -0.126 A  
HETATM   19 CL   UNL     1     -10.687   5.291  66.240  1.00  0.00    -0.326 Cl 
ENDBRANCH  11  12
ENDBRANCH  10  11
BRANCH  10  20
HETATM   20  C   UNL     1     -10.924   9.540  69.834  1.00  0.00    -0.238 C  
BRANCH  20  21
HETATM   21  N   UNL     1     -11.014   8.781  71.075  1.00  0.00    -0.252 NA 
HETATM   22  C   UNL     1     -10.049   8.713  72.043  1.00  0.00    -0.331 A  
HETATM   23  N   UNL     1     -10.419   7.936  73.033  1.00  0.00    -0.357 NA 
HETATM   24  C   UNL     1     -12.020   7.932  71.437  1.00  0.00    -0.303 A  
HETATM   25  C   UNL     1     -11.647   7.446  72.669  1.00  0.00    -0.250 A  
ENDBRANCH  20  21
ENDBRANCH  10  20
ENDBRANCH   9  10
ENDBRANCH   8   9
ENDBRANCH   5   8
TORSDOF 7
ENDMDL
MODEL      343
REMARK 921   NORMALIZED FREE ENERGY PREDICTED BY IDOCK:   -3.94 KCAL/MOL
REMARK 922        TOTAL FREE ENERGY PREDICTED BY IDOCK:   -6.44 KCAL/MOL
REMARK 923 INTER-LIGAND FREE ENERGY PREDICTED BY IDOCK:   -5.38 KCAL/MOL
REMARK 924 INTRA-LIGAND FREE ENERGY PREDICTED BY IDOCK:   -1.06 KCAL/MOL
REMARK 927      BINDING AFFINITY PREDICTED BY RF-SCORE:    0.00 PKD
ROOT
HETATM    1 CL   UNL     1     -10.771  17.984  67.673  1.00  0.00    -0.411 Cl 
HETATM    2  C   UNL     1     -10.963  16.307  68.006  1.00  0.00    -0.328 A  
HETATM    3  C   UNL     1     -10.505  15.366  67.089  1.00  0.00    -0.290 A  
HETATM    4  C   UNL     1     -10.698  14.006  67.341  1.00  0.00    -0.285 A  
HETATM    5  C   UNL     1     -11.341  13.574  68.513  1.00  0.00    -0.327 A  
HETATM    6  C   UNL     1     -11.777  14.534  69.435  1.00  0.00    -0.361 A  
HETATM    7  C   UNL     1     -11.589  15.897  69.180  1.00  0.00    -0.382 A  
ENDROOT
BRANCH   5   8
HETATM    8  C   UNL     1     -11.628  12.103  68.732  1.00  0.00    -0.380 C  
BRANCH   8   9
HETATM    9  C   UNL     1     -11.372  11.244  67.492  1.00  0.00    -0.360 C  
BRANCH   9  10
HETATM   10  C   UNL     1     -10.138  10.320  67.588  1.00  0.00    -0.191 C  
BRANCH  10  11
HETATM   11  S   UNL     1     -10.636   8.560  67.373  1.00  0.00    -0.161 SA 
BRANCH  11  12
HETATM   12  C   UNL     1      -9.350   7.388  67.872  1.00  0.00    -0.134 A  
HETATM   13 CL   UNL     1      -7.193   8.164  66.234  1.00  0.00    -0.077 Cl 
HETATM   14  C   UNL     1      -7.592   5.423  68.999  1.00  0.00    -0.085 A  
HETATM   15  C   UNL     1      -8.000   7.274  67.470  1.00  0.00    -0.113 A  
HETATM   16  C   UNL     1      -7.137   6.318  68.050  1.00  0.00    -0.082 A  
HETATM   17  C   UNL     1      -8.921   5.458  69.370  1.00  0.00    -0.124 A  
HETATM   18  C   UNL     1      -9.789   6.414  68.818  1.00  0.00    -0.139 A  
HETATM   19 CL   UNL     1     -11.438   6.280  69.378  1.00  0.00    -0.463 Cl 
ENDBRANCH  11  12
ENDBRANCH  10  11
BRANCH  10  20
HETATM   20  C   UNL     1      -9.101  10.508  68.718  1.00  0.00    -0.166 C  
BRANCH  20  21
HETATM   21  N   UNL     1      -7.797  10.984  68.275  1.00  0.00    -0.114 NA 
HETATM   22  C   UNL     1      -7.502  11.474  67.032  1.00  0.00    -0.151 A  
HETATM   23  N   UNL     1      -6.237  11.806  66.935  1.00  0.00    -0.149 NA 
HETATM   24  C   UNL     1      -6.629  10.929  68.982  1.00  0.00    -0.061 A  
HETATM   25  C   UNL     1      -5.683  11.475  68.146  1.00  0.00    -0.046 A  
ENDBRANCH  20  21
ENDBRANCH  10  20
ENDBRANCH   9  10
ENDBRANCH   8   9
ENDBRANCH   5   8
TORSDOF 7
ENDMDL
MODEL      344
REMARK 921   NORMALIZED FREE ENERGY PREDICTED BY IDOCK:   -3.94 KCAL/MOL
REMARK 922        TOTAL FREE ENERGY PREDICTED BY IDOCK:   -6.43 KCAL/MOL
REMARK 923 INTER-LIGAND FREE ENERGY PREDICTED BY IDOCK:   -5.09 KCAL/MOL
REMARK 924 INTRA-LIGAND FREE ENERGY PREDICTED BY IDOCK:   -1.34 KCAL/MOL
REMARK 927      BINDING AFFINITY PREDICTED BY RF-SCORE:    0.00 PKD
ROOT
HETATM    1 CL   UNL     1     -12.234   9.900  71.997  1.00  0.00    -0.319 Cl 
HETATM    2  C   UNL     1     -11.506   9.876  70.438  1.00  0.00    -0.301 A  
HETATM    3  C   UNL     1     -11.536  11.020  69.646  1.00  0.00    -0.390 A  
HETATM    4  C   UNL     1     -10.981  10.986  68.365  1.00  0.00    -0.281 A  
HETATM    5  C   UNL     1     -10.385   9.816  67.867  1.00  0.00    -0.258 A  
HETATM    6  C   UNL     1     -10.345   8.681  68.685  1.00  0.00    -0.219 A  
HETATM    7  C   UNL     1     -10.906   8.711  69.967  1.00  0.00    -0.226 A  
ENDROOT
BRANCH   5   8
HETATM    8  C   UNL     1      -9.870   9.764  66.444  1.00  0.00    -0.298 C  
BRANCH   8   9
HETATM    9  C   UNL     1      -8.515  10.450  66.263  1.00  0.00    -0.145 C  
BRANCH   9  10
HETATM   10  C   UNL     1      -8.203  10.898  64.819  1.00  0.00     0.146 C  
BRANCH  10  11
HETATM   11  S   UNL     1      -9.426  12.157  64.260  1.00  0.00     0.313 SA 
BRANCH  11  12
HETATM   12  C   UNL     1     -10.173  13.083  65.624  1.00  0.00    -0.287 A  
HETATM   13 CL   UNL     1      -7.913  13.785  67.153  1.00  0.00    -0.123 Cl 
HETATM   14  C   UNL     1     -11.734  14.537  67.540  1.00  0.00    -0.413 A  
HETATM   15  C   UNL     1      -9.579  13.761  66.713  1.00  0.00    -0.279 A  
HETATM   16  C   UNL     1     -10.357  14.494  67.636  1.00  0.00    -0.237 A  
HETATM   17  C   UNL     1     -12.357  13.832  66.530  1.00  0.00    -0.432 A  
HETATM   18  C   UNL     1     -11.599  13.114  65.591  1.00  0.00    -0.338 A  
HETATM   19 CL   UNL     1     -12.561  12.255  64.413  1.00  0.00    -0.505 Cl 
ENDBRANCH  11  12
ENDBRANCH  10  11
BRANCH  10  20
HETATM   20  C   UNL     1      -7.884   9.856  63.723  1.00  0.00    -0.147 C  
BRANCH  20  21
HETATM   21  N   UNL     1      -7.297   8.616  64.213  1.00  0.00    -0.101 NA 
HETATM   22  C   UNL     1      -7.925   7.402  64.277  1.00  0.00    -0.097 A  
HETATM   23  N   UNL     1      -7.138   6.482  64.781  1.00  0.00    -0.051 NA 
HETATM   24  C   UNL     1      -6.065   8.472  64.786  1.00  0.00    -0.064 A  
HETATM   25  C   UNL     1      -5.974   7.135  65.098  1.00  0.00    -0.037 A  
ENDBRANCH  20  21
ENDBRANCH  10  20
ENDBRANCH   9  10
ENDBRANCH   8   9
ENDBRANCH   5   8
TORSDOF 7
ENDMDL
MODEL      345
REMARK 921   NORMALIZED FREE ENERGY PREDICTED BY IDOCK:   -3.93 KCAL/MOL
REMARK 922        TOTAL FREE ENERGY PREDICTED BY IDOCK:   -6.42 KCAL/MOL
REMARK 923 INTER-LIGAND FREE ENERGY PREDICTED BY IDOCK:   -4.08 KCAL/MOL
REMARK 924 INTRA-LIGAND FREE ENERGY PREDICTED BY IDOCK:   -2.34 KCAL/MOL
REMARK 927      BINDING AFFINITY PREDICTED BY RF-SCORE:    0.00 PKD
ROOT
HETATM    1 CL   UNL     1      -8.483   4.755  66.193  1.00  0.00    -0.114 Cl 
HETATM    2  C   UNL     1      -9.122   6.210  66.853  1.00  0.00    -0.127 A  
HETATM    3  C   UNL     1      -9.219   6.357  68.233  1.00  0.00    -0.112 A  
HETATM    4  C   UNL     1      -9.775   7.521  68.766  1.00  0.00    -0.151 A  
HETATM    5  C   UNL     1     -10.233   8.552  67.928  1.00  0.00    -0.273 A  
HETATM    6  C   UNL     1     -10.110   8.396  66.542  1.00  0.00    -0.317 A  
HETATM    7  C   UNL     1      -9.557   7.227  66.007  1.00  0.00     0.084 A  
ENDROOT
BRANCH   5   8
HETATM    8  C   UNL     1     -10.919   9.768  68.513  1.00  0.00    -0.195 C  
BRANCH   8   9
HETATM    9  C   UNL     1      -9.943  10.844  68.993  1.00  0.00    -0.206 C  
BRANCH   9  10
HETATM   10  C   UNL     1      -8.991  11.386  67.906  1.00  0.00    -0.153 C  
BRANCH  10  11
HETATM   11  S   UNL     1      -7.243  10.977  68.321  1.00  0.00    -0.090 SA 
BRANCH  11  12
HETATM   12  C   UNL     1      -6.634   9.498  67.474  1.00  0.00    -0.063 A  
HETATM   13 CL   UNL     1      -7.169  10.114  64.777  1.00  0.00    -0.140 Cl 
HETATM   14  C   UNL     1      -5.490   7.044  66.530  1.00  0.00    -0.022 A  
HETATM   15  C   UNL     1      -6.555   9.190  66.097  1.00  0.00    -0.069 A  
HETATM   16  C   UNL     1      -5.967   7.989  65.643  1.00  0.00    -0.038 A  
HETATM   17  C   UNL     1      -5.610   7.277  67.886  1.00  0.00    -0.025 A  
HETATM   18  C   UNL     1      -6.174   8.474  68.355  1.00  0.00    -0.054 A  
HETATM   19 CL   UNL     1      -6.278   8.573  70.096  1.00  0.00    -0.034 Cl 
ENDBRANCH  11  12
ENDBRANCH  10  11
BRANCH  10  20
HETATM   20  C   UNL     1      -9.150  12.826  67.368  1.00  0.00    -0.192 C  
BRANCH  20  21
HETATM   21  N   UNL     1     -10.401  13.080  66.666  1.00  0.00    -0.256 NA 
HETATM   22  C   UNL     1     -11.327  14.032  66.997  1.00  0.00    -0.330 A  
HETATM   23  N   UNL     1     -12.356  14.003  66.184  1.00  0.00    -0.466 NA 
HETATM   24  C   UNL     1     -10.914  12.352  65.630  1.00  0.00    -0.286 A  
HETATM   25  C   UNL     1     -12.108  12.962  65.325  1.00  0.00    -0.453 A  
ENDBRANCH  20  21
ENDBRANCH  10  20
ENDBRANCH   9  10
ENDBRANCH   8   9
ENDBRANCH   5   8
TORSDOF 7
ENDMDL
MODEL      346
REMARK 921   NORMALIZED FREE ENERGY PREDICTED BY IDOCK:   -3.93 KCAL/MOL
REMARK 922        TOTAL FREE ENERGY PREDICTED BY IDOCK:   -6.41 KCAL/MOL
REMARK 923 INTER-LIGAND FREE ENERGY PREDICTED BY IDOCK:   -5.78 KCAL/MOL
REMARK 924 INTRA-LIGAND FREE ENERGY PREDICTED BY IDOCK:   -0.64 KCAL/MOL
REMARK 927      BINDING AFFINITY PREDICTED BY RF-SCORE:    0.00 PKD
ROOT
HETATM    1 CL   UNL     1     -14.363   7.108  71.761  1.00  0.00    -0.551 Cl 
HETATM    2  C   UNL     1     -12.832   7.721  71.271  1.00  0.00    -0.233 A  
HETATM    3  C   UNL     1     -11.800   6.837  70.971  1.00  0.00    -0.427 A  
HETATM    4  C   UNL     1     -10.546   7.337  70.613  1.00  0.00    -0.240 A  
HETATM    5  C   UNL     1     -10.313   8.721  70.543  1.00  0.00    -0.241 A  
HETATM    6  C   UNL     1     -11.369   9.595  70.828  1.00  0.00    -0.409 A  
HETATM    7  C   UNL     1     -12.624   9.096  71.192  1.00  0.00    -0.293 A  
ENDROOT
BRANCH   5   8
HETATM    8  C   UNL     1      -8.926   9.250  70.245  1.00  0.00    -0.261 C  
BRANCH   8   9
HETATM    9  C   UNL     1      -8.466   8.974  68.813  1.00  0.00    -0.131 C  
BRANCH   9  10
HETATM   10  C   UNL     1      -8.745  10.115  67.811  1.00  0.00    -0.121 C  
BRANCH  10  11
HETATM   11  S   UNL     1      -9.431  11.584  68.685  1.00  0.00    -0.090 SA 
BRANCH  11  12
HETATM   12  C   UNL     1      -8.935  13.156  67.939  1.00  0.00    -0.200 A  
HETATM   13 CL   UNL     1      -6.588  13.764  69.376  1.00  0.00    -0.111 Cl 
HETATM   14  C   UNL     1      -8.462  15.558  66.446  1.00  0.00    -0.226 A  
HETATM   15  C   UNL     1      -7.802  13.970  68.169  1.00  0.00    -0.144 A  
HETATM   16  C   UNL     1      -7.568  15.138  67.411  1.00  0.00    -0.232 A  
HETATM   17  C   UNL     1      -9.615  14.827  66.238  1.00  0.00    -0.339 A  
HETATM   18  C   UNL     1      -9.855  13.653  66.969  1.00  0.00    -0.251 A  
HETATM   19 CL   UNL     1     -11.380  12.886  66.596  1.00  0.00    -0.339 Cl 
ENDBRANCH  11  12
ENDBRANCH  10  11
BRANCH  10  20
HETATM   20  C   UNL     1      -9.471   9.829  66.476  1.00  0.00    -0.177 C  
BRANCH  20  21
HETATM   21  N   UNL     1      -8.603   9.794  65.306  1.00  0.00    -0.144 NA 
HETATM   22  C   UNL     1      -7.249   9.991  65.306  1.00  0.00    -0.137 A  
HETATM   23  N   UNL     1      -6.753   9.913  64.094  1.00  0.00    -0.122 NA 
HETATM   24  C   UNL     1      -8.999   9.662  64.005  1.00  0.00    -0.223 A  
HETATM   25  C   UNL     1      -7.833   9.704  63.275  1.00  0.00    -0.135 A  
ENDBRANCH  20  21
ENDBRANCH  10  20
ENDBRANCH   9  10
ENDBRANCH   8   9
ENDBRANCH   5   8
TORSDOF 7
ENDMDL
MODEL      347
REMARK 921   NORMALIZED FREE ENERGY PREDICTED BY IDOCK:   -3.92 KCAL/MOL
REMARK 922        TOTAL FREE ENERGY PREDICTED BY IDOCK:   -6.40 KCAL/MOL
REMARK 923 INTER-LIGAND FREE ENERGY PREDICTED BY IDOCK:   -4.25 KCAL/MOL
REMARK 924 INTRA-LIGAND FREE ENERGY PREDICTED BY IDOCK:   -2.16 KCAL/MOL
REMARK 927      BINDING AFFINITY PREDICTED BY RF-SCORE:    0.00 PKD
ROOT
HETATM    1 CL   UNL     1      -9.510  13.416  68.011  1.00  0.00    -0.212 Cl 
HETATM    2  C   UNL     1      -9.668  11.768  67.542  1.00  0.00    -0.180 A  
HETATM    3  C   UNL     1     -10.860  11.094  67.786  1.00  0.00    -0.288 A  
HETATM    4  C   UNL     1     -10.973   9.745  67.442  1.00  0.00    -0.176 A  
HETATM    5  C   UNL     1      -9.902   9.060  66.845  1.00  0.00    -0.288 A  
HETATM    6  C   UNL     1      -8.716   9.760  66.588  1.00  0.00    -0.142 A  
HETATM    7  C   UNL     1      -8.600  11.110  66.938  1.00  0.00    -0.148 A  
ENDROOT
BRANCH   5   8
HETATM    8  C   UNL     1     -10.003   7.576  66.562  1.00  0.00    -0.209 C  
BRANCH   8   9
HETATM    9  C   UNL     1      -8.643   6.890  66.429  1.00  0.00    -0.135 C  
BRANCH   9  10
HETATM   10  C   UNL     1      -8.544   5.508  67.113  1.00  0.00    -0.109 C  
BRANCH  10  11
HETATM   11  S   UNL     1      -8.085   5.701  68.886  1.00  0.00    -0.101 SA 
BRANCH  11  12
HETATM   12  C   UNL     1      -8.893   7.110  69.685  1.00  0.00    -0.141 A  
HETATM   13 CL   UNL     1     -11.504   6.130  70.083  1.00  0.00    -0.439 Cl 
HETATM   14  C   UNL     1      -9.759   9.514  70.987  1.00  0.00    -0.196 A  
HETATM   15  C   UNL     1     -10.202   7.253  70.199  1.00  0.00    -0.203 A  
HETATM   16  C   UNL     1     -10.609   8.433  70.859  1.00  0.00    -0.243 A  
HETATM   17  C   UNL     1      -8.493   9.439  70.438  1.00  0.00    -0.247 A  
HETATM   18  C   UNL     1      -8.065   8.267  69.795  1.00  0.00    -0.118 A  
HETATM   19 CL   UNL     1      -6.452   8.372  69.132  1.00  0.00    -0.042 Cl 
ENDBRANCH  11  12
ENDBRANCH  10  11
BRANCH  10  20
HETATM   20  C   UNL     1      -7.791   4.345  66.429  1.00  0.00    -0.098 C  
BRANCH  20  21
HETATM   21  N   UNL     1      -8.413   3.849  65.208  1.00  0.00    -0.111 NA 
HETATM   22  C   UNL     1      -8.086   4.224  63.933  1.00  0.00    -0.093 A  
HETATM   23  N   UNL     1      -8.837   3.614  63.047  1.00  0.00    -0.094 NA 
HETATM   24  C   UNL     1      -9.490   3.012  65.127  1.00  0.00    -0.103 A  
HETATM   25  C   UNL     1      -9.713   2.853  63.779  1.00  0.00    -0.133 A  
ENDBRANCH  20  21
ENDBRANCH  10  20
ENDBRANCH   9  10
ENDBRANCH   8   9
ENDBRANCH   5   8
TORSDOF 7
ENDMDL
MODEL      348
REMARK 921   NORMALIZED FREE ENERGY PREDICTED BY IDOCK:   -3.90 KCAL/MOL
REMARK 922        TOTAL FREE ENERGY PREDICTED BY IDOCK:   -6.38 KCAL/MOL
REMARK 923 INTER-LIGAND FREE ENERGY PREDICTED BY IDOCK:   -4.77 KCAL/MOL
REMARK 924 INTRA-LIGAND FREE ENERGY PREDICTED BY IDOCK:   -1.62 KCAL/MOL
REMARK 927      BINDING AFFINITY PREDICTED BY RF-SCORE:    0.00 PKD
ROOT
HETATM    1 CL   UNL     1     -10.601  13.120  63.894  1.00  0.00    -0.303 Cl 
HETATM    2  C   UNL     1     -10.751  12.086  65.261  1.00  0.00    -0.288 A  
HETATM    3  C   UNL     1     -11.076  12.626  66.501  1.00  0.00    -0.320 A  
HETATM    4  C   UNL     1     -11.158  11.792  67.617  1.00  0.00    -0.312 A  
HETATM    5  C   UNL     1     -10.924  10.411  67.505  1.00  0.00    -0.358 A  
HETATM    6  C   UNL     1     -10.618   9.881  66.245  1.00  0.00    -0.089 A  
HETATM    7  C   UNL     1     -10.531  10.718  65.128  1.00  0.00    -0.299 A  
ENDROOT
BRANCH   5   8
HETATM    8  C   UNL     1     -10.923   9.531  68.737  1.00  0.00    -0.116 C  
BRANCH   8   9
HETATM    9  C   UNL     1      -9.542   9.383  69.377  1.00  0.00    -0.177 C  
BRANCH   9  10
HETATM   10  C   UNL     1      -9.100   7.927  69.637  1.00  0.00    -0.153 C  
BRANCH  10  11
HETATM   11  S   UNL     1      -7.481   7.592  68.825  1.00  0.00    -0.099 SA 
BRANCH  11  12
HETATM   12  C   UNL     1      -7.480   7.962  67.053  1.00  0.00    -0.092 A  
HETATM   13 CL   UNL     1      -7.059  10.748  67.045  1.00  0.00    -0.098 Cl 
HETATM   14  C   UNL     1      -7.462   8.103  64.189  1.00  0.00    -0.106 A  
HETATM   15  C   UNL     1      -7.259   9.177  66.365  1.00  0.00    -0.091 A  
HETATM   16  C   UNL     1      -7.229   9.229  64.954  1.00  0.00    -0.102 A  
HETATM   17  C   UNL     1      -7.749   6.910  64.823  1.00  0.00    -0.115 A  
HETATM   18  C   UNL     1      -7.764   6.835  66.225  1.00  0.00    -0.098 A  
HETATM   19 CL   UNL     1      -8.183   5.257  66.845  1.00  0.00    -0.108 Cl 
ENDBRANCH  11  12
ENDBRANCH  10  11
BRANCH  10  20
HETATM   20  C   UNL     1     -10.100   6.760  69.467  1.00  0.00    -0.178 C  
BRANCH  20  21
HETATM   21  N   UNL     1     -10.891   6.457  70.653  1.00  0.00    -0.258 NA 
HETATM   22  C   UNL     1     -10.574   5.535  71.613  1.00  0.00    -0.231 A  
HETATM   23  N   UNL     1     -11.493   5.482  72.547  1.00  0.00    -0.273 NA 
HETATM   24  C   UNL     1     -12.124   6.959  70.956  1.00  0.00    -0.380 A  
HETATM   25  C   UNL     1     -12.463   6.368  72.152  1.00  0.00    -0.123 A  
ENDBRANCH  20  21
ENDBRANCH  10  20
ENDBRANCH   9  10
ENDBRANCH   8   9
ENDBRANCH   5   8
TORSDOF 7
ENDMDL
MODEL      349
REMARK 921   NORMALIZED FREE ENERGY PREDICTED BY IDOCK:   -3.90 KCAL/MOL
REMARK 922        TOTAL FREE ENERGY PREDICTED BY IDOCK:   -6.38 KCAL/MOL
REMARK 923 INTER-LIGAND FREE ENERGY PREDICTED BY IDOCK:   -6.11 KCAL/MOL
REMARK 924 INTRA-LIGAND FREE ENERGY PREDICTED BY IDOCK:   -0.27 KCAL/MOL
REMARK 927      BINDING AFFINITY PREDICTED BY RF-SCORE:    0.00 PKD
ROOT
HETATM    1 CL   UNL     1     -10.314   5.378  73.002  1.00  0.00    -0.214 Cl 
HETATM    2  C   UNL     1     -10.666   6.817  72.127  1.00  0.00    -0.220 A  
HETATM    3  C   UNL     1     -11.724   6.832  71.223  1.00  0.00    -0.384 A  
HETATM    4  C   UNL     1     -11.983   7.987  70.483  1.00  0.00     0.051 A  
HETATM    5  C   UNL     1     -11.195   9.139  70.643  1.00  0.00    -0.322 A  
HETATM    6  C   UNL     1     -10.146   9.113  71.572  1.00  0.00    -0.381 A  
HETATM    7  C   UNL     1      -9.883   7.953  72.309  1.00  0.00    -0.276 A  
ENDROOT
BRANCH   5   8
HETATM    8  C   UNL     1     -11.426  10.353  69.769  1.00  0.00    -0.348 C  
BRANCH   8   9
HETATM    9  C   UNL     1     -11.196  10.083  68.281  1.00  0.00    -0.195 C  
BRANCH   9  10
HETATM   10  C   UNL     1      -9.888  10.670  67.710  1.00  0.00    -0.165 C  
BRANCH  10  11
HETATM   11  S   UNL     1     -10.123  11.175  65.954  1.00  0.00    -0.257 SA 
BRANCH  11  12
HETATM   12  C   UNL     1     -10.223  12.969  65.734  1.00  0.00    -0.290 A  
HETATM   13 CL   UNL     1      -8.425  13.894  67.696  1.00  0.00    -0.178 Cl 
HETATM   14  C   UNL     1     -10.610  15.716  65.008  1.00  0.00    -0.422 A  
HETATM   15  C   UNL     1      -9.521  14.017  66.371  1.00  0.00    -0.259 A  
HETATM   16  C   UNL     1      -9.703  15.364  65.988  1.00  0.00    -0.370 A  
HETATM   17  C   UNL     1     -11.364  14.727  64.408  1.00  0.00    -0.224 A  
HETATM   18  C   UNL     1     -11.184  13.381  64.762  1.00  0.00    -0.345 A  
HETATM   19 CL   UNL     1     -12.252  12.280  63.927  1.00  0.00    -0.574 Cl 
ENDBRANCH  11  12
ENDBRANCH  10  11
BRANCH  10  20
HETATM   20  C   UNL     1      -8.537   9.956  67.944  1.00  0.00    -0.125 C  
BRANCH  20  21
HETATM   21  N   UNL     1      -7.462  10.377  67.054  1.00  0.00    -0.095 NA 
HETATM   22  C   UNL     1      -6.611  11.427  67.268  1.00  0.00    -0.104 A  
HETATM   23  N   UNL     1      -5.762  11.564  66.278  1.00  0.00    -0.215 NA 
HETATM   24  C   UNL     1      -7.186   9.869  65.817  1.00  0.00    -0.110 A  
HETATM   25  C   UNL     1      -6.107  10.596  65.369  1.00  0.00    -0.090 A  
ENDBRANCH  20  21
ENDBRANCH  10  20
ENDBRANCH   9  10
ENDBRANCH   8   9
ENDBRANCH   5   8
TORSDOF 7
ENDMDL
MODEL      350
REMARK 921   NORMALIZED FREE ENERGY PREDICTED BY IDOCK:   -3.89 KCAL/MOL
REMARK 922        TOTAL FREE ENERGY PREDICTED BY IDOCK:   -6.36 KCAL/MOL
REMARK 923 INTER-LIGAND FREE ENERGY PREDICTED BY IDOCK:   -5.55 KCAL/MOL
REMARK 924 INTRA-LIGAND FREE ENERGY PREDICTED BY IDOCK:   -0.81 KCAL/MOL
REMARK 927      BINDING AFFINITY PREDICTED BY RF-SCORE:    0.00 PKD
ROOT
HETATM    1 CL   UNL     1      -5.174  14.756  72.617  1.00  0.00    -0.154 Cl 
HETATM    2  C   UNL     1      -5.776  13.940  71.226  1.00  0.00    -0.224 A  
HETATM    3  C   UNL     1      -6.442  14.661  70.239  1.00  0.00    -0.149 A  
HETATM    4  C   UNL     1      -6.965  13.992  69.131  1.00  0.00    -0.103 A  
HETATM    5  C   UNL     1      -6.822  12.601  68.993  1.00  0.00    -0.083 A  
HETATM    6  C   UNL     1      -6.130  11.895  69.985  1.00  0.00    -0.153 A  
HETATM    7  C   UNL     1      -5.611  12.564  71.099  1.00  0.00    -0.015 A  
ENDROOT
BRANCH   5   8
HETATM    8  C   UNL     1      -7.473  11.875  67.835  1.00  0.00    -0.114 C  
BRANCH   8   9
HETATM    9  C   UNL     1      -8.823  12.469  67.428  1.00  0.00    -0.187 C  
BRANCH   9  10
HETATM   10  C   UNL     1     -10.042  11.566  67.717  1.00  0.00    -0.182 C  
BRANCH  10  11
HETATM   11  S   UNL     1     -11.603  12.536  67.598  1.00  0.00    -0.361 SA 
BRANCH  11  12
HETATM   12  C   UNL     1     -11.603  13.724  66.232  1.00  0.00    -0.350 A  
HETATM   13 CL   UNL     1     -12.745  12.208  64.149  1.00  0.00    -0.486 Cl 
HETATM   14  C   UNL     1     -11.499  15.910  64.380  1.00  0.00    -0.268 A  
HETATM   15  C   UNL     1     -12.099  13.611  64.913  1.00  0.00    -0.397 A  
HETATM   16  C   UNL     1     -12.064  14.703  64.018  1.00  0.00    -0.229 A  
HETATM   17  C   UNL     1     -10.943  16.039  65.637  1.00  0.00    -0.175 A  
HETATM   18  C   UNL     1     -10.986  14.971  66.547  1.00  0.00    -0.327 A  
HETATM   19 CL   UNL     1     -10.200  15.306  68.071  1.00  0.00    -0.229 Cl 
ENDBRANCH  11  12
ENDBRANCH  10  11
BRANCH  10  20
HETATM   20  C   UNL     1     -10.037  10.600  68.924  1.00  0.00    -0.202 C  
BRANCH  20  21
HETATM   21  N   UNL     1     -10.316   9.209  68.592  1.00  0.00    -0.205 NA 
HETATM   22  C   UNL     1     -10.338   8.164  69.475  1.00  0.00    -0.222 A  
HETATM   23  N   UNL     1     -10.605   7.031  68.870  1.00  0.00    -0.213 NA 
HETATM   24  C   UNL     1     -10.501   8.693  67.341  1.00  0.00    -0.281 A  
HETATM   25  C   UNL     1     -10.712   7.348  67.540  1.00  0.00    -0.240 A  
ENDBRANCH  20  21
ENDBRANCH  10  20
ENDBRANCH   9  10
ENDBRANCH   8   9
ENDBRANCH   5   8
TORSDOF 7
ENDMDL
MODEL      351
REMARK 921   NORMALIZED FREE ENERGY PREDICTED BY IDOCK:   -3.88 KCAL/MOL
REMARK 922        TOTAL FREE ENERGY PREDICTED BY IDOCK:   -6.35 KCAL/MOL
REMARK 923 INTER-LIGAND FREE ENERGY PREDICTED BY IDOCK:   -5.80 KCAL/MOL
REMARK 924 INTRA-LIGAND FREE ENERGY PREDICTED BY IDOCK:   -0.55 KCAL/MOL
REMARK 927      BINDING AFFINITY PREDICTED BY RF-SCORE:    0.00 PKD
ROOT
HETATM    1 CL   UNL     1     -13.301   6.794  71.823  1.00  0.00    -0.285 Cl 
HETATM    2  C   UNL     1     -11.854   7.511  71.229  1.00  0.00    -0.294 A  
HETATM    3  C   UNL     1     -11.210   6.953  70.128  1.00  0.00    -0.361 A  
HETATM    4  C   UNL     1     -10.015   7.511  69.672  1.00  0.00    -0.184 A  
HETATM    5  C   UNL     1      -9.455   8.635  70.303  1.00  0.00    -0.182 A  
HETATM    6  C   UNL     1     -10.128   9.196  71.396  1.00  0.00    -0.392 A  
HETATM    7  C   UNL     1     -11.323   8.634  71.858  1.00  0.00    -0.417 A  
ENDROOT
BRANCH   5   8
HETATM    8  C   UNL     1      -8.112   9.174  69.859  1.00  0.00    -0.122 C  
BRANCH   8   9
HETATM    9  C   UNL     1      -8.114   9.699  68.422  1.00  0.00    -0.104 C  
BRANCH   9  10
HETATM   10  C   UNL     1      -8.187  11.236  68.293  1.00  0.00    -0.143 C  
BRANCH  10  11
HETATM   11  S   UNL     1      -9.935  11.782  68.102  1.00  0.00    -0.199 SA 
BRANCH  11  12
HETATM   12  C   UNL     1     -10.359  12.239  66.402  1.00  0.00    -0.225 A  
HETATM   13 CL   UNL     1     -10.541  15.045  66.586  1.00  0.00    -0.295 Cl 
HETATM   14  C   UNL     1     -10.934  12.535  63.609  1.00  0.00    -0.507 A  
HETATM   15  C   UNL     1     -10.537  13.508  65.805  1.00  0.00    -0.283 A  
HETATM   16  C   UNL     1     -10.796  13.642  64.424  1.00  0.00    -0.374 A  
HETATM   17  C   UNL     1     -10.834  11.276  64.167  1.00  0.00    -0.407 A  
HETATM   18  C   UNL     1     -10.558  11.124  65.535  1.00  0.00    -0.225 A  
HETATM   19 CL   UNL     1     -10.507   9.461  66.066  1.00  0.00    -0.088 Cl 
ENDBRANCH  11  12
ENDBRANCH  10  11
BRANCH  10  20
HETATM   20  C   UNL     1      -7.224  11.992  67.350  1.00  0.00    -0.144 C  
BRANCH  20  21
HETATM   21  N   UNL     1      -6.615  11.170  66.312  1.00  0.00    -0.107 NA 
HETATM   22  C   UNL     1      -7.275  10.286  65.502  1.00  0.00    -0.149 A  
HETATM   23  N   UNL     1      -6.449   9.684  64.679  1.00  0.00    -0.093 NA 
HETATM   24  C   UNL     1      -5.281  11.061  66.040  1.00  0.00    -0.139 A  
HETATM   25  C   UNL     1      -5.204  10.162  65.002  1.00  0.00    -0.078 A  
ENDBRANCH  20  21
ENDBRANCH  10  20
ENDBRANCH   9  10
ENDBRANCH   8   9
ENDBRANCH   5   8
TORSDOF 7
ENDMDL
MODEL      352
REMARK 921   NORMALIZED FREE ENERGY PREDICTED BY IDOCK:   -3.87 KCAL/MOL
REMARK 922        TOTAL FREE ENERGY PREDICTED BY IDOCK:   -6.34 KCAL/MOL
REMARK 923 INTER-LIGAND FREE ENERGY PREDICTED BY IDOCK:   -5.82 KCAL/MOL
REMARK 924 INTRA-LIGAND FREE ENERGY PREDICTED BY IDOCK:   -0.52 KCAL/MOL
REMARK 927      BINDING AFFINITY PREDICTED BY RF-SCORE:    0.00 PKD
ROOT
HETATM    1 CL   UNL     1      -9.049   1.515  66.362  1.00  0.00    -0.088 Cl 
HETATM    2  C   UNL     1      -8.652   3.188  66.417  1.00  0.00    -0.119 A  
HETATM    3  C   UNL     1      -7.685   3.638  67.310  1.00  0.00    -0.079 A  
HETATM    4  C   UNL     1      -7.393   5.002  67.382  1.00  0.00    -0.082 A  
HETATM    5  C   UNL     1      -8.056   5.927  66.559  1.00  0.00    -0.102 A  
HETATM    6  C   UNL     1      -9.012   5.454  65.650  1.00  0.00    -0.160 A  
HETATM    7  C   UNL     1      -9.309   4.088  65.582  1.00  0.00    -0.160 A  
ENDROOT
BRANCH   5   8
HETATM    8  C   UNL     1      -7.798   7.411  66.711  1.00  0.00    -0.110 C  
BRANCH   8   9
HETATM    9  C   UNL     1      -8.553   8.265  65.691  1.00  0.00    -0.189 C  
BRANCH   9  10
HETATM   10  C   UNL     1      -9.785   9.007  66.253  1.00  0.00    -0.275 C  
BRANCH  10  11
HETATM   11  S   UNL     1      -9.369  10.766  66.608  1.00  0.00    -0.169 SA 
BRANCH  11  12
HETATM   12  C   UNL     1     -10.598  11.934  65.973  1.00  0.00    -0.265 A  
HETATM   13 CL   UNL     1     -10.678  11.259  63.239  1.00  0.00    -0.359 Cl 
HETATM   14  C   UNL     1     -12.631  13.873  65.399  1.00  0.00    -0.538 A  
HETATM   15  C   UNL     1     -11.144  12.084  64.678  1.00  0.00    -0.322 A  
HETATM   16  C   UNL     1     -12.162  13.026  64.414  1.00  0.00    -0.471 A  
HETATM   17  C   UNL     1     -12.074  13.803  66.661  1.00  0.00    -0.471 A  
HETATM   18  C   UNL     1     -11.075  12.859  66.948  1.00  0.00    -0.278 A  
HETATM   19 CL   UNL     1     -10.467  12.947  68.583  1.00  0.00    -0.249 Cl 
ENDBRANCH  11  12
ENDBRANCH  10  11
BRANCH  10  20
HETATM   20  C   UNL     1     -10.649   8.368  67.363  1.00  0.00    -0.243 C  
BRANCH  20  21
HETATM   21  N   UNL     1     -10.373   8.856  68.708  1.00  0.00    -0.210 NA 
HETATM   22  C   UNL     1     -11.125   9.768  69.399  1.00  0.00    -0.170 A  
HETATM   23  N   UNL     1     -10.609  10.017  70.579  1.00  0.00    -0.288 NA 
HETATM   24  C   UNL     1      -9.272   8.574  69.465  1.00  0.00    -0.150 A  
HETATM   25  C   UNL     1      -9.456   9.276  70.634  1.00  0.00    -0.272 A  
ENDBRANCH  20  21
ENDBRANCH  10  20
ENDBRANCH   9  10
ENDBRANCH   8   9
ENDBRANCH   5   8
TORSDOF 7
ENDMDL
MODEL      353
REMARK 921   NORMALIZED FREE ENERGY PREDICTED BY IDOCK:   -3.86 KCAL/MOL
REMARK 922        TOTAL FREE ENERGY PREDICTED BY IDOCK:   -6.32 KCAL/MOL
REMARK 923 INTER-LIGAND FREE ENERGY PREDICTED BY IDOCK:   -5.20 KCAL/MOL
REMARK 924 INTRA-LIGAND FREE ENERGY PREDICTED BY IDOCK:   -1.12 KCAL/MOL
REMARK 927      BINDING AFFINITY PREDICTED BY RF-SCORE:    0.00 PKD
ROOT
HETATM    1 CL   UNL     1     -10.610  12.541  63.709  1.00  0.00    -0.460 Cl 
HETATM    2  C   UNL     1     -10.629  11.390  64.988  1.00  0.00    -0.299 A  
HETATM    3  C   UNL     1     -11.172  11.739  66.221  1.00  0.00    -0.370 A  
HETATM    4  C   UNL     1     -11.150  10.819  67.270  1.00  0.00    -0.339 A  
HETATM    5  C   UNL     1     -10.594   9.540  67.097  1.00  0.00    -0.295 A  
HETATM    6  C   UNL     1     -10.070   9.198  65.844  1.00  0.00    -0.118 A  
HETATM    7  C   UNL     1     -10.087  10.123  64.794  1.00  0.00    -0.250 A  
ENDROOT
BRANCH   5   8
HETATM    8  C   UNL     1     -10.491   8.585  68.267  1.00  0.00    -0.222 C  
BRANCH   8   9
HETATM    9  C   UNL     1      -9.050   8.205  68.615  1.00  0.00    -0.143 C  
BRANCH   9  10
HETATM   10  C   UNL     1      -8.907   6.933  69.479  1.00  0.00    -0.133 C  
BRANCH  10  11
HETATM   11  S   UNL     1      -7.716   5.761  68.704  1.00  0.00    -0.091 SA 
BRANCH  11  12
HETATM   12  C   UNL     1      -8.194   5.257  67.033  1.00  0.00    -0.108 A  
HETATM   13 CL   UNL     1      -7.260   7.419  65.487  1.00  0.00    -0.064 Cl 
HETATM   14  C   UNL     1      -9.043   4.057  64.571  1.00  0.00    -0.142 A  
HETATM   15  C   UNL     1      -7.966   5.874  65.782  1.00  0.00    -0.111 A  
HETATM   16  C   UNL     1      -8.367   5.262  64.575  1.00  0.00    -0.138 A  
HETATM   17  C   UNL     1      -9.345   3.455  65.776  1.00  0.00    -0.144 A  
HETATM   18  C   UNL     1      -8.937   4.039  66.986  1.00  0.00    -0.132 A  
HETATM   19 CL   UNL     1      -9.442   3.155  68.405  1.00  0.00    -0.241 Cl 
ENDBRANCH  11  12
ENDBRANCH  10  11
BRANCH  10  20
HETATM   20  C   UNL     1     -10.157   6.219  70.042  1.00  0.00    -0.175 C  
BRANCH  20  21
HETATM   21  N   UNL     1     -10.401   6.445  71.461  1.00  0.00    -0.204 NA 
HETATM   22  C   UNL     1     -10.890   5.523  72.347  1.00  0.00    -0.248 A  
HETATM   23  N   UNL     1     -11.013   6.033  73.549  1.00  0.00    -0.190 NA 
HETATM   24  C   UNL     1     -10.283   7.632  72.127  1.00  0.00    -0.207 A  
HETATM   25  C   UNL     1     -10.634   7.346  73.426  1.00  0.00    -0.377 A  
ENDBRANCH  20  21
ENDBRANCH  10  20
ENDBRANCH   9  10
ENDBRANCH   8   9
ENDBRANCH   5   8
TORSDOF 7
ENDMDL
MODEL      354
REMARK 921   NORMALIZED FREE ENERGY PREDICTED BY IDOCK:   -3.85 KCAL/MOL
REMARK 922        TOTAL FREE ENERGY PREDICTED BY IDOCK:   -6.31 KCAL/MOL
REMARK 923 INTER-LIGAND FREE ENERGY PREDICTED BY IDOCK:   -5.09 KCAL/MOL
REMARK 924 INTRA-LIGAND FREE ENERGY PREDICTED BY IDOCK:   -1.22 KCAL/MOL
REMARK 927      BINDING AFFINITY PREDICTED BY RF-SCORE:    0.00 PKD
ROOT
HETATM    1 CL   UNL     1      -5.940  20.446  69.686  1.00  0.00    -0.386 Cl 
HETATM    2  C   UNL     1      -6.731  19.279  68.699  1.00  0.00    -0.286 A  
HETATM    3  C   UNL     1      -5.981  18.483  67.839  1.00  0.00    -0.186 A  
HETATM    4  C   UNL     1      -6.628  17.565  67.009  1.00  0.00    -0.206 A  
HETATM    5  C   UNL     1      -8.026  17.428  67.035  1.00  0.00    -0.241 A  
HETATM    6  C   UNL     1      -8.763  18.222  67.922  1.00  0.00    -0.274 A  
HETATM    7  C   UNL     1      -8.116  19.147  68.750  1.00  0.00    -0.384 A  
ENDROOT
BRANCH   5   8
HETATM    8  C   UNL     1      -8.723  16.497  66.066  1.00  0.00    -0.255 C  
BRANCH   8   9
HETATM    9  C   UNL     1      -9.839  15.674  66.711  1.00  0.00    -0.255 C  
BRANCH   9  10
HETATM   10  C   UNL     1      -9.354  14.522  67.618  1.00  0.00    -0.202 C  
BRANCH  10  11
HETATM   11  S   UNL     1     -10.527  13.104  67.538  1.00  0.00    -0.229 SA 
BRANCH  11  12
HETATM   12  C   UNL     1      -9.928  11.632  68.404  1.00  0.00    -0.201 A  
HETATM   13 CL   UNL     1      -7.553  11.060  67.000  1.00  0.00    -0.120 Cl 
HETATM   14  C   UNL     1      -9.298   9.393  70.081  1.00  0.00    -0.276 A  
HETATM   15  C   UNL     1      -8.747  10.876  68.230  1.00  0.00    -0.140 A  
HETATM   16  C   UNL     1      -8.436   9.790  69.078  1.00  0.00    -0.137 A  
HETATM   17  C   UNL     1     -10.494  10.064  70.240  1.00  0.00    -0.331 A  
HETATM   18  C   UNL     1     -10.811  11.158  69.419  1.00  0.00    -0.216 A  
HETATM   19 CL   UNL     1     -12.380  11.854  69.743  1.00  0.00    -0.196 Cl 
ENDBRANCH  11  12
ENDBRANCH  10  11
BRANCH  10  20
HETATM   20  C   UNL     1      -8.866  14.806  69.057  1.00  0.00    -0.136 C  
BRANCH  20  21
HETATM   21  N   UNL     1      -7.418  14.849  69.212  1.00  0.00    -0.168 NA 
HETATM   22  C   UNL     1      -6.509  14.172  68.445  1.00  0.00    -0.103 A  
HETATM   23  N   UNL     1      -5.280  14.403  68.842  1.00  0.00    -0.086 NA 
HETATM   24  C   UNL     1      -6.726  15.483  70.205  1.00  0.00     0.034 A  
HETATM   25  C   UNL     1      -5.402  15.222  69.936  1.00  0.00    -0.107 A  
ENDBRANCH  20  21
ENDBRANCH  10  20
ENDBRANCH   9  10
ENDBRANCH   8   9
ENDBRANCH   5   8
TORSDOF 7
ENDMDL
MODEL      355
REMARK 921   NORMALIZED FREE ENERGY PREDICTED BY IDOCK:   -3.84 KCAL/MOL
REMARK 922        TOTAL FREE ENERGY PREDICTED BY IDOCK:   -6.29 KCAL/MOL
REMARK 923 INTER-LIGAND FREE ENERGY PREDICTED BY IDOCK:   -5.30 KCAL/MOL
REMARK 924 INTRA-LIGAND FREE ENERGY PREDICTED BY IDOCK:   -0.99 KCAL/MOL
REMARK 927      BINDING AFFINITY PREDICTED BY RF-SCORE:    0.00 PKD
ROOT
HETATM    1 CL   UNL     1     -14.409   7.531  72.042  1.00  0.00    -0.448 Cl 
HETATM    2  C   UNL     1     -12.997   8.255  71.377  1.00  0.00    -0.232 A  
HETATM    3  C   UNL     1     -11.917   7.454  71.016  1.00  0.00    -0.337 A  
HETATM    4  C   UNL     1     -10.756   8.046  70.514  1.00  0.00    -0.231 A  
HETATM    5  C   UNL     1     -10.665   9.439  70.361  1.00  0.00    -0.317 A  
HETATM    6  C   UNL     1     -11.768  10.228  70.709  1.00  0.00    -0.453 A  
HETATM    7  C   UNL     1     -12.930   9.636  71.218  1.00  0.00    -0.446 A  
ENDROOT
BRANCH   5   8
HETATM    8  C   UNL     1      -9.369  10.076  69.904  1.00  0.00    -0.207 C  
BRANCH   8   9
HETATM    9  C   UNL     1      -8.928   9.624  68.511  1.00  0.00    -0.124 C  
BRANCH   9  10
HETATM   10  C   UNL     1      -9.322  10.580  67.365  1.00  0.00    -0.142 C  
BRANCH  10  11
HETATM   11  S   UNL     1     -10.006   9.630  65.943  1.00  0.00    -0.237 SA 
BRANCH  11  12
HETATM   12  C   UNL     1      -8.773   8.598  65.112  1.00  0.00    -0.144 A  
HETATM   13 CL   UNL     1      -8.426   6.506  66.968  1.00  0.00    -0.112 Cl 
HETATM   14  C   UNL     1      -6.897   7.221  63.437  1.00  0.00    -0.054 A  
HETATM   15  C   UNL     1      -8.205   7.359  65.486  1.00  0.00    -0.135 A  
HETATM   16  C   UNL     1      -7.300   6.679  64.641  1.00  0.00    -0.085 A  
HETATM   17  C   UNL     1      -7.378   8.462  63.067  1.00  0.00    -0.100 A  
HETATM   18  C   UNL     1      -8.292   9.144  63.885  1.00  0.00    -0.181 A  
HETATM   19 CL   UNL     1      -8.757  10.712  63.273  1.00  0.00    -0.182 Cl 
ENDBRANCH  11  12
ENDBRANCH  10  11
BRANCH  10  20
HETATM   20  C   UNL     1      -8.363  11.707  66.916  1.00  0.00    -0.169 C  
BRANCH  20  21
HETATM   21  N   UNL     1      -8.685  13.027  67.444  1.00  0.00    -0.195 NA 
HETATM   22  C   UNL     1      -7.821  14.084  67.539  1.00  0.00    -0.184 A  
HETATM   23  N   UNL     1      -8.404  15.131  68.071  1.00  0.00    -0.143 NA 
HETATM   24  C   UNL     1      -9.862  13.404  68.025  1.00  0.00    -0.229 A  
HETATM   25  C   UNL     1      -9.677  14.722  68.375  1.00  0.00    -0.214 A  
ENDBRANCH  20  21
ENDBRANCH  10  20
ENDBRANCH   9  10
ENDBRANCH   8   9
ENDBRANCH   5   8
TORSDOF 7
ENDMDL
MODEL      356
REMARK 921   NORMALIZED FREE ENERGY PREDICTED BY IDOCK:   -3.84 KCAL/MOL
REMARK 922        TOTAL FREE ENERGY PREDICTED BY IDOCK:   -6.29 KCAL/MOL
REMARK 923 INTER-LIGAND FREE ENERGY PREDICTED BY IDOCK:   -5.76 KCAL/MOL
REMARK 924 INTRA-LIGAND FREE ENERGY PREDICTED BY IDOCK:   -0.53 KCAL/MOL
REMARK 927      BINDING AFFINITY PREDICTED BY RF-SCORE:    0.00 PKD
ROOT
HETATM    1 CL   UNL     1     -10.963  16.772  67.985  1.00  0.00    -0.338 Cl 
HETATM    2  C   UNL     1     -10.731  15.113  67.592  1.00  0.00    -0.285 A  
HETATM    3  C   UNL     1     -10.954  14.139  68.560  1.00  0.00    -0.271 A  
HETATM    4  C   UNL     1     -10.726  12.796  68.252  1.00  0.00    -0.257 A  
HETATM    5  C   UNL     1     -10.282  12.413  66.976  1.00  0.00    -0.232 A  
HETATM    6  C   UNL     1     -10.083  13.405  66.008  1.00  0.00    -0.308 A  
HETATM    7  C   UNL     1     -10.305  14.751  66.317  1.00  0.00    -0.305 A  
ENDROOT
BRANCH   5   8
HETATM    8  C   UNL     1      -9.949  10.965  66.683  1.00  0.00    -0.250 C  
BRANCH   8   9
HETATM    9  C   UNL     1      -9.186  10.276  67.816  1.00  0.00    -0.149 C  
BRANCH   9  10
HETATM   10  C   UNL     1      -9.662   8.843  68.139  1.00  0.00    -0.160 C  
BRANCH  10  11
HETATM   11  S   UNL     1     -10.894   8.869  69.508  1.00  0.00    -0.092 SA 
BRANCH  11  12
HETATM   12  C   UNL     1     -10.211   8.327  71.094  1.00  0.00    -0.198 A  
HETATM   13 CL   UNL     1      -7.542   9.209  70.906  1.00  0.00    -0.143 Cl 
HETATM   14  C   UNL     1      -9.556   7.384  73.721  1.00  0.00    -0.333 A  
HETATM   15  C   UNL     1      -8.927   8.511  71.656  1.00  0.00    -0.219 A  
HETATM   16  C   UNL     1      -8.624   8.063  72.961  1.00  0.00    -0.265 A  
HETATM   17  C   UNL     1     -10.800   7.126  73.182  1.00  0.00    -0.373 A  
HETATM   18  C   UNL     1     -11.126   7.580  71.894  1.00  0.00    -0.239 A  
HETATM   19 CL   UNL     1     -12.728   7.125  71.367  1.00  0.00    -0.420 Cl 
ENDBRANCH  11  12
ENDBRANCH  10  11
BRANCH  10  20
HETATM   20  C   UNL     1      -8.643   7.690  68.281  1.00  0.00    -0.124 C  
BRANCH  20  21
HETATM   21  N   UNL     1      -9.026   6.452  67.615  1.00  0.00    -0.114 NA 
HETATM   22  C   UNL     1      -8.167   5.491  67.155  1.00  0.00    -0.101 A  
HETATM   23  N   UNL     1      -8.815   4.502  66.587  1.00  0.00    -0.111 NA 
HETATM   24  C   UNL     1     -10.288   6.087  67.242  1.00  0.00    -0.223 A  
HETATM   25  C   UNL     1     -10.138   4.860  66.638  1.00  0.00    -0.249 A  
ENDBRANCH  20  21
ENDBRANCH  10  20
ENDBRANCH   9  10
ENDBRANCH   8   9
ENDBRANCH   5   8
TORSDOF 7
ENDMDL
MODEL      357
REMARK 921   NORMALIZED FREE ENERGY PREDICTED BY IDOCK:   -3.84 KCAL/MOL
REMARK 922        TOTAL FREE ENERGY PREDICTED BY IDOCK:   -6.29 KCAL/MOL
REMARK 923 INTER-LIGAND FREE ENERGY PREDICTED BY IDOCK:   -5.34 KCAL/MOL
REMARK 924 INTRA-LIGAND FREE ENERGY PREDICTED BY IDOCK:   -0.95 KCAL/MOL
REMARK 927      BINDING AFFINITY PREDICTED BY RF-SCORE:    0.00 PKD
ROOT
HETATM    1 CL   UNL     1     -12.146  14.254  64.568  1.00  0.00    -0.480 Cl 
HETATM    2  C   UNL     1     -11.343  12.915  65.291  1.00  0.00    -0.300 A  
HETATM    3  C   UNL     1     -10.208  12.384  64.685  1.00  0.00    -0.312 A  
HETATM    4  C   UNL     1      -9.581  11.272  65.251  1.00  0.00    -0.265 A  
HETATM    5  C   UNL     1     -10.074  10.685  66.428  1.00  0.00    -0.279 A  
HETATM    6  C   UNL     1     -11.205  11.245  67.035  1.00  0.00    -0.324 A  
HETATM    7  C   UNL     1     -11.838  12.356  66.466  1.00  0.00    -0.407 A  
ENDROOT
BRANCH   5   8
HETATM    8  C   UNL     1      -9.442   9.425  66.979  1.00  0.00    -0.200 C  
BRANCH   8   9
HETATM    9  C   UNL     1      -8.642   9.658  68.262  1.00  0.00    -0.119 C  
BRANCH   9  10
HETATM   10  C   UNL     1      -8.854   8.594  69.361  1.00  0.00    -0.144 C  
BRANCH  10  11
HETATM   11  S   UNL     1      -7.296   7.657  69.656  1.00  0.00    -0.091 SA 
BRANCH  11  12
HETATM   12  C   UNL     1      -7.346   6.639  71.152  1.00  0.00    -0.079 A  
HETATM   13 CL   UNL     1      -8.930   4.464  70.317  1.00  0.00    -0.130 Cl 
HETATM   14  C   UNL     1      -7.106   5.302  73.677  1.00  0.00    -0.082 A  
HETATM   15  C   UNL     1      -7.933   5.375  71.388  1.00  0.00    -0.115 A  
HETATM   16  C   UNL     1      -7.786   4.716  72.628  1.00  0.00    -0.088 A  
HETATM   17  C   UNL     1      -6.576   6.566  73.508  1.00  0.00    -0.069 A  
HETATM   18  C   UNL     1      -6.694   7.229  72.276  1.00  0.00    -0.059 A  
HETATM   19 CL   UNL     1      -5.998   8.830  72.264  1.00  0.00    -0.074 Cl 
ENDBRANCH  11  12
ENDBRANCH  10  11
BRANCH  10  20
HETATM   20  C   UNL     1     -10.099   7.678  69.339  1.00  0.00    -0.196 C  
BRANCH  20  21
HETATM   21  N   UNL     1     -10.849   7.639  70.588  1.00  0.00    -0.233 NA 
HETATM   22  C   UNL     1     -10.562   8.357  71.717  1.00  0.00    -0.282 A  
HETATM   23  N   UNL     1     -11.412   8.092  72.681  1.00  0.00    -0.403 NA 
HETATM   24  C   UNL     1     -11.895   6.812  70.881  1.00  0.00    -0.385 A  
HETATM   25  C   UNL     1     -12.251   7.134  72.171  1.00  0.00    -0.218 A  
ENDBRANCH  20  21
ENDBRANCH  10  20
ENDBRANCH   9  10
ENDBRANCH   8   9
ENDBRANCH   5   8
TORSDOF 7
ENDMDL
MODEL      358
REMARK 921   NORMALIZED FREE ENERGY PREDICTED BY IDOCK:   -3.81 KCAL/MOL
REMARK 922        TOTAL FREE ENERGY PREDICTED BY IDOCK:   -6.25 KCAL/MOL
REMARK 923 INTER-LIGAND FREE ENERGY PREDICTED BY IDOCK:   -4.59 KCAL/MOL
REMARK 924 INTRA-LIGAND FREE ENERGY PREDICTED BY IDOCK:   -1.65 KCAL/MOL
REMARK 927      BINDING AFFINITY PREDICTED BY RF-SCORE:    0.00 PKD
ROOT
HETATM    1 CL   UNL     1     -10.911   2.772  63.800  1.00  0.00    -0.145 Cl 
HETATM    2  C   UNL     1      -9.973   4.039  64.491  1.00  0.00    -0.192 A  
HETATM    3  C   UNL     1     -10.400   4.649  65.667  1.00  0.00    -0.266 A  
HETATM    4  C   UNL     1      -9.660   5.704  66.204  1.00  0.00    -0.142 A  
HETATM    5  C   UNL     1      -8.485   6.155  65.579  1.00  0.00    -0.149 A  
HETATM    6  C   UNL     1      -8.060   5.516  64.407  1.00  0.00    -0.124 A  
HETATM    7  C   UNL     1      -8.804   4.462  63.865  1.00  0.00    -0.139 A  
ENDROOT
BRANCH   5   8
HETATM    8  C   UNL     1      -7.743   7.359  66.118  1.00  0.00    -0.094 C  
BRANCH   8   9
HETATM    9  C   UNL     1      -8.660   8.394  66.772  1.00  0.00    -0.123 C  
BRANCH   9  10
HETATM   10  C   UNL     1      -7.931   9.476  67.597  1.00  0.00    -0.106 C  
BRANCH  10  11
HETATM   11  S   UNL     1      -8.066   9.111  69.397  1.00  0.00    -0.107 SA 
BRANCH  11  12
HETATM   12  C   UNL     1      -9.104   7.673  69.758  1.00  0.00    -0.147 A  
HETATM   13 CL   UNL     1     -11.575   8.882  70.368  1.00  0.00    -0.183 Cl 
HETATM   14  C   UNL     1     -10.409   5.152  70.164  1.00  0.00    -0.340 A  
HETATM   15  C   UNL     1     -10.478   7.584  70.078  1.00  0.00    -0.228 A  
HETATM   16  C   UNL     1     -11.115   6.336  70.252  1.00  0.00    -0.430 A  
HETATM   17  C   UNL     1      -9.051   5.199  69.920  1.00  0.00    -0.162 A  
HETATM   18  C   UNL     1      -8.404   6.430  69.725  1.00  0.00    -0.127 A  
HETATM   19 CL   UNL     1      -6.682   6.293  69.467  1.00  0.00    -0.054 Cl 
ENDBRANCH  11  12
ENDBRANCH  10  11
BRANCH  10  20
HETATM   20  C   UNL     1      -8.133  10.976  67.281  1.00  0.00    -0.126 C  
BRANCH  20  21
HETATM   21  N   UNL     1      -9.506  11.354  66.973  1.00  0.00    -0.172 NA 
HETATM   22  C   UNL     1      -9.991  11.673  65.734  1.00  0.00    -0.237 A  
HETATM   23  N   UNL     1     -11.264  11.986  65.784  1.00  0.00    -0.329 NA 
HETATM   24  C   UNL     1     -10.514  11.556  67.873  1.00  0.00    -0.184 A  
HETATM   25  C   UNL     1     -11.602  11.913  67.111  1.00  0.00    -0.290 A  
ENDBRANCH  20  21
ENDBRANCH  10  20
ENDBRANCH   9  10
ENDBRANCH   8   9
ENDBRANCH   5   8
TORSDOF 7
ENDMDL
MODEL      359
REMARK 921   NORMALIZED FREE ENERGY PREDICTED BY IDOCK:   -3.80 KCAL/MOL
REMARK 922        TOTAL FREE ENERGY PREDICTED BY IDOCK:   -6.24 KCAL/MOL
REMARK 923 INTER-LIGAND FREE ENERGY PREDICTED BY IDOCK:   -5.49 KCAL/MOL
REMARK 924 INTRA-LIGAND FREE ENERGY PREDICTED BY IDOCK:   -0.75 KCAL/MOL
REMARK 927      BINDING AFFINITY PREDICTED BY RF-SCORE:    0.00 PKD
ROOT
HETATM    1 CL   UNL     1     -11.204   5.774  71.668  1.00  0.00    -0.297 Cl 
HETATM    2  C   UNL     1     -10.238   7.033  71.004  1.00  0.00    -0.196 A  
HETATM    3  C   UNL     1     -10.599   8.361  71.212  1.00  0.00    -0.279 A  
HETATM    4  C   UNL     1      -9.837   9.381  70.638  1.00  0.00    -0.340 A  
HETATM    5  C   UNL     1      -8.705   9.086  69.859  1.00  0.00    -0.160 A  
HETATM    6  C   UNL     1      -8.345   7.745  69.677  1.00  0.00    -0.129 A  
HETATM    7  C   UNL     1      -9.111   6.722  70.247  1.00  0.00    -0.153 A  
ENDROOT
BRANCH   5   8
HETATM    8  C   UNL     1      -7.942  10.195  69.166  1.00  0.00    -0.124 C  
BRANCH   8   9
HETATM    9  C   UNL     1      -8.841  11.323  68.656  1.00  0.00    -0.141 C  
BRANCH   9  10
HETATM   10  C   UNL     1      -9.024  11.364  67.123  1.00  0.00    -0.162 C  
BRANCH  10  11
HETATM   11  S   UNL     1     -10.641  12.131  66.690  1.00  0.00    -0.243 SA 
BRANCH  11  12
HETATM   12  C   UNL     1     -10.871  13.772  67.417  1.00  0.00    -0.277 A  
HETATM   13 CL   UNL     1      -9.506  15.416  65.580  1.00  0.00    -0.323 Cl 
HETATM   14  C   UNL     1     -11.532  16.171  68.842  1.00  0.00    -0.331 A  
HETATM   15  C   UNL     1     -10.479  15.049  66.955  1.00  0.00    -0.278 A  
HETATM   16  C   UNL     1     -10.832  16.225  67.653  1.00  0.00    -0.293 A  
HETATM   17  C   UNL     1     -11.875  14.939  69.362  1.00  0.00    -0.356 A  
HETATM   18  C   UNL     1     -11.550  13.760  68.672  1.00  0.00    -0.334 A  
HETATM   19 CL   UNL     1     -12.030  12.299  69.501  1.00  0.00    -0.354 Cl 
ENDBRANCH  11  12
ENDBRANCH  10  11
BRANCH  10  20
HETATM   20  C   UNL     1      -8.708  10.120  66.261  1.00  0.00    -0.141 C  
BRANCH  20  21
HETATM   21  N   UNL     1      -8.788  10.340  64.822  1.00  0.00    -0.182 NA 
HETATM   22  C   UNL     1      -9.904  10.176  64.048  1.00  0.00    -0.106 A  
HETATM   23  N   UNL     1      -9.653  10.436  62.786  1.00  0.00    -0.313 NA 
HETATM   24  C   UNL     1      -7.750  10.644  63.989  1.00  0.00     0.168 A  
HETATM   25  C   UNL     1      -8.315  10.732  62.737  1.00  0.00    -0.148 A  
ENDBRANCH  20  21
ENDBRANCH  10  20
ENDBRANCH   9  10
ENDBRANCH   8   9
ENDBRANCH   5   8
TORSDOF 7
ENDMDL
MODEL      360
REMARK 921   NORMALIZED FREE ENERGY PREDICTED BY IDOCK:   -3.78 KCAL/MOL
REMARK 922        TOTAL FREE ENERGY PREDICTED BY IDOCK:   -6.21 KCAL/MOL
REMARK 923 INTER-LIGAND FREE ENERGY PREDICTED BY IDOCK:   -4.68 KCAL/MOL
REMARK 924 INTRA-LIGAND FREE ENERGY PREDICTED BY IDOCK:   -1.53 KCAL/MOL
REMARK 927      BINDING AFFINITY PREDICTED BY RF-SCORE:    0.00 PKD
ROOT
HETATM    1 CL   UNL     1      -7.341  13.552  67.598  1.00  0.00    -0.165 Cl 
HETATM    2  C   UNL     1      -8.301  12.147  67.345  1.00  0.00    -0.174 A  
HETATM    3  C   UNL     1      -9.680  12.214  67.524  1.00  0.00    -0.185 A  
HETATM    4  C   UNL     1     -10.453  11.064  67.359  1.00  0.00    -0.255 A  
HETATM    5  C   UNL     1      -9.861   9.839  67.006  1.00  0.00    -0.245 A  
HETATM    6  C   UNL     1      -8.475   9.795  66.810  1.00  0.00    -0.125 A  
HETATM    7  C   UNL     1      -7.698  10.947  66.981  1.00  0.00    -0.129 A  
ENDROOT
BRANCH   5   8
HETATM    8  C   UNL     1     -10.696   8.580  66.922  1.00  0.00    -0.156 C  
BRANCH   8   9
HETATM    9  C   UNL     1      -9.872   7.323  66.634  1.00  0.00    -0.257 C  
BRANCH   9  10
HETATM   10  C   UNL     1     -10.583   5.993  66.965  1.00  0.00    -0.316 C  
BRANCH  10  11
HETATM   11  S   UNL     1     -10.296   5.532  68.725  1.00  0.00    -0.183 SA 
BRANCH  11  12
HETATM   12  C   UNL     1      -9.797   6.932  69.758  1.00  0.00    -0.171 A  
HETATM   13 CL   UNL     1      -7.086   7.234  69.054  1.00  0.00    -0.077 Cl 
HETATM   14  C   UNL     1      -9.447   9.198  71.480  1.00  0.00    -0.239 A  
HETATM   15  C   UNL     1      -8.568   7.625  69.842  1.00  0.00    -0.138 A  
HETATM   16  C   UNL     1      -8.416   8.755  70.675  1.00  0.00    -0.193 A  
HETATM   17  C   UNL     1     -10.642   8.507  71.477  1.00  0.00    -0.333 A  
HETATM   18  C   UNL     1     -10.819   7.393  70.641  1.00  0.00    -0.242 A  
HETATM   19 CL   UNL     1     -12.380   6.626  70.803  1.00  0.00    -0.339 Cl 
ENDBRANCH  11  12
ENDBRANCH  10  11
BRANCH  10  20
HETATM   20  C   UNL     1     -10.471   4.783  66.010  1.00  0.00    -0.292 C  
BRANCH  20  21
HETATM   21  N   UNL     1      -9.198   4.676  65.308  1.00  0.00    -0.153 NA 
HETATM   22  C   UNL     1      -9.019   4.778  63.955  1.00  0.00    -0.082 A  
HETATM   23  N   UNL     1      -7.759   4.622  63.626  1.00  0.00    -0.067 NA 
HETATM   24  C   UNL     1      -7.991   4.356  65.860  1.00  0.00    -0.099 A  
HETATM   25  C   UNL     1      -7.107   4.362  64.805  1.00  0.00    -0.062 A  
ENDBRANCH  20  21
ENDBRANCH  10  20
ENDBRANCH   9  10
ENDBRANCH   8   9
ENDBRANCH   5   8
TORSDOF 7
ENDMDL
MODEL      361
REMARK 921   NORMALIZED FREE ENERGY PREDICTED BY IDOCK:   -3.78 KCAL/MOL
REMARK 922        TOTAL FREE ENERGY PREDICTED BY IDOCK:   -6.21 KCAL/MOL
REMARK 923 INTER-LIGAND FREE ENERGY PREDICTED BY IDOCK:   -5.14 KCAL/MOL
REMARK 924 INTRA-LIGAND FREE ENERGY PREDICTED BY IDOCK:   -1.06 KCAL/MOL
REMARK 927      BINDING AFFINITY PREDICTED BY RF-SCORE:    0.00 PKD
ROOT
HETATM    1 CL   UNL     1      -5.651   6.598  63.146  1.00  0.00    -0.030 Cl 
HETATM    2  C   UNL     1      -6.825   7.724  63.705  1.00  0.00    -0.063 A  
HETATM    3  C   UNL     1      -6.784   8.165  65.024  1.00  0.00    -0.052 A  
HETATM    4  C   UNL     1      -7.762   9.048  65.487  1.00  0.00    -0.091 A  
HETATM    5  C   UNL     1      -8.783   9.504  64.638  1.00  0.00    -0.233 A  
HETATM    6  C   UNL     1      -8.798   9.066  63.307  1.00  0.00    -0.024 A  
HETATM    7  C   UNL     1      -7.822   8.177  62.844  1.00  0.00    -0.144 A  
ENDROOT
BRANCH   5   8
HETATM    8  C   UNL     1      -9.890  10.386  65.175  1.00  0.00    -0.378 C  
BRANCH   8   9
HETATM    9  C   UNL     1     -10.398   9.952  66.552  1.00  0.00    -0.259 C  
BRANCH   9  10
HETATM   10  C   UNL     1     -10.716  11.112  67.520  1.00  0.00    -0.236 C  
BRANCH  10  11
HETATM   11  S   UNL     1     -10.391  12.733  66.708  1.00  0.00    -0.242 SA 
BRANCH  11  12
HETATM   12  C   UNL     1      -9.438  13.872  67.743  1.00  0.00    -0.214 A  
HETATM   13 CL   UNL     1     -11.366  15.826  68.380  1.00  0.00    -0.363 Cl 
HETATM   14  C   UNL     1      -7.611  15.357  69.380  1.00  0.00    -0.224 A  
HETATM   15  C   UNL     1      -9.833  15.039  68.436  1.00  0.00    -0.222 A  
HETATM   16  C   UNL     1      -8.930  15.748  69.259  1.00  0.00    -0.266 A  
HETATM   17  C   UNL     1      -7.169  14.261  68.666  1.00  0.00    -0.125 A  
HETATM   18  C   UNL     1      -8.057  13.533  67.858  1.00  0.00    -0.165 A  
HETATM   19 CL   UNL     1      -7.309  12.206  67.003  1.00  0.00    -0.113 Cl 
ENDBRANCH  11  12
ENDBRANCH  10  11
BRANCH  10  20
HETATM   20  C   UNL     1     -10.220  11.073  68.983  1.00  0.00    -0.200 C  
BRANCH  20  21
HETATM   21  N   UNL     1     -11.176  10.525  69.937  1.00  0.00    -0.286 NA 
HETATM   22  C   UNL     1     -10.877   9.700  70.987  1.00  0.00    -0.342 A  
HETATM   23  N   UNL     1     -11.956   9.363  71.653  1.00  0.00    -0.371 NA 
HETATM   24  C   UNL     1     -12.535  10.652  69.888  1.00  0.00    -0.173 A  
HETATM   25  C   UNL     1     -12.995   9.953  70.980  1.00  0.00    -0.331 A  
ENDBRANCH  20  21
ENDBRANCH  10  20
ENDBRANCH   9  10
ENDBRANCH   8   9
ENDBRANCH   5   8
TORSDOF 7
ENDMDL
MODEL      362
REMARK 921   NORMALIZED FREE ENERGY PREDICTED BY IDOCK:   -3.78 KCAL/MOL
REMARK 922        TOTAL FREE ENERGY PREDICTED BY IDOCK:   -6.20 KCAL/MOL
REMARK 923 INTER-LIGAND FREE ENERGY PREDICTED BY IDOCK:   -5.26 KCAL/MOL
REMARK 924 INTRA-LIGAND FREE ENERGY PREDICTED BY IDOCK:   -0.94 KCAL/MOL
REMARK 927      BINDING AFFINITY PREDICTED BY RF-SCORE:    0.00 PKD
ROOT
HETATM    1 CL   UNL     1      -8.612  10.722  63.118  1.00  0.00    -0.159 Cl 
HETATM    2  C   UNL     1      -8.928   9.587  64.373  1.00  0.00    -0.212 A  
HETATM    3  C   UNL     1      -9.876   9.885  65.348  1.00  0.00    -0.384 A  
HETATM    4  C   UNL     1     -10.102   8.981  66.388  1.00  0.00    -0.351 A  
HETATM    5  C   UNL     1      -9.393   7.771  66.460  1.00  0.00    -0.243 A  
HETATM    6  C   UNL     1      -8.458   7.478  65.459  1.00  0.00    -0.129 A  
HETATM    7  C   UNL     1      -8.226   8.386  64.420  1.00  0.00    -0.141 A  
ENDROOT
BRANCH   5   8
HETATM    8  C   UNL     1      -9.579   6.843  67.642  1.00  0.00    -0.143 C  
BRANCH   8   9
HETATM    9  C   UNL     1     -10.652   7.318  68.623  1.00  0.00    -0.194 C  
BRANCH   9  10
HETATM   10  C   UNL     1     -10.178   7.453  70.087  1.00  0.00    -0.205 C  
BRANCH  10  11
HETATM   11  S   UNL     1      -8.460   6.812  70.266  1.00  0.00    -0.136 SA 
BRANCH  11  12
HETATM   12  C   UNL     1      -8.336   5.405  71.397  1.00  0.00    -0.122 A  
HETATM   13 CL   UNL     1      -9.221   3.279  69.774  1.00  0.00    -0.206 Cl 
HETATM   14  C   UNL     1      -7.916   3.457  73.459  1.00  0.00    -0.074 A  
HETATM   15  C   UNL     1      -8.577   4.028  71.186  1.00  0.00    -0.081 A  
HETATM   16  C   UNL     1      -8.343   3.076  72.202  1.00  0.00    -0.072 A  
HETATM   17  C   UNL     1      -7.733   4.800  73.725  1.00  0.00    -0.094 A  
HETATM   18  C   UNL     1      -7.942   5.759  72.722  1.00  0.00    -0.101 A  
HETATM   19 CL   UNL     1      -7.700   7.405  73.255  1.00  0.00    -0.109 Cl 
ENDBRANCH  11  12
ENDBRANCH  10  11
BRANCH  10  20
HETATM   20  C   UNL     1     -11.095   7.021  71.254  1.00  0.00    -0.252 C  
BRANCH  20  21
HETATM   21  N   UNL     1     -12.264   7.868  71.456  1.00  0.00    -0.302 NA 
HETATM   22  C   UNL     1     -12.249   9.224  71.635  1.00  0.00    -0.370 A  
HETATM   23  N   UNL     1     -13.460   9.698  71.808  1.00  0.00    -0.400 NA 
HETATM   24  C   UNL     1     -13.555   7.448  71.605  1.00  0.00    -0.366 A  
HETATM   25  C   UNL     1     -14.283   8.601  71.787  1.00  0.00    -0.412 A  
ENDBRANCH  20  21
ENDBRANCH  10  20
ENDBRANCH   9  10
ENDBRANCH   8   9
ENDBRANCH   5   8
TORSDOF 7
ENDMDL
MODEL      363
REMARK 921   NORMALIZED FREE ENERGY PREDICTED BY IDOCK:   -3.76 KCAL/MOL
REMARK 922        TOTAL FREE ENERGY PREDICTED BY IDOCK:   -6.19 KCAL/MOL
REMARK 923 INTER-LIGAND FREE ENERGY PREDICTED BY IDOCK:   -5.02 KCAL/MOL
REMARK 924 INTRA-LIGAND FREE ENERGY PREDICTED BY IDOCK:   -1.17 KCAL/MOL
REMARK 927      BINDING AFFINITY PREDICTED BY RF-SCORE:    0.00 PKD
ROOT
HETATM    1 CL   UNL     1     -12.404  15.335  64.131  1.00  0.00    -0.275 Cl 
HETATM    2  C   UNL     1     -11.857  13.965  65.016  1.00  0.00    -0.373 A  
HETATM    3  C   UNL     1     -11.146  12.962  64.363  1.00  0.00    -0.395 A  
HETATM    4  C   UNL     1     -10.738  11.832  65.073  1.00  0.00    -0.344 A  
HETATM    5  C   UNL     1     -11.027  11.694  66.441  1.00  0.00    -0.345 A  
HETATM    6  C   UNL     1     -11.726  12.722  67.087  1.00  0.00    -0.443 A  
HETATM    7  C   UNL     1     -12.140  13.853  66.374  1.00  0.00    -0.489 A  
ENDROOT
BRANCH   5   8
HETATM    8  C   UNL     1     -10.662  10.424  67.178  1.00  0.00    -0.316 C  
BRANCH   8   9
HETATM    9  C   UNL     1      -9.286   9.875  66.796  1.00  0.00    -0.187 C  
BRANCH   9  10
HETATM   10  C   UNL     1      -8.112  10.851  67.029  1.00  0.00    -0.131 C  
BRANCH  10  11
HETATM   11  S   UNL     1      -6.822  10.623  65.735  1.00  0.00    -0.056 SA 
BRANCH  11  12
HETATM   12  C   UNL     1      -7.264   9.380  64.495  1.00  0.00    -0.105 A  
HETATM   13 CL   UNL     1      -8.443  10.964  62.485  1.00  0.00    -0.273 Cl 
HETATM   14  C   UNL     1      -7.716   7.129  62.777  1.00  0.00    -0.118 A  
HETATM   15  C   UNL     1      -7.841   9.522  63.212  1.00  0.00    -0.137 A  
HETATM   16  C   UNL     1      -8.036   8.408  62.366  1.00  0.00    -0.154 A  
HETATM   17  C   UNL     1      -7.213   6.941  64.049  1.00  0.00    -0.069 A  
HETATM   18  C   UNL     1      -6.994   8.038  64.898  1.00  0.00    -0.063 A  
HETATM   19 CL   UNL     1      -6.392   7.602  66.478  1.00  0.00    -0.045 Cl 
ENDBRANCH  11  12
ENDBRANCH  10  11
BRANCH  10  20
HETATM   20  C   UNL     1      -7.509  11.033  68.440  1.00  0.00    -0.100 C  
BRANCH  20  21
HETATM   21  N   UNL     1      -7.243  12.416  68.815  1.00  0.00    -0.107 NA 
HETATM   22  C   UNL     1      -6.228  12.844  69.628  1.00  0.00    -0.114 A  
HETATM   23  N   UNL     1      -6.262  14.146  69.790  1.00  0.00    -0.130 NA 
HETATM   24  C   UNL     1      -8.011  13.503  68.510  1.00  0.00    -0.119 A  
HETATM   25  C   UNL     1      -7.366  14.568  69.094  1.00  0.00    -0.133 A  
ENDBRANCH  20  21
ENDBRANCH  10  20
ENDBRANCH   9  10
ENDBRANCH   8   9
ENDBRANCH   5   8
TORSDOF 7
ENDMDL
MODEL      364
REMARK 921   NORMALIZED FREE ENERGY PREDICTED BY IDOCK:   -3.76 KCAL/MOL
REMARK 922        TOTAL FREE ENERGY PREDICTED BY IDOCK:   -6.19 KCAL/MOL
REMARK 923 INTER-LIGAND FREE ENERGY PREDICTED BY IDOCK:   -5.10 KCAL/MOL
REMARK 924 INTRA-LIGAND FREE ENERGY PREDICTED BY IDOCK:   -1.09 KCAL/MOL
REMARK 927      BINDING AFFINITY PREDICTED BY RF-SCORE:    0.00 PKD
ROOT
HETATM    1 CL   UNL     1     -12.592  15.543  69.778  1.00  0.00    -0.204 Cl 
HETATM    2  C   UNL     1     -12.143  13.936  69.358  1.00  0.00    -0.337 A  
HETATM    3  C   UNL     1     -11.753  13.649  68.053  1.00  0.00    -0.387 A  
HETATM    4  C   UNL     1     -11.428  12.337  67.704  1.00  0.00    -0.401 A  
HETATM    5  C   UNL     1     -11.483  11.302  68.652  1.00  0.00    -0.362 A  
HETATM    6  C   UNL     1     -11.858  11.613  69.965  1.00  0.00    -0.435 A  
HETATM    7  C   UNL     1     -12.189  12.927  70.315  1.00  0.00    -0.362 A  
ENDROOT
BRANCH   5   8
HETATM    8  C   UNL     1     -11.220   9.869  68.240  1.00  0.00    -0.137 C  
BRANCH   8   9
HETATM    9  C   UNL     1     -10.502   9.051  69.314  1.00  0.00    -0.238 C  
BRANCH   9  10
HETATM   10  C   UNL     1      -8.966   8.992  69.164  1.00  0.00    -0.140 C  
BRANCH  10  11
HETATM   11  S   UNL     1      -8.365   7.265  69.385  1.00  0.00    -0.133 SA 
BRANCH  11  12
HETATM   12  C   UNL     1      -8.847   6.162  68.032  1.00  0.00    -0.111 A  
HETATM   13 CL   UNL     1      -8.353   7.771  65.772  1.00  0.00    -0.131 Cl 
HETATM   14  C   UNL     1      -9.625   4.095  66.204  1.00  0.00    -0.204 A  
HETATM   15  C   UNL     1      -8.787   6.341  66.631  1.00  0.00    -0.132 A  
HETATM   16  C   UNL     1      -9.150   5.306  65.741  1.00  0.00    -0.161 A  
HETATM   17  C   UNL     1      -9.762   3.905  67.565  1.00  0.00    -0.164 A  
HETATM   18  C   UNL     1      -9.388   4.915  68.466  1.00  0.00    -0.131 A  
HETATM   19 CL   UNL     1      -9.668   4.509  70.141  1.00  0.00    -0.271 Cl 
ENDBRANCH  11  12
ENDBRANCH  10  11
BRANCH  10  20
HETATM   20  C   UNL     1      -8.066  10.027  69.878  1.00  0.00    -0.166 C  
BRANCH  20  21
HETATM   21  N   UNL     1      -7.373  10.949  68.987  1.00  0.00    -0.103 NA 
HETATM   22  C   UNL     1      -7.773  11.296  67.725  1.00  0.00    -0.113 A  
HETATM   23  N   UNL     1      -6.930  12.134  67.170  1.00  0.00    -0.140 NA 
HETATM   24  C   UNL     1      -6.163  11.541  69.212  1.00  0.00    -0.079 A  
HETATM   25  C   UNL     1      -5.925  12.298  68.089  1.00  0.00    -0.058 A  
ENDBRANCH  20  21
ENDBRANCH  10  20
ENDBRANCH   9  10
ENDBRANCH   8   9
ENDBRANCH   5   8
TORSDOF 7
ENDMDL
MODEL      365
REMARK 921   NORMALIZED FREE ENERGY PREDICTED BY IDOCK:   -3.76 KCAL/MOL
REMARK 922        TOTAL FREE ENERGY PREDICTED BY IDOCK:   -6.18 KCAL/MOL
REMARK 923 INTER-LIGAND FREE ENERGY PREDICTED BY IDOCK:   -5.29 KCAL/MOL
REMARK 924 INTRA-LIGAND FREE ENERGY PREDICTED BY IDOCK:   -0.90 KCAL/MOL
REMARK 927      BINDING AFFINITY PREDICTED BY RF-SCORE:    0.00 PKD
ROOT
HETATM    1 CL   UNL     1      -5.313  16.937  69.696  1.00  0.00    -0.155 Cl 
HETATM    2  C   UNL     1      -5.809  15.367  69.197  1.00  0.00    -0.104 A  
HETATM    3  C   UNL     1      -6.434  15.201  67.965  1.00  0.00    -0.156 A  
HETATM    4  C   UNL     1      -6.873  13.933  67.579  1.00  0.00    -0.148 A  
HETATM    5  C   UNL     1      -6.685  12.819  68.414  1.00  0.00    -0.087 A  
HETATM    6  C   UNL     1      -6.035  13.001  69.641  1.00  0.00    -0.118 A  
HETATM    7  C   UNL     1      -5.600  14.272  70.031  1.00  0.00    -0.113 A  
ENDROOT
BRANCH   5   8
HETATM    8  C   UNL     1      -7.247  11.468  68.027  1.00  0.00    -0.085 C  
BRANCH   8   9
HETATM    9  C   UNL     1      -8.462  11.558  67.101  1.00  0.00    -0.158 C  
BRANCH   9  10
HETATM   10  C   UNL     1      -9.682  10.725  67.549  1.00  0.00    -0.166 C  
BRANCH  10  11
HETATM   11  S   UNL     1      -9.262   8.931  67.568  1.00  0.00    -0.136 SA 
BRANCH  11  12
HETATM   12  C   UNL     1      -9.622   8.130  69.151  1.00  0.00    -0.157 A  
HETATM   13 CL   UNL     1      -7.820   9.433  70.881  1.00  0.00    -0.153 Cl 
HETATM   14  C   UNL     1     -10.548   6.685  71.447  1.00  0.00    -0.255 A  
HETATM   15  C   UNL     1      -9.101   8.366  70.443  1.00  0.00    -0.149 A  
HETATM   16  C   UNL     1      -9.583   7.665  71.570  1.00  0.00    -0.179 A  
HETATM   17  C   UNL     1     -11.033   6.377  70.192  1.00  0.00    -0.395 A  
HETATM   18  C   UNL     1     -10.581   7.077  69.062  1.00  0.00    -0.217 A  
HETATM   19 CL   UNL     1     -11.278   6.524  67.559  1.00  0.00    -0.382 Cl 
ENDBRANCH  11  12
ENDBRANCH  10  11
BRANCH  10  20
HETATM   20  C   UNL     1     -11.082  10.999  66.955  1.00  0.00    -0.244 C  
BRANCH  20  21
HETATM   21  N   UNL     1     -11.077  11.726  65.693  1.00  0.00    -0.304 NA 
HETATM   22  C   UNL     1     -11.434  13.036  65.522  1.00  0.00    -0.321 A  
HETATM   23  N   UNL     1     -11.340  13.397  64.264  1.00  0.00    -0.387 NA 
HETATM   24  C   UNL     1     -10.820  11.205  64.456  1.00  0.00    -0.250 A  
HETATM   25  C   UNL     1     -10.954  12.266  63.591  1.00  0.00    -0.471 A  
ENDBRANCH  20  21
ENDBRANCH  10  20
ENDBRANCH   9  10
ENDBRANCH   8   9
ENDBRANCH   5   8
TORSDOF 7
ENDMDL
MODEL      366
REMARK 921   NORMALIZED FREE ENERGY PREDICTED BY IDOCK:   -3.72 KCAL/MOL
REMARK 922        TOTAL FREE ENERGY PREDICTED BY IDOCK:   -6.12 KCAL/MOL
REMARK 923 INTER-LIGAND FREE ENERGY PREDICTED BY IDOCK:   -5.08 KCAL/MOL
REMARK 924 INTRA-LIGAND FREE ENERGY PREDICTED BY IDOCK:   -1.04 KCAL/MOL
REMARK 927      BINDING AFFINITY PREDICTED BY RF-SCORE:    0.00 PKD
ROOT
HETATM    1 CL   UNL     1     -12.249   8.765  72.575  1.00  0.00    -0.403 Cl 
HETATM    2  C   UNL     1     -11.544   8.601  71.015  1.00  0.00    -0.281 A  
HETATM    3  C   UNL     1     -11.223   9.738  70.281  1.00  0.00    -0.347 A  
HETATM    4  C   UNL     1     -10.688   9.604  68.998  1.00  0.00    -0.232 A  
HETATM    5  C   UNL     1     -10.463   8.335  68.439  1.00  0.00    -0.206 A  
HETATM    6  C   UNL     1     -10.773   7.200  69.200  1.00  0.00    -0.216 A  
HETATM    7  C   UNL     1     -11.314   7.335  70.483  1.00  0.00    -0.308 A  
ENDROOT
BRANCH   5   8
HETATM    8  C   UNL     1      -9.971   8.201  67.013  1.00  0.00    -0.329 C  
BRANCH   8   9
HETATM    9  C   UNL     1      -8.457   8.367  66.875  1.00  0.00    -0.117 C  
BRANCH   9  10
HETATM   10  C   UNL     1      -7.956   8.564  65.428  1.00  0.00    -0.113 C  
BRANCH  10  11
HETATM   11  S   UNL     1      -8.635  10.122  64.720  1.00  0.00    -0.192 SA 
BRANCH  11  12
HETATM   12  C   UNL     1      -8.982  11.384  65.970  1.00  0.00    -0.197 A  
HETATM   13 CL   UNL     1      -6.855  11.005  67.779  1.00  0.00    -0.068 Cl 
HETATM   14  C   UNL     1      -9.835  13.539  67.658  1.00  0.00    -0.228 A  
HETATM   15  C   UNL     1      -8.258  11.762  67.124  1.00  0.00    -0.169 A  
HETATM   16  C   UNL     1      -8.676  12.841  67.934  1.00  0.00    -0.185 A  
HETATM   17  C   UNL     1     -10.605  13.158  66.577  1.00  0.00    -0.290 A  
HETATM   18  C   UNL     1     -10.196  12.100  65.750  1.00  0.00    -0.254 A  
HETATM   19 CL   UNL     1     -11.315  11.737  64.459  1.00  0.00    -0.368 Cl 
ENDBRANCH  11  12
ENDBRANCH  10  11
BRANCH  10  20
HETATM   20  C   UNL     1      -7.986   7.393  64.420  1.00  0.00    -0.109 C  
BRANCH  20  21
HETATM   21  N   UNL     1      -7.859   6.070  65.018  1.00  0.00    -0.101 NA 
HETATM   22  C   UNL     1      -8.845   5.123  65.085  1.00  0.00    -0.146 A  
HETATM   23  N   UNL     1      -8.428   4.041  65.698  1.00  0.00    -0.109 NA 
HETATM   24  C   UNL     1      -6.779   5.587  65.700  1.00  0.00    -0.045 A  
HETATM   25  C   UNL     1      -7.141   4.316  66.082  1.00  0.00    -0.067 A  
ENDBRANCH  20  21
ENDBRANCH  10  20
ENDBRANCH   9  10
ENDBRANCH   8   9
ENDBRANCH   5   8
TORSDOF 7
ENDMDL
MODEL      367
REMARK 921   NORMALIZED FREE ENERGY PREDICTED BY IDOCK:   -3.70 KCAL/MOL
REMARK 922        TOTAL FREE ENERGY PREDICTED BY IDOCK:   -6.10 KCAL/MOL
REMARK 923 INTER-LIGAND FREE ENERGY PREDICTED BY IDOCK:   -3.96 KCAL/MOL
REMARK 924 INTRA-LIGAND FREE ENERGY PREDICTED BY IDOCK:   -2.14 KCAL/MOL
REMARK 927      BINDING AFFINITY PREDICTED BY RF-SCORE:    0.00 PKD
ROOT
HETATM    1 CL   UNL     1      -8.490   4.728  66.260  1.00  0.00    -0.111 Cl 
HETATM    2  C   UNL     1      -9.146   6.099  67.067  1.00  0.00    -0.118 A  
HETATM    3  C   UNL     1      -9.270   6.089  68.453  1.00  0.00    -0.114 A  
HETATM    4  C   UNL     1      -9.840   7.185  69.102  1.00  0.00    -0.160 A  
HETATM    5  C   UNL     1     -10.285   8.303  68.377  1.00  0.00    -0.242 A  
HETATM    6  C   UNL     1     -10.134   8.305  66.984  1.00  0.00    -0.353 A  
HETATM    7  C   UNL     1      -9.568   7.204  66.332  1.00  0.00    -0.161 A  
ENDROOT
BRANCH   5   8
HETATM    8  C   UNL     1     -10.987   9.445  69.082  1.00  0.00    -0.114 C  
BRANCH   8   9
HETATM    9  C   UNL     1     -10.023  10.451  69.715  1.00  0.00    -0.167 C  
BRANCH   9  10
HETATM   10  C   UNL     1      -8.943  11.003  68.759  1.00  0.00    -0.149 C  
BRANCH  10  11
HETATM   11  S   UNL     1      -7.261  10.685  69.439  1.00  0.00    -0.133 SA 
BRANCH  11  12
HETATM   12  C   UNL     1      -6.585   9.079  68.951  1.00  0.00    -0.052 A  
HETATM   13 CL   UNL     1      -6.051   7.893  71.451  1.00  0.00    -0.034 Cl 
HETATM   14  C   UNL     1      -5.654   6.640  67.764  1.00  0.00    -0.012 A  
HETATM   15  C   UNL     1      -6.170   7.977  69.733  1.00  0.00    -0.029 A  
HETATM   16  C   UNL     1      -5.736   6.773  69.137  1.00  0.00    -0.018 A  
HETATM   17  C   UNL     1      -5.986   7.717  66.967  1.00  0.00    -0.051 A  
HETATM   18  C   UNL     1      -6.438   8.916  67.541  1.00  0.00    -0.061 A  
HETATM   19 CL   UNL     1      -6.773  10.176  66.379  1.00  0.00    -0.086 Cl 
ENDBRANCH  11  12
ENDBRANCH  10  11
BRANCH  10  20
HETATM   20  C   UNL     1      -9.079  12.418  68.153  1.00  0.00    -0.200 C  
BRANCH  20  21
HETATM   21  N   UNL     1     -10.226  12.597  67.272  1.00  0.00    -0.223 NA 
HETATM   22  C   UNL     1     -11.228  13.514  67.437  1.00  0.00    -0.295 A  
HETATM   23  N   UNL     1     -12.127  13.417  66.487  1.00  0.00    -0.399 NA 
HETATM   24  C   UNL     1     -10.553  11.820  66.197  1.00  0.00    -0.260 A  
HETATM   25  C   UNL     1     -11.716  12.368  65.705  1.00  0.00    -0.414 A  
ENDBRANCH  20  21
ENDBRANCH  10  20
ENDBRANCH   9  10
ENDBRANCH   8   9
ENDBRANCH   5   8
TORSDOF 7
ENDMDL
MODEL      368
REMARK 921   NORMALIZED FREE ENERGY PREDICTED BY IDOCK:   -3.70 KCAL/MOL
REMARK 922        TOTAL FREE ENERGY PREDICTED BY IDOCK:   -6.09 KCAL/MOL
REMARK 923 INTER-LIGAND FREE ENERGY PREDICTED BY IDOCK:   -5.55 KCAL/MOL
REMARK 924 INTRA-LIGAND FREE ENERGY PREDICTED BY IDOCK:   -0.54 KCAL/MOL
REMARK 927      BINDING AFFINITY PREDICTED BY RF-SCORE:    0.00 PKD
ROOT
HETATM    1 CL   UNL     1     -11.303  15.959  64.008  1.00  0.00    -0.044 Cl 
HETATM    2  C   UNL     1     -11.444  15.226  65.558  1.00  0.00    -0.152 A  
HETATM    3  C   UNL     1     -12.316  14.156  65.737  1.00  0.00    -0.481 A  
HETATM    4  C   UNL     1     -12.460  13.589  67.005  1.00  0.00    -0.106 A  
HETATM    5  C   UNL     1     -11.732  14.078  68.102  1.00  0.00    -0.387 A  
HETATM    6  C   UNL     1     -10.844  15.142  67.900  1.00  0.00    -0.291 A  
HETATM    7  C   UNL     1     -10.703  15.715  66.631  1.00  0.00    -0.296 A  
ENDROOT
BRANCH   5   8
HETATM    8  C   UNL     1     -11.966  13.516  69.489  1.00  0.00    -0.390 C  
BRANCH   8   9
HETATM    9  C   UNL     1     -11.175  12.236  69.767  1.00  0.00    -0.044 C  
BRANCH   9  10
HETATM   10  C   UNL     1     -10.654  11.511  68.508  1.00  0.00    -0.210 C  
BRANCH  10  11
HETATM   11  S   UNL     1     -11.133   9.732  68.547  1.00  0.00    -0.014 SA 
BRANCH  11  12
HETATM   12  C   UNL     1     -10.770   8.930  70.129  1.00  0.00    -0.225 A  
HETATM   13 CL   UNL     1      -8.283   7.714  69.604  1.00  0.00    -0.126 Cl 
HETATM   14  C   UNL     1     -10.543   7.897  72.794  1.00  0.00    -0.418 A  
HETATM   15  C   UNL     1      -9.639   8.197  70.553  1.00  0.00    -0.170 A  
HETATM   16  C   UNL     1      -9.528   7.714  71.875  1.00  0.00    -0.183 A  
HETATM   17  C   UNL     1     -11.694   8.549  72.399  1.00  0.00    -0.429 A  
HETATM   18  C   UNL     1     -11.814   9.054  71.094  1.00  0.00    -0.301 A  
HETATM   19 CL   UNL     1     -13.353   9.813  70.767  1.00  0.00    -0.234 Cl 
ENDBRANCH  11  12
ENDBRANCH  10  11
BRANCH  10  20
HETATM   20  C   UNL     1      -9.202  11.722  68.023  1.00  0.00    -0.181 C  
BRANCH  20  21
HETATM   21  N   UNL     1      -8.911  11.167  66.707  1.00  0.00    -0.160 NA 
HETATM   22  C   UNL     1      -9.694  11.298  65.592  1.00  0.00    -0.230 A  
HETATM   23  N   UNL     1      -9.172  10.672  64.564  1.00  0.00    -0.216 NA 
HETATM   24  C   UNL     1      -7.872  10.341  66.385  1.00  0.00    -0.119 A  
HETATM   25  C   UNL     1      -8.034  10.075  65.044  1.00  0.00    -0.143 A  
ENDBRANCH  20  21
ENDBRANCH  10  20
ENDBRANCH   9  10
ENDBRANCH   8   9
ENDBRANCH   5   8
TORSDOF 7
ENDMDL
MODEL      369
REMARK 921   NORMALIZED FREE ENERGY PREDICTED BY IDOCK:   -3.70 KCAL/MOL
REMARK 922        TOTAL FREE ENERGY PREDICTED BY IDOCK:   -6.09 KCAL/MOL
REMARK 923 INTER-LIGAND FREE ENERGY PREDICTED BY IDOCK:   -5.48 KCAL/MOL
REMARK 924 INTRA-LIGAND FREE ENERGY PREDICTED BY IDOCK:   -0.61 KCAL/MOL
REMARK 927      BINDING AFFINITY PREDICTED BY RF-SCORE:    0.00 PKD
ROOT
HETATM    1 CL   UNL     1     -11.863  15.506  68.972  1.00  0.00    -0.383 Cl 
HETATM    2  C   UNL     1     -11.828  13.858  69.464  1.00  0.00    -0.329 A  
HETATM    3  C   UNL     1     -12.511  13.468  70.612  1.00  0.00    -0.405 A  
HETATM    4  C   UNL     1     -12.448  12.138  71.034  1.00  0.00    -0.369 A  
HETATM    5  C   UNL     1     -11.711  11.185  70.311  1.00  0.00    -0.431 A  
HETATM    6  C   UNL     1     -11.047  11.591  69.146  1.00  0.00    -0.316 A  
HETATM    7  C   UNL     1     -11.105  12.925  68.727  1.00  0.00    -0.305 A  
ENDROOT
BRANCH   5   8
HETATM    8  C   UNL     1     -11.574   9.769  70.828  1.00  0.00    -0.417 C  
BRANCH   8   9
HETATM    9  C   UNL     1     -10.143   9.405  71.227  1.00  0.00    -0.309 C  
BRANCH   9  10
HETATM   10  C   UNL     1     -10.018   8.148  72.115  1.00  0.00    -0.247 C  
BRANCH  10  11
HETATM   11  S   UNL     1      -8.931   6.898  71.309  1.00  0.00    -0.141 SA 
BRANCH  11  12
HETATM   12  C   UNL     1      -7.479   7.624  70.507  1.00  0.00    -0.079 A  
HETATM   13 CL   UNL     1      -6.159   8.829  72.685  1.00  0.00    -0.077 Cl 
HETATM   14  C   UNL     1      -5.302   8.533  68.878  1.00  0.00    -0.032 A  
HETATM   15  C   UNL     1      -6.378   8.322  71.052  1.00  0.00    -0.038 A  
HETATM   16  C   UNL     1      -5.300   8.744  70.243  1.00  0.00    -0.024 A  
HETATM   17  C   UNL     1      -6.391   7.914  68.298  1.00  0.00    -0.050 A  
HETATM   18  C   UNL     1      -7.463   7.471  69.089  1.00  0.00    -0.098 A  
HETATM   19 CL   UNL     1      -8.765   6.747  68.176  1.00  0.00    -0.122 Cl 
ENDBRANCH  11  12
ENDBRANCH  10  11
BRANCH  10  20
HETATM   20  C   UNL     1     -11.271   7.513  72.761  1.00  0.00    -0.352 C  
BRANCH  20  21
HETATM   21  N   UNL     1     -11.088   6.146  73.232  1.00  0.00    -0.198 NA 
HETATM   22  C   UNL     1     -10.497   5.777  74.409  1.00  0.00    -0.176 A  
HETATM   23  N   UNL     1     -10.467   4.472  74.541  1.00  0.00    -0.266 NA 
HETATM   24  C   UNL     1     -11.378   5.004  72.541  1.00  0.00    -0.063 A  
HETATM   25  C   UNL     1     -11.017   3.979  73.385  1.00  0.00    -0.249 A  
ENDBRANCH  20  21
ENDBRANCH  10  20
ENDBRANCH   9  10
ENDBRANCH   8   9
ENDBRANCH   5   8
TORSDOF 7
ENDMDL
MODEL      370
REMARK 921   NORMALIZED FREE ENERGY PREDICTED BY IDOCK:   -3.67 KCAL/MOL
REMARK 922        TOTAL FREE ENERGY PREDICTED BY IDOCK:   -6.05 KCAL/MOL
REMARK 923 INTER-LIGAND FREE ENERGY PREDICTED BY IDOCK:   -5.30 KCAL/MOL
REMARK 924 INTRA-LIGAND FREE ENERGY PREDICTED BY IDOCK:   -0.75 KCAL/MOL
REMARK 927      BINDING AFFINITY PREDICTED BY RF-SCORE:    0.00 PKD
ROOT
HETATM    1 CL   UNL     1      -5.649   7.932  62.792  1.00  0.00    -0.062 Cl 
HETATM    2  C   UNL     1      -6.829   8.996  63.452  1.00  0.00    -0.089 A  
HETATM    3  C   UNL     1      -6.606   9.589  64.691  1.00  0.00    -0.093 A  
HETATM    4  C   UNL     1      -7.583  10.420  65.244  1.00  0.00    -0.118 A  
HETATM    5  C   UNL     1      -8.786  10.672  64.564  1.00  0.00    -0.154 A  
HETATM    6  C   UNL     1      -8.985  10.083  63.309  1.00  0.00    -0.275 A  
HETATM    7  C   UNL     1      -8.009   9.245  62.757  1.00  0.00    -0.135 A  
ENDROOT
BRANCH   5   8
HETATM    8  C   UNL     1      -9.875  11.498  65.214  1.00  0.00    -0.286 C  
BRANCH   8   9
HETATM    9  C   UNL     1     -10.607  10.761  66.337  1.00  0.00    -0.266 C  
BRANCH   9  10
HETATM   10  C   UNL     1     -10.499  11.427  67.726  1.00  0.00    -0.185 C  
BRANCH  10  11
HETATM   11  S   UNL     1     -11.701  12.815  67.868  1.00  0.00    -0.345 SA 
BRANCH  11  12
HETATM   12  C   UNL     1     -11.271  14.241  66.840  1.00  0.00    -0.326 A  
HETATM   13 CL   UNL     1     -12.352  13.502  64.345  1.00  0.00    -0.411 Cl 
HETATM   14  C   UNL     1     -10.477  16.700  65.597  1.00  0.00    -0.313 A  
HETATM   15  C   UNL     1     -11.575  14.529  65.490  1.00  0.00    -0.350 A  
HETATM   16  C   UNL     1     -11.199  15.755  64.896  1.00  0.00    -0.358 A  
HETATM   17  C   UNL     1     -10.102  16.427  66.898  1.00  0.00    -0.281 A  
HETATM   18  C   UNL     1     -10.484  15.223  67.511  1.00  0.00    -0.265 A  
HETATM   19 CL   UNL     1      -9.887  15.039  69.142  1.00  0.00    -0.226 Cl 
ENDBRANCH  11  12
ENDBRANCH  10  11
BRANCH  10  20
HETATM   20  C   UNL     1      -9.117  11.777  68.325  1.00  0.00    -0.187 C  
BRANCH  20  21
HETATM   21  N   UNL     1      -8.356  10.634  68.811  1.00  0.00    -0.136 NA 
HETATM   22  C   UNL     1      -8.671   9.318  68.610  1.00  0.00    -0.132 A  
HETATM   23  N   UNL     1      -7.800   8.524  69.186  1.00  0.00    -0.098 NA 
HETATM   24  C   UNL     1      -7.265  10.675  69.632  1.00  0.00    -0.139 A  
HETATM   25  C   UNL     1      -6.916   9.358  69.823  1.00  0.00    -0.065 A  
ENDBRANCH  20  21
ENDBRANCH  10  20
ENDBRANCH   9  10
ENDBRANCH   8   9
ENDBRANCH   5   8
TORSDOF 7
ENDMDL
MODEL      371
REMARK 921   NORMALIZED FREE ENERGY PREDICTED BY IDOCK:   -3.65 KCAL/MOL
REMARK 922        TOTAL FREE ENERGY PREDICTED BY IDOCK:   -6.03 KCAL/MOL
REMARK 923 INTER-LIGAND FREE ENERGY PREDICTED BY IDOCK:   -5.87 KCAL/MOL
REMARK 924 INTRA-LIGAND FREE ENERGY PREDICTED BY IDOCK:   -0.16 KCAL/MOL
REMARK 927      BINDING AFFINITY PREDICTED BY RF-SCORE:    0.00 PKD
ROOT
HETATM    1 CL   UNL     1     -10.094  19.126  67.234  1.00  0.00    -0.425 Cl 
HETATM    2  C   UNL     1     -10.165  17.412  67.106  1.00  0.00    -0.323 A  
HETATM    3  C   UNL     1     -10.759  16.828  65.991  1.00  0.00    -0.139 A  
HETATM    4  C   UNL     1     -10.853  15.437  65.909  1.00  0.00    -0.328 A  
HETATM    5  C   UNL     1     -10.348  14.617  66.932  1.00  0.00    -0.264 A  
HETATM    6  C   UNL     1      -9.736  15.221  68.037  1.00  0.00    -0.211 A  
HETATM    7  C   UNL     1      -9.647  16.615  68.123  1.00  0.00    -0.228 A  
ENDROOT
BRANCH   5   8
HETATM    8  C   UNL     1     -10.539  13.116  66.876  1.00  0.00    -0.265 C  
BRANCH   8   9
HETATM    9  C   UNL     1     -10.031  12.393  68.124  1.00  0.00    -0.215 C  
BRANCH   9  10
HETATM   10  C   UNL     1     -10.724  11.044  68.417  1.00  0.00    -0.203 C  
BRANCH  10  11
HETATM   11  S   UNL     1     -11.265  10.969  70.176  1.00  0.00    -0.088 SA 
BRANCH  11  12
HETATM   12  C   UNL     1     -11.467   9.279  70.791  1.00  0.00    -0.292 A  
HETATM   13 CL   UNL     1     -14.250   9.146  71.213  1.00  0.00    -0.191 Cl 
HETATM   14  C   UNL     1     -11.360   6.542  71.638  1.00  0.00    -0.332 A  
HETATM   15  C   UNL     1     -12.632   8.557  71.138  1.00  0.00    -0.144 A  
HETATM   16  C   UNL     1     -12.568   7.202  71.530  1.00  0.00    -0.427 A  
HETATM   17  C   UNL     1     -10.194   7.232  71.373  1.00  0.00    -0.199 A  
HETATM   18  C   UNL     1     -10.239   8.574  70.963  1.00  0.00    -0.203 A  
HETATM   19 CL   UNL     1      -8.666   9.290  70.712  1.00  0.00    -0.275 Cl 
ENDBRANCH  11  12
ENDBRANCH  10  11
BRANCH  10  20
HETATM   20  C   UNL     1     -10.096   9.716  67.935  1.00  0.00    -0.181 C  
BRANCH  20  21
HETATM   21  N   UNL     1      -9.490   9.774  66.611  1.00  0.00    -0.163 NA 
HETATM   22  C   UNL     1     -10.153  10.008  65.436  1.00  0.00    -0.247 A  
HETATM   23  N   UNL     1      -9.334   9.982  64.412  1.00  0.00    -0.275 NA 
HETATM   24  C   UNL     1      -8.187   9.505  66.301  1.00  0.00    -0.115 A  
HETATM   25  C   UNL     1      -8.105   9.674  64.938  1.00  0.00    -0.133 A  
ENDBRANCH  20  21
ENDBRANCH  10  20
ENDBRANCH   9  10
ENDBRANCH   8   9
ENDBRANCH   5   8
TORSDOF 7
ENDMDL
MODEL      372
REMARK 921   NORMALIZED FREE ENERGY PREDICTED BY IDOCK:   -3.61 KCAL/MOL
REMARK 922        TOTAL FREE ENERGY PREDICTED BY IDOCK:   -5.97 KCAL/MOL
REMARK 923 INTER-LIGAND FREE ENERGY PREDICTED BY IDOCK:   -4.90 KCAL/MOL
REMARK 924 INTRA-LIGAND FREE ENERGY PREDICTED BY IDOCK:   -1.07 KCAL/MOL
REMARK 927      BINDING AFFINITY PREDICTED BY RF-SCORE:    0.00 PKD
ROOT
HETATM    1 CL   UNL     1      -8.938   1.512  65.010  1.00  0.00    -0.120 Cl 
HETATM    2  C   UNL     1      -8.391   3.139  64.886  1.00  0.00    -0.094 A  
HETATM    3  C   UNL     1      -7.082   3.454  65.235  1.00  0.00    -0.065 A  
HETATM    4  C   UNL     1      -6.652   4.781  65.173  1.00  0.00    -0.044 A  
HETATM    5  C   UNL     1      -7.520   5.803  64.754  1.00  0.00    -0.076 A  
HETATM    6  C   UNL     1      -8.828   5.465  64.386  1.00  0.00     0.060 A  
HETATM    7  C   UNL     1      -9.262   4.136  64.454  1.00  0.00    -0.150 A  
ENDROOT
BRANCH   5   8
HETATM    8  C   UNL     1      -7.071   7.249  64.779  1.00  0.00    -0.064 C  
BRANCH   8   9
HETATM    9  C   UNL     1      -8.223   8.245  64.629  1.00  0.00    -0.145 C  
BRANCH   9  10
HETATM   10  C   UNL     1      -8.649   8.944  65.938  1.00  0.00    -0.158 C  
BRANCH  10  11
HETATM   11  S   UNL     1      -8.522  10.773  65.759  1.00  0.00    -0.157 SA 
BRANCH  11  12
HETATM   12  C   UNL     1     -10.122  11.579  65.502  1.00  0.00    -0.243 A  
HETATM   13 CL   UNL     1     -10.960  12.061  68.149  1.00  0.00    -0.252 Cl 
HETATM   14  C   UNL     1     -12.536  12.879  64.661  1.00  0.00    -0.499 A  
HETATM   15  C   UNL     1     -11.038  12.128  66.428  1.00  0.00    -0.314 A  
HETATM   16  C   UNL     1     -12.211  12.787  66.000  1.00  0.00    -0.380 A  
HETATM   17  C   UNL     1     -11.701  12.296  63.729  1.00  0.00    -0.566 A  
HETATM   18  C   UNL     1     -10.520  11.653  64.134  1.00  0.00    -0.351 A  
HETATM   19 CL   UNL     1      -9.613  10.944  62.820  1.00  0.00    -0.333 Cl 
ENDBRANCH  11  12
ENDBRANCH  10  11
BRANCH  10  20
HETATM   20  C   UNL     1      -8.124   8.445  67.303  1.00  0.00    -0.105 C  
BRANCH  20  21
HETATM   21  N   UNL     1      -9.000   7.501  67.985  1.00  0.00    -0.129 NA 
HETATM   22  C   UNL     1      -8.692   6.206  68.301  1.00  0.00    -0.114 A  
HETATM   23  N   UNL     1      -9.694   5.607  68.898  1.00  0.00    -0.130 NA 
HETATM   24  C   UNL     1     -10.305   7.709  68.331  1.00  0.00    -0.194 A  
HETATM   25  C   UNL     1     -10.705   6.534  68.927  1.00  0.00    -0.273 A  
ENDBRANCH  20  21
ENDBRANCH  10  20
ENDBRANCH   9  10
ENDBRANCH   8   9
ENDBRANCH   5   8
TORSDOF 7
ENDMDL
MODEL      373
REMARK 921   NORMALIZED FREE ENERGY PREDICTED BY IDOCK:   -3.61 KCAL/MOL
REMARK 922        TOTAL FREE ENERGY PREDICTED BY IDOCK:   -5.97 KCAL/MOL
REMARK 923 INTER-LIGAND FREE ENERGY PREDICTED BY IDOCK:   -5.06 KCAL/MOL
REMARK 924 INTRA-LIGAND FREE ENERGY PREDICTED BY IDOCK:   -0.91 KCAL/MOL
REMARK 927      BINDING AFFINITY PREDICTED BY RF-SCORE:    0.00 PKD
ROOT
HETATM    1 CL   UNL     1     -13.169  13.217  71.490  1.00  0.00    -0.406 Cl 
HETATM    2  C   UNL     1     -12.528  11.691  71.020  1.00  0.00    -0.334 A  
HETATM    3  C   UNL     1     -11.694  11.607  69.909  1.00  0.00    -0.414 A  
HETATM    4  C   UNL     1     -11.208  10.363  69.504  1.00  0.00    -0.325 A  
HETATM    5  C   UNL     1     -11.541   9.193  70.207  1.00  0.00    -0.116 A  
HETATM    6  C   UNL     1     -12.365   9.299  71.335  1.00  0.00    -0.421 A  
HETATM    7  C   UNL     1     -12.857  10.545  71.738  1.00  0.00    -0.559 A  
ENDROOT
BRANCH   5   8
HETATM    8  C   UNL     1     -11.084   7.840  69.704  1.00  0.00    -0.052 C  
BRANCH   8   9
HETATM    9  C   UNL     1     -10.790   6.844  70.827  1.00  0.00    -0.279 C  
BRANCH   9  10
HETATM   10  C   UNL     1      -9.538   7.169  71.670  1.00  0.00    -0.155 C  
BRANCH  10  11
HETATM   11  S   UNL     1      -8.032   6.454  70.886  1.00  0.00    -0.113 SA 
BRANCH  11  12
HETATM   12  C   UNL     1      -8.022   6.611  69.083  1.00  0.00    -0.112 A  
HETATM   13 CL   UNL     1      -8.945   4.075  68.276  1.00  0.00    -0.140 Cl 
HETATM   14  C   UNL     1      -7.936   7.299  66.301  1.00  0.00    -0.110 A  
HETATM   15  C   UNL     1      -8.430   5.707  68.076  1.00  0.00    -0.102 A  
HETATM   16  C   UNL     1      -8.406   6.066  66.711  1.00  0.00    -0.106 A  
HETATM   17  C   UNL     1      -7.465   8.185  67.249  1.00  0.00    -0.090 A  
HETATM   18  C   UNL     1      -7.499   7.853  68.613  1.00  0.00    -0.099 A  
HETATM   19 CL   UNL     1      -6.826   9.080  69.657  1.00  0.00    -0.049 Cl 
ENDBRANCH  11  12
ENDBRANCH  10  11
BRANCH  10  20
HETATM   20  C   UNL     1      -9.552   6.982  73.204  1.00  0.00    -0.166 C  
BRANCH  20  21
HETATM   21  N   UNL     1      -9.785   5.614  73.649  1.00  0.00    -0.148 NA 
HETATM   22  C   UNL     1     -10.962   4.925  73.537  1.00  0.00    -0.328 A  
HETATM   23  N   UNL     1     -10.862   3.719  74.045  1.00  0.00    -0.214 NA 
HETATM   24  C   UNL     1      -8.911   4.825  74.341  1.00  0.00    -0.111 A  
HETATM   25  C   UNL     1      -9.587   3.643  74.546  1.00  0.00    -0.113 A  
ENDBRANCH  20  21
ENDBRANCH  10  20
ENDBRANCH   9  10
ENDBRANCH   8   9
ENDBRANCH   5   8
TORSDOF 7
ENDMDL
MODEL      374
REMARK 921   NORMALIZED FREE ENERGY PREDICTED BY IDOCK:   -3.60 KCAL/MOL
REMARK 922        TOTAL FREE ENERGY PREDICTED BY IDOCK:   -5.95 KCAL/MOL
REMARK 923 INTER-LIGAND FREE ENERGY PREDICTED BY IDOCK:   -4.99 KCAL/MOL
REMARK 924 INTRA-LIGAND FREE ENERGY PREDICTED BY IDOCK:   -0.96 KCAL/MOL
REMARK 927      BINDING AFFINITY PREDICTED BY RF-SCORE:    0.00 PKD
ROOT
HETATM    1 CL   UNL     1     -10.515  15.250  67.729  1.00  0.00    -0.249 Cl 
HETATM    2  C   UNL     1     -10.609  13.549  67.487  1.00  0.00    -0.244 A  
HETATM    3  C   UNL     1     -11.601  12.815  68.130  1.00  0.00    -0.380 A  
HETATM    4  C   UNL     1     -11.651  11.429  67.965  1.00  0.00    -0.357 A  
HETATM    5  C   UNL     1     -10.717  10.765  67.152  1.00  0.00    -0.324 A  
HETATM    6  C   UNL     1      -9.738  11.521  66.496  1.00  0.00    -0.226 A  
HETATM    7  C   UNL     1      -9.684  12.909  66.665  1.00  0.00    -0.254 A  
ENDROOT
BRANCH   5   8
HETATM    8  C   UNL     1     -10.724   9.254  67.055  1.00  0.00    -0.199 C  
BRANCH   8   9
HETATM    9  C   UNL     1      -9.372   8.666  66.646  1.00  0.00    -0.246 C  
BRANCH   9  10
HETATM   10  C   UNL     1      -8.832   7.567  67.587  1.00  0.00    -0.128 C  
BRANCH  10  11
HETATM   11  S   UNL     1      -8.882   8.138  69.337  1.00  0.00    -0.144 SA 
BRANCH  11  12
HETATM   12  C   UNL     1      -9.754   6.995  70.437  1.00  0.00    -0.176 A  
HETATM   13 CL   UNL     1      -8.183   4.666  70.213  1.00  0.00    -0.074 Cl 
HETATM   14  C   UNL     1     -11.365   5.546  72.315  1.00  0.00    -0.257 A  
HETATM   15  C   UNL     1      -9.448   5.669  70.819  1.00  0.00    -0.165 A  
HETATM   16  C   UNL     1     -10.236   4.974  71.763  1.00  0.00    -0.272 A  
HETATM   17  C   UNL     1     -11.736   6.815  71.917  1.00  0.00    -0.349 A  
HETATM   18  C   UNL     1     -10.954   7.529  70.994  1.00  0.00    -0.251 A  
HETATM   19 CL   UNL     1     -11.600   9.099  70.584  1.00  0.00    -0.298 Cl 
ENDBRANCH  11  12
ENDBRANCH  10  11
BRANCH  10  20
HETATM   20  C   UNL     1      -7.526   6.814  67.248  1.00  0.00    -0.096 C  
BRANCH  20  21
HETATM   21  N   UNL     1      -7.058   6.990  65.879  1.00  0.00    -0.071 NA 
HETATM   22  C   UNL     1      -6.215   7.975  65.441  1.00  0.00    -0.045 A  
HETATM   23  N   UNL     1      -5.993   7.876  64.151  1.00  0.00    -0.052 NA 
HETATM   24  C   UNL     1      -7.457   6.274  64.786  1.00  0.00    -0.086 A  
HETATM   25  C   UNL     1      -6.758   6.817  63.733  1.00  0.00    -0.049 A  
ENDBRANCH  20  21
ENDBRANCH  10  20
ENDBRANCH   9  10
ENDBRANCH   8   9
ENDBRANCH   5   8
TORSDOF 7
ENDMDL
MODEL      375
REMARK 921   NORMALIZED FREE ENERGY PREDICTED BY IDOCK:   -3.57 KCAL/MOL
REMARK 922        TOTAL FREE ENERGY PREDICTED BY IDOCK:   -5.92 KCAL/MOL
REMARK 923 INTER-LIGAND FREE ENERGY PREDICTED BY IDOCK:   -4.94 KCAL/MOL
REMARK 924 INTRA-LIGAND FREE ENERGY PREDICTED BY IDOCK:   -0.98 KCAL/MOL
REMARK 927      BINDING AFFINITY PREDICTED BY RF-SCORE:    0.00 PKD
ROOT
HETATM    1 CL   UNL     1     -12.477  12.208  71.083  1.00  0.00    -0.406 Cl 
HETATM    2  C   UNL     1     -12.205  10.509  71.102  1.00  0.00    -0.391 A  
HETATM    3  C   UNL     1     -11.039   9.992  70.545  1.00  0.00    -0.400 A  
HETATM    4  C   UNL     1     -10.838   8.610  70.524  1.00  0.00    -0.257 A  
HETATM    5  C   UNL     1     -11.793   7.734  71.067  1.00  0.00    -0.290 A  
HETATM    6  C   UNL     1     -12.950   8.273  71.642  1.00  0.00    -0.357 A  
HETATM    7  C   UNL     1     -13.155   9.657  71.657  1.00  0.00    -0.503 A  
ENDROOT
BRANCH   5   8
HETATM    8  C   UNL     1     -11.608   6.235  70.955  1.00  0.00    -0.337 C  
BRANCH   8   9
HETATM    9  C   UNL     1     -10.620   5.668  71.977  1.00  0.00    -0.283 C  
BRANCH   9  10
HETATM   10  C   UNL     1      -9.148   6.071  71.747  1.00  0.00    -0.145 C  
BRANCH  10  11
HETATM   11  S   UNL     1      -8.508   5.308  70.198  1.00  0.00    -0.111 SA 
BRANCH  11  12
HETATM   12  C   UNL     1      -8.409   6.471  68.815  1.00  0.00    -0.122 A  
HETATM   13 CL   UNL     1     -10.895   6.077  67.549  1.00  0.00    -0.385 Cl 
HETATM   14  C   UNL     1      -7.886   8.475  66.831  1.00  0.00    -0.092 A  
HETATM   15  C   UNL     1      -9.359   6.808  67.824  1.00  0.00    -0.116 A  
HETATM   16  C   UNL     1      -9.099   7.814  66.867  1.00  0.00    -0.171 A  
HETATM   17  C   UNL     1      -6.907   8.127  67.740  1.00  0.00    -0.073 A  
HETATM   18  C   UNL     1      -7.155   7.143  68.711  1.00  0.00    -0.088 A  
HETATM   19 CL   UNL     1      -5.788   6.811  69.747  1.00  0.00    -0.018 Cl 
ENDBRANCH  11  12
ENDBRANCH  10  11
BRANCH  10  20
HETATM   20  C   UNL     1      -8.125   6.007  72.904  1.00  0.00    -0.113 C  
BRANCH  20  21
HETATM   21  N   UNL     1      -7.714   4.661  73.281  1.00  0.00    -0.087 NA 
HETATM   22  C   UNL     1      -6.576   4.025  72.866  1.00  0.00    -0.040 A  
HETATM   23  N   UNL     1      -6.495   2.814  73.365  1.00  0.00    -0.020 NA 
HETATM   24  C   UNL     1      -8.436   3.770  74.024  1.00  0.00    -0.086 A  
HETATM   25  C   UNL     1      -7.647   2.645  74.092  1.00  0.00    -0.047 A  
ENDBRANCH  20  21
ENDBRANCH  10  20
ENDBRANCH   9  10
ENDBRANCH   8   9
ENDBRANCH   5   8
TORSDOF 7
ENDMDL
MODEL      376
REMARK 921   NORMALIZED FREE ENERGY PREDICTED BY IDOCK:   -3.57 KCAL/MOL
REMARK 922        TOTAL FREE ENERGY PREDICTED BY IDOCK:   -5.91 KCAL/MOL
REMARK 923 INTER-LIGAND FREE ENERGY PREDICTED BY IDOCK:   -4.83 KCAL/MOL
REMARK 924 INTRA-LIGAND FREE ENERGY PREDICTED BY IDOCK:   -1.08 KCAL/MOL
REMARK 927      BINDING AFFINITY PREDICTED BY RF-SCORE:    0.00 PKD
ROOT
HETATM    1 CL   UNL     1      -7.537  14.051  67.288  1.00  0.00    -0.159 Cl 
HETATM    2  C   UNL     1      -8.440  12.587  67.223  1.00  0.00    -0.185 A  
HETATM    3  C   UNL     1      -9.830  12.636  67.208  1.00  0.00    -0.206 A  
HETATM    4  C   UNL     1     -10.562  11.446  67.196  1.00  0.00    -0.279 A  
HETATM    5  C   UNL     1      -9.914  10.200  67.192  1.00  0.00    -0.243 A  
HETATM    6  C   UNL     1      -8.514  10.170  67.186  1.00  0.00    -0.125 A  
HETATM    7  C   UNL     1      -7.780  11.361  67.204  1.00  0.00    -0.152 A  
ENDROOT
BRANCH   5   8
HETATM    8  C   UNL     1     -10.716   8.919  67.273  1.00  0.00    -0.219 C  
BRANCH   8   9
HETATM    9  C   UNL     1     -10.047   7.836  68.122  1.00  0.00    -0.220 C  
BRANCH   9  10
HETATM   10  C   UNL     1     -10.691   6.437  68.014  1.00  0.00    -0.291 C  
BRANCH  10  11
HETATM   11  S   UNL     1     -10.407   5.478  69.561  1.00  0.00    -0.295 SA 
BRANCH  11  12
HETATM   12  C   UNL     1      -9.965   6.518  70.975  1.00  0.00    -0.183 A  
HETATM   13 CL   UNL     1     -12.270   8.112  71.265  1.00  0.00    -0.310 Cl 
HETATM   14  C   UNL     1      -8.914   7.886  73.266  1.00  0.00    -0.326 A  
HETATM   15  C   UNL     1     -10.711   7.498  71.669  1.00  0.00    -0.214 A  
HETATM   16  C   UNL     1     -10.191   8.147  72.810  1.00  0.00    -0.372 A  
HETATM   17  C   UNL     1      -8.128   6.984  72.575  1.00  0.00    -0.107 A  
HETATM   18  C   UNL     1      -8.635   6.314  71.450  1.00  0.00    -0.131 A  
HETATM   19 CL   UNL     1      -7.485   5.244  70.687  1.00  0.00    -0.069 Cl 
ENDBRANCH  11  12
ENDBRANCH  10  11
BRANCH  10  20
HETATM   20  C   UNL     1     -10.499   5.579  66.743  1.00  0.00    -0.296 C  
BRANCH  20  21
HETATM   21  N   UNL     1      -9.126   5.503  66.260  1.00  0.00    -0.142 NA 
HETATM   22  C   UNL     1      -8.145   4.692  66.761  1.00  0.00    -0.103 A  
HETATM   23  N   UNL     1      -7.010   4.864  66.125  1.00  0.00    -0.068 NA 
HETATM   24  C   UNL     1      -8.557   6.294  65.302  1.00  0.00    -0.061 A  
HETATM   25  C   UNL     1      -7.256   5.858  65.211  1.00  0.00    -0.073 A  
ENDBRANCH  20  21
ENDBRANCH  10  20
ENDBRANCH   9  10
ENDBRANCH   8   9
ENDBRANCH   5   8
TORSDOF 7
ENDMDL
MODEL      377
REMARK 921   NORMALIZED FREE ENERGY PREDICTED BY IDOCK:   -3.56 KCAL/MOL
REMARK 922        TOTAL FREE ENERGY PREDICTED BY IDOCK:   -5.90 KCAL/MOL
REMARK 923 INTER-LIGAND FREE ENERGY PREDICTED BY IDOCK:   -5.02 KCAL/MOL
REMARK 924 INTRA-LIGAND FREE ENERGY PREDICTED BY IDOCK:   -0.88 KCAL/MOL
REMARK 927      BINDING AFFINITY PREDICTED BY RF-SCORE:    0.00 PKD
ROOT
HETATM    1 CL   UNL     1      -9.703   2.724  64.510  1.00  0.00    -0.133 Cl 
HETATM    2  C   UNL     1      -9.714   3.638  65.968  1.00  0.00    -0.080 A  
HETATM    3  C   UNL     1      -9.210   3.075  67.137  1.00  0.00    -0.204 A  
HETATM    4  C   UNL     1      -9.257   3.803  68.328  1.00  0.00    -0.215 A  
HETATM    5  C   UNL     1      -9.799   5.098  68.362  1.00  0.00    -0.211 A  
HETATM    6  C   UNL     1     -10.282   5.657  67.172  1.00  0.00    -0.255 A  
HETATM    7  C   UNL     1     -10.241   4.926  65.980  1.00  0.00    -0.287 A  
ENDROOT
BRANCH   5   8
HETATM    8  C   UNL     1      -9.929   5.840  69.676  1.00  0.00    -0.249 C  
BRANCH   8   9
HETATM    9  C   UNL     1     -10.997   6.935  69.651  1.00  0.00    -0.298 C  
BRANCH   9  10
HETATM   10  C   UNL     1     -10.464   8.364  69.891  1.00  0.00    -0.222 C  
BRANCH  10  11
HETATM   11  S   UNL     1      -8.760   8.537  69.213  1.00  0.00    -0.134 SA 
BRANCH  11  12
HETATM   12  C   UNL     1      -8.483  10.114  68.370  1.00  0.00    -0.118 A  
HETATM   13 CL   UNL     1      -6.591  11.346  70.057  1.00  0.00    -0.097 Cl 
HETATM   14  C   UNL     1      -8.274  12.432  66.694  1.00  0.00     0.054 A  
HETATM   15  C   UNL     1      -7.599  11.177  68.669  1.00  0.00    -0.127 A  
HETATM   16  C   UNL     1      -7.488  12.302  67.822  1.00  0.00    -0.126 A  
HETATM   17  C   UNL     1      -9.198  11.447  66.405  1.00  0.00    -0.209 A  
HETATM   18  C   UNL     1      -9.309  10.312  67.224  1.00  0.00    -0.149 A  
HETATM   19 CL   UNL     1     -10.555   9.196  66.722  1.00  0.00    -0.261 Cl 
ENDBRANCH  11  12
ENDBRANCH  10  11
BRANCH  10  20
HETATM   20  C   UNL     1     -10.623   9.041  71.272  1.00  0.00    -0.308 C  
BRANCH  20  21
HETATM   21  N   UNL     1     -10.248   8.207  72.406  1.00  0.00    -0.271 NA 
HETATM   22  C   UNL     1      -8.986   8.068  72.916  1.00  0.00    -0.239 A  
HETATM   23  N   UNL     1      -8.968   7.234  73.928  1.00  0.00    -0.200 NA 
HETATM   24  C   UNL     1     -11.063   7.347  73.086  1.00  0.00    -0.309 A  
HETATM   25  C   UNL     1     -10.257   6.780  74.046  1.00  0.00    -0.369 A  
ENDBRANCH  20  21
ENDBRANCH  10  20
ENDBRANCH   9  10
ENDBRANCH   8   9
ENDBRANCH   5   8
TORSDOF 7
ENDMDL
MODEL      378
REMARK 921   NORMALIZED FREE ENERGY PREDICTED BY IDOCK:   -3.56 KCAL/MOL
REMARK 922        TOTAL FREE ENERGY PREDICTED BY IDOCK:   -5.90 KCAL/MOL
REMARK 923 INTER-LIGAND FREE ENERGY PREDICTED BY IDOCK:   -5.25 KCAL/MOL
REMARK 924 INTRA-LIGAND FREE ENERGY PREDICTED BY IDOCK:   -0.65 KCAL/MOL
REMARK 927      BINDING AFFINITY PREDICTED BY RF-SCORE:    0.00 PKD
ROOT
HETATM    1 CL   UNL     1      -8.046   7.614  63.875  1.00  0.00    -0.090 Cl 
HETATM    2  C   UNL     1      -8.727   9.166  64.173  1.00  0.00    -0.141 A  
HETATM    3  C   UNL     1      -8.974  10.026  63.107  1.00  0.00    -0.273 A  
HETATM    4  C   UNL     1      -9.489  11.300  63.354  1.00  0.00    -0.307 A  
HETATM    5  C   UNL     1      -9.768  11.725  64.663  1.00  0.00    -0.172 A  
HETATM    6  C   UNL     1      -9.533  10.839  65.722  1.00  0.00    -0.244 A  
HETATM    7  C   UNL     1      -9.011   9.565  65.476  1.00  0.00    -0.236 A  
ENDROOT
BRANCH   5   8
HETATM    8  C   UNL     1     -10.237  13.141  64.926  1.00  0.00    -0.306 C  
BRANCH   8   9
HETATM    9  C   UNL     1     -10.900  13.316  66.294  1.00  0.00    -0.293 C  
BRANCH   9  10
HETATM   10  C   UNL     1     -10.030  14.035  67.348  1.00  0.00    -0.243 C  
BRANCH  10  11
HETATM   11  S   UNL     1      -8.801  15.132  66.525  1.00  0.00    -0.235 SA 
BRANCH  11  12
HETATM   12  C   UNL     1      -9.319  16.865  66.462  1.00  0.00    -0.270 A  
HETATM   13 CL   UNL     1     -11.309  16.801  64.468  1.00  0.00    -0.048 Cl 
HETATM   14  C   UNL     1      -9.896  19.660  66.736  1.00  0.00    -0.503 A  
HETATM   15  C   UNL     1     -10.331  17.498  65.704  1.00  0.00    -0.134 A  
HETATM   16  C   UNL     1     -10.622  18.871  65.866  1.00  0.00    -0.438 A  
HETATM   17  C   UNL     1      -8.855  19.094  67.445  1.00  0.00    -0.324 A  
HETATM   18  C   UNL     1      -8.564  17.727  67.311  1.00  0.00    -0.233 A  
HETATM   19 CL   UNL     1      -7.191  17.201  68.255  1.00  0.00    -0.195 Cl 
ENDBRANCH  11  12
ENDBRANCH  10  11
BRANCH  10  20
HETATM   20  C   UNL     1      -9.423  13.251  68.533  1.00  0.00    -0.113 C  
BRANCH  20  21
HETATM   21  N   UNL     1      -7.968  13.180  68.536  1.00  0.00    -0.126 NA 
HETATM   22  C   UNL     1      -7.130  13.937  69.309  1.00  0.00    -0.027 A  
HETATM   23  N   UNL     1      -5.872  13.651  69.072  1.00  0.00    -0.075 NA 
HETATM   24  C   UNL     1      -7.190  12.427  67.703  1.00  0.00    -0.130 A  
HETATM   25  C   UNL     1      -5.896  12.709  68.076  1.00  0.00    -0.091 A  
ENDBRANCH  20  21
ENDBRANCH  10  20
ENDBRANCH   9  10
ENDBRANCH   8   9
ENDBRANCH   5   8
TORSDOF 7
ENDMDL
MODEL      379
REMARK 921   NORMALIZED FREE ENERGY PREDICTED BY IDOCK:   -3.52 KCAL/MOL
REMARK 922        TOTAL FREE ENERGY PREDICTED BY IDOCK:   -5.84 KCAL/MOL
REMARK 923 INTER-LIGAND FREE ENERGY PREDICTED BY IDOCK:   -4.81 KCAL/MOL
REMARK 924 INTRA-LIGAND FREE ENERGY PREDICTED BY IDOCK:   -1.03 KCAL/MOL
REMARK 927      BINDING AFFINITY PREDICTED BY RF-SCORE:    0.00 PKD
ROOT
HETATM    1 CL   UNL     1      -6.630  14.874  67.874  1.00  0.00    -0.155 Cl 
HETATM    2  C   UNL     1      -7.719  13.552  67.714  1.00  0.00    -0.163 A  
HETATM    3  C   UNL     1      -9.063  13.724  68.031  1.00  0.00    -0.191 A  
HETATM    4  C   UNL     1      -9.938  12.640  67.939  1.00  0.00    -0.228 A  
HETATM    5  C   UNL     1      -9.483  11.378  67.524  1.00  0.00    -0.173 A  
HETATM    6  C   UNL     1      -8.131  11.227  67.189  1.00  0.00    -0.150 A  
HETATM    7  C   UNL     1      -7.253  12.312  67.286  1.00  0.00    -0.138 A  
ENDROOT
BRANCH   5   8
HETATM    8  C   UNL     1     -10.420  10.189  67.518  1.00  0.00    -0.304 C  
BRANCH   8   9
HETATM    9  C   UNL     1      -9.693   8.843  67.544  1.00  0.00    -0.216 C  
BRANCH   9  10
HETATM   10  C   UNL     1      -9.614   8.176  68.934  1.00  0.00    -0.153 C  
BRANCH  10  11
HETATM   11  S   UNL     1     -10.692   6.683  68.992  1.00  0.00    -0.275 SA 
BRANCH  11  12
HETATM   12  C   UNL     1     -10.917   6.028  70.664  1.00  0.00    -0.307 A  
HETATM   13 CL   UNL     1     -12.891   7.753  71.699  1.00  0.00    -0.352 Cl 
HETATM   14  C   UNL     1     -11.026   4.644  73.173  1.00  0.00    -0.364 A  
HETATM   15  C   UNL     1     -11.811   6.409  71.691  1.00  0.00    -0.306 A  
HETATM   16  C   UNL     1     -11.872   5.704  72.913  1.00  0.00    -0.106 A  
HETATM   17  C   UNL     1     -10.092   4.283  72.221  1.00  0.00    -0.249 A  
HETATM   18  C   UNL     1     -10.030   4.960  70.993  1.00  0.00    -0.212 A  
HETATM   19 CL   UNL     1      -8.763   4.390  69.934  1.00  0.00    -0.103 Cl 
ENDBRANCH  11  12
ENDBRANCH  10  11
BRANCH  10  20
HETATM   20  C   UNL     1      -9.712   9.026  70.221  1.00  0.00    -0.196 C  
BRANCH  20  21
HETATM   21  N   UNL     1      -8.663   8.773  71.200  1.00  0.00    -0.194 NA 
HETATM   22  C   UNL     1      -7.348   8.519  70.918  1.00  0.00    -0.068 A  
HETATM   23  N   UNL     1      -6.654   8.316  72.012  1.00  0.00    -0.063 NA 
HETATM   24  C   UNL     1      -8.826   8.644  72.550  1.00  0.00    -0.083 A  
HETATM   25  C   UNL     1      -7.563   8.395  73.037  1.00  0.00    -0.059 A  
ENDBRANCH  20  21
ENDBRANCH  10  20
ENDBRANCH   9  10
ENDBRANCH   8   9
ENDBRANCH   5   8
TORSDOF 7
ENDMDL
MODEL      380
REMARK 921   NORMALIZED FREE ENERGY PREDICTED BY IDOCK:   -3.51 KCAL/MOL
REMARK 922        TOTAL FREE ENERGY PREDICTED BY IDOCK:   -5.83 KCAL/MOL
REMARK 923 INTER-LIGAND FREE ENERGY PREDICTED BY IDOCK:   -4.86 KCAL/MOL
REMARK 924 INTRA-LIGAND FREE ENERGY PREDICTED BY IDOCK:   -0.97 KCAL/MOL
REMARK 927      BINDING AFFINITY PREDICTED BY RF-SCORE:    0.00 PKD
ROOT
HETATM    1 CL   UNL     1      -6.037  14.072  68.054  1.00  0.00    -0.129 Cl 
HETATM    2  C   UNL     1      -7.370  13.009  67.825  1.00  0.00    -0.139 A  
HETATM    3  C   UNL     1      -8.601  13.313  68.398  1.00  0.00    -0.130 A  
HETATM    4  C   UNL     1      -9.671  12.429  68.246  1.00  0.00    -0.218 A  
HETATM    5  C   UNL     1      -9.525  11.239  67.514  1.00  0.00    -0.177 A  
HETATM    6  C   UNL     1      -8.285  10.958  66.926  1.00  0.00    -0.135 A  
HETATM    7  C   UNL     1      -7.211  11.841  67.084  1.00  0.00    -0.147 A  
ENDROOT
BRANCH   5   8
HETATM    8  C   UNL     1     -10.664  10.244  67.434  1.00  0.00    -0.339 C  
BRANCH   8   9
HETATM    9  C   UNL     1     -10.209   8.829  67.076  1.00  0.00    -0.351 C  
BRANCH   9  10
HETATM   10  C   UNL     1      -9.795   7.957  68.281  1.00  0.00    -0.169 C  
BRANCH  10  11
HETATM   11  S   UNL     1      -8.250   7.029  67.900  1.00  0.00    -0.115 SA 
BRANCH  11  12
HETATM   12  C   UNL     1      -8.545   5.487  67.000  1.00  0.00    -0.109 A  
HETATM   13 CL   UNL     1      -8.999   3.667  69.103  1.00  0.00    -0.159 Cl 
HETATM   14  C   UNL     1      -9.033   3.303  65.207  1.00  0.00    -0.142 A  
HETATM   15  C   UNL     1      -8.892   4.198  67.467  1.00  0.00    -0.113 A  
HETATM   16  C   UNL     1      -9.153   3.137  66.573  1.00  0.00    -0.170 A  
HETATM   17  C   UNL     1      -8.631   4.529  64.714  1.00  0.00    -0.137 A  
HETATM   18  C   UNL     1      -8.386   5.601  65.587  1.00  0.00    -0.135 A  
HETATM   19 CL   UNL     1      -7.850   7.057  64.786  1.00  0.00    -0.122 Cl 
ENDBRANCH  11  12
ENDBRANCH  10  11
BRANCH  10  20
HETATM   20  C   UNL     1     -10.839   7.089  69.020  1.00  0.00    -0.182 C  
BRANCH  20  21
HETATM   21  N   UNL     1     -11.352   7.672  70.253  1.00  0.00    -0.230 NA 
HETATM   22  C   UNL     1     -11.147   8.957  70.678  1.00  0.00    -0.262 A  
HETATM   23  N   UNL     1     -11.725   9.176  71.835  1.00  0.00    -0.371 NA 
HETATM   24  C   UNL     1     -12.032   7.017  71.240  1.00  0.00    -0.346 A  
HETATM   25  C   UNL     1     -12.283   7.976  72.194  1.00  0.00    -0.331 A  
ENDBRANCH  20  21
ENDBRANCH  10  20
ENDBRANCH   9  10
ENDBRANCH   8   9
ENDBRANCH   5   8
TORSDOF 7
ENDMDL
MODEL      381
REMARK 921   NORMALIZED FREE ENERGY PREDICTED BY IDOCK:   -3.48 KCAL/MOL
REMARK 922        TOTAL FREE ENERGY PREDICTED BY IDOCK:   -5.78 KCAL/MOL
REMARK 923 INTER-LIGAND FREE ENERGY PREDICTED BY IDOCK:   -4.39 KCAL/MOL
REMARK 924 INTRA-LIGAND FREE ENERGY PREDICTED BY IDOCK:   -1.39 KCAL/MOL
REMARK 927      BINDING AFFINITY PREDICTED BY RF-SCORE:    0.00 PKD
ROOT
HETATM    1 CL   UNL     1      -9.679  13.471  66.904  1.00  0.00    -0.253 Cl 
HETATM    2  C   UNL     1      -9.234  12.170  67.937  1.00  0.00    -0.188 A  
HETATM    3  C   UNL     1      -7.887  11.895  68.159  1.00  0.00    -0.134 A  
HETATM    4  C   UNL     1      -7.527  10.814  68.965  1.00  0.00    -0.118 A  
HETATM    5  C   UNL     1      -8.505  10.002  69.563  1.00  0.00    -0.186 A  
HETATM    6  C   UNL     1      -9.855  10.305  69.346  1.00  0.00    -0.247 A  
HETATM    7  C   UNL     1     -10.217  11.385  68.533  1.00  0.00    -0.216 A  
ENDROOT
BRANCH   5   8
HETATM    8  C   UNL     1      -8.104   8.777  70.358  1.00  0.00    -0.118 C  
BRANCH   8   9
HETATM    9  C   UNL     1      -7.194   7.822  69.583  1.00  0.00    -0.075 C  
BRANCH   9  10
HETATM   10  C   UNL     1      -7.881   7.071  68.422  1.00  0.00    -0.122 C  
BRANCH  10  11
HETATM   11  S   UNL     1      -8.472   5.420  68.986  1.00  0.00    -0.099 SA 
BRANCH  11  12
HETATM   12  C   UNL     1      -9.426   5.489  70.522  1.00  0.00    -0.164 A  
HETATM   13 CL   UNL     1      -7.688   4.216  72.339  1.00  0.00    -0.079 Cl 
HETATM   14  C   UNL     1     -11.210   5.877  72.733  1.00  0.00    -0.317 A  
HETATM   15  C   UNL     1      -9.096   5.073  71.832  1.00  0.00    -0.137 A  
HETATM   16  C   UNL     1      -9.973   5.291  72.917  1.00  0.00    -0.192 A  
HETATM   17  C   UNL     1     -11.598   6.236  71.457  1.00  0.00    -0.345 A  
HETATM   18  C   UNL     1     -10.731   6.045  70.369  1.00  0.00    -0.292 A  
HETATM   19 CL   UNL     1     -11.408   6.523  68.832  1.00  0.00    -0.330 Cl 
ENDBRANCH  11  12
ENDBRANCH  10  11
BRANCH  10  20
HETATM   20  C   UNL     1      -7.227   7.020  67.022  1.00  0.00    -0.081 C  
BRANCH  20  21
HETATM   21  N   UNL     1      -7.805   7.933  66.045  1.00  0.00    -0.091 NA 
HETATM   22  C   UNL     1      -7.349   8.137  64.771  1.00  0.00    -0.089 A  
HETATM   23  N   UNL     1      -8.071   9.034  64.142  1.00  0.00    -0.148 NA 
HETATM   24  C   UNL     1      -8.828   8.813  66.261  1.00  0.00    -0.157 A  
HETATM   25  C   UNL     1      -8.998   9.460  65.059  1.00  0.00    -0.211 A  
ENDBRANCH  20  21
ENDBRANCH  10  20
ENDBRANCH   9  10
ENDBRANCH   8   9
ENDBRANCH   5   8
TORSDOF 7
ENDMDL
MODEL      382
REMARK 921   NORMALIZED FREE ENERGY PREDICTED BY IDOCK:   -3.47 KCAL/MOL
REMARK 922        TOTAL FREE ENERGY PREDICTED BY IDOCK:   -5.78 KCAL/MOL
REMARK 923 INTER-LIGAND FREE ENERGY PREDICTED BY IDOCK:   -4.53 KCAL/MOL
REMARK 924 INTRA-LIGAND FREE ENERGY PREDICTED BY IDOCK:   -1.24 KCAL/MOL
REMARK 927      BINDING AFFINITY PREDICTED BY RF-SCORE:    0.00 PKD
ROOT
HETATM    1 CL   UNL     1     -13.234  11.171  71.838  1.00  0.00    -0.560 Cl 
HETATM    2  C   UNL     1     -11.939  10.969  70.723  1.00  0.00    -0.333 A  
HETATM    3  C   UNL     1     -11.078   9.884  70.857  1.00  0.00    -0.418 A  
HETATM    4  C   UNL     1     -10.003   9.743  69.976  1.00  0.00    -0.299 A  
HETATM    5  C   UNL     1      -9.782  10.678  68.951  1.00  0.00    -0.210 A  
HETATM    6  C   UNL     1     -10.671  11.753  68.819  1.00  0.00    -0.255 A  
HETATM    7  C   UNL     1     -11.744  11.897  69.704  1.00  0.00    -0.413 A  
ENDROOT
BRANCH   5   8
HETATM    8  C   UNL     1      -8.562  10.567  68.062  1.00  0.00    -0.121 C  
BRANCH   8   9
HETATM    9  C   UNL     1      -7.766   9.280  68.282  1.00  0.00    -0.087 C  
BRANCH   9  10
HETATM   10  C   UNL     1      -7.708   8.338  67.060  1.00  0.00    -0.096 C  
BRANCH  10  11
HETATM   11  S   UNL     1      -7.887   6.584  67.592  1.00  0.00    -0.111 SA 
BRANCH  11  12
HETATM   12  C   UNL     1      -9.022   6.372  68.986  1.00  0.00    -0.128 A  
HETATM   13 CL   UNL     1     -11.520   6.265  67.686  1.00  0.00     0.004 Cl 
HETATM   14  C   UNL     1     -10.451   5.964  71.438  1.00  0.00    -0.291 A  
HETATM   15  C   UNL     1     -10.424   6.192  69.014  1.00  0.00    -0.248 A  
HETATM   16  C   UNL     1     -11.113   5.967  70.226  1.00  0.00    -0.415 A  
HETATM   17  C   UNL     1      -9.091   6.203  71.459  1.00  0.00    -0.145 A  
HETATM   18  C   UNL     1      -8.386   6.409  70.262  1.00  0.00    -0.126 A  
HETATM   19 CL   UNL     1      -6.685   6.734  70.490  1.00  0.00    -0.052 Cl 
ENDBRANCH  11  12
ENDBRANCH  10  11
BRANCH  10  20
HETATM   20  C   UNL     1      -6.619   8.519  65.978  1.00  0.00    -0.054 C  
BRANCH  20  21
HETATM   21  N   UNL     1      -6.360   7.336  65.169  1.00  0.00    -0.037 NA 
HETATM   22  C   UNL     1      -5.183   6.639  65.122  1.00  0.00    -0.025 A  
HETATM   23  N   UNL     1      -5.257   5.630  64.286  1.00  0.00    -0.010 NA 
HETATM   24  C   UNL     1      -7.202   6.782  64.247  1.00  0.00    -0.070 A  
HETATM   25  C   UNL     1      -6.512   5.707  63.737  1.00  0.00    -0.032 A  
ENDBRANCH  20  21
ENDBRANCH  10  20
ENDBRANCH   9  10
ENDBRANCH   8   9
ENDBRANCH   5   8
TORSDOF 7
ENDMDL
MODEL      383
REMARK 921   NORMALIZED FREE ENERGY PREDICTED BY IDOCK:   -3.45 KCAL/MOL
REMARK 922        TOTAL FREE ENERGY PREDICTED BY IDOCK:   -5.74 KCAL/MOL
REMARK 923 INTER-LIGAND FREE ENERGY PREDICTED BY IDOCK:   -4.96 KCAL/MOL
REMARK 924 INTRA-LIGAND FREE ENERGY PREDICTED BY IDOCK:   -0.79 KCAL/MOL
REMARK 927      BINDING AFFINITY PREDICTED BY RF-SCORE:    0.00 PKD
ROOT
HETATM    1 CL   UNL     1      -5.161  13.418  72.911  1.00  0.00    -0.107 Cl 
HETATM    2  C   UNL     1      -5.494  12.861  71.317  1.00  0.00    -0.115 A  
HETATM    3  C   UNL     1      -5.904  13.766  70.343  1.00  0.00    -0.162 A  
HETATM    4  C   UNL     1      -6.213  13.306  69.061  1.00  0.00    -0.093 A  
HETATM    5  C   UNL     1      -6.110  11.943  68.738  1.00  0.00    -0.055 A  
HETATM    6  C   UNL     1      -5.676  11.049  69.725  1.00  0.00    -0.062 A  
HETATM    7  C   UNL     1      -5.371  11.508  71.011  1.00  0.00    -0.096 A  
ENDROOT
BRANCH   5   8
HETATM    8  C   UNL     1      -6.537  11.444  67.374  1.00  0.00    -0.090 C  
BRANCH   8   9
HETATM    9  C   UNL     1      -8.056  11.381  67.199  1.00  0.00    -0.155 C  
BRANCH   9  10
HETATM   10  C   UNL     1      -8.603  10.000  66.779  1.00  0.00    -0.125 C  
BRANCH  10  11
HETATM   11  S   UNL     1     -10.437  10.058  66.619  1.00  0.00    -0.134 SA 
BRANCH  11  12
HETATM   12  C   UNL     1     -11.023  11.443  65.612  1.00  0.00    -0.190 A  
HETATM   13 CL   UNL     1      -9.945  10.819  63.085  1.00  0.00    -0.372 Cl 
HETATM   14  C   UNL     1     -12.212  13.738  64.371  1.00  0.00    -0.440 A  
HETATM   15  C   UNL     1     -10.879  11.706  64.231  1.00  0.00    -0.359 A  
HETATM   16  C   UNL     1     -11.489  12.827  63.627  1.00  0.00    -0.544 A  
HETATM   17  C   UNL     1     -12.320  13.554  65.735  1.00  0.00    -0.516 A  
HETATM   18  C   UNL     1     -11.736  12.435  66.350  1.00  0.00    -0.391 A  
HETATM   19 CL   UNL     1     -11.944  12.391  68.084  1.00  0.00    -0.361 Cl 
ENDBRANCH  11  12
ENDBRANCH  10  11
BRANCH  10  20
HETATM   20  C   UNL     1      -8.111   8.713  67.480  1.00  0.00    -0.106 C  
BRANCH  20  21
HETATM   21  N   UNL     1      -7.989   7.552  66.607  1.00  0.00    -0.108 NA 
HETATM   22  C   UNL     1      -7.250   6.430  66.866  1.00  0.00    -0.074 A  
HETATM   23  N   UNL     1      -7.329   5.568  65.880  1.00  0.00    -0.076 NA 
HETATM   24  C   UNL     1      -8.501   7.426  65.347  1.00  0.00    -0.092 A  
HETATM   25  C   UNL     1      -8.109   6.175  64.929  1.00  0.00    -0.132 A  
ENDBRANCH  20  21
ENDBRANCH  10  20
ENDBRANCH   9  10
ENDBRANCH   8   9
ENDBRANCH   5   8
TORSDOF 7
ENDMDL
MODEL      384
REMARK 921   NORMALIZED FREE ENERGY PREDICTED BY IDOCK:   -3.45 KCAL/MOL
REMARK 922        TOTAL FREE ENERGY PREDICTED BY IDOCK:   -5.74 KCAL/MOL
REMARK 923 INTER-LIGAND FREE ENERGY PREDICTED BY IDOCK:   -4.76 KCAL/MOL
REMARK 924 INTRA-LIGAND FREE ENERGY PREDICTED BY IDOCK:   -0.99 KCAL/MOL
REMARK 927      BINDING AFFINITY PREDICTED BY RF-SCORE:    0.00 PKD
ROOT
HETATM    1 CL   UNL     1     -12.347  14.176  69.757  1.00  0.00    -0.384 Cl 
HETATM    2  C   UNL     1     -11.877  12.531  69.574  1.00  0.00    -0.310 A  
HETATM    3  C   UNL     1     -11.123  12.149  68.469  1.00  0.00    -0.295 A  
HETATM    4  C   UNL     1     -10.776  10.807  68.301  1.00  0.00    -0.253 A  
HETATM    5  C   UNL     1     -11.172   9.836  69.236  1.00  0.00    -0.128 A  
HETATM    6  C   UNL     1     -11.913  10.241  70.353  1.00  0.00    -0.391 A  
HETATM    7  C   UNL     1     -12.265  11.585  70.520  1.00  0.00    -0.469 A  
ENDROOT
BRANCH   5   8
HETATM    8  C   UNL     1     -10.871   8.372  68.995  1.00  0.00    -0.015 C  
BRANCH   8   9
HETATM    9  C   UNL     1     -10.151   7.699  70.166  1.00  0.00    -0.199 C  
BRANCH   9  10
HETATM   10  C   UNL     1      -8.658   8.067  70.305  1.00  0.00    -0.132 C  
BRANCH  10  11
HETATM   11  S   UNL     1      -7.604   6.790  69.497  1.00  0.00    -0.101 SA 
BRANCH  11  12
HETATM   12  C   UNL     1      -8.321   6.134  67.970  1.00  0.00    -0.117 A  
HETATM   13 CL   UNL     1      -7.582   8.102  66.093  1.00  0.00    -0.087 Cl 
HETATM   14  C   UNL     1      -9.525   4.719  65.786  1.00  0.00    -0.173 A  
HETATM   15  C   UNL     1      -8.261   6.616  66.642  1.00  0.00    -0.112 A  
HETATM   16  C   UNL     1      -8.838   5.897  65.572  1.00  0.00    -0.100 A  
HETATM   17  C   UNL     1      -9.663   4.250  67.078  1.00  0.00    -0.237 A  
HETATM   18  C   UNL     1      -9.080   4.941  68.152  1.00  0.00    -0.114 A  
HETATM   19 CL   UNL     1      -9.394   4.219  69.712  1.00  0.00    -0.212 Cl 
ENDBRANCH  11  12
ENDBRANCH  10  11
BRANCH  10  20
HETATM   20  C   UNL     1      -8.086   8.533  71.664  1.00  0.00    -0.150 C  
BRANCH  20  21
HETATM   21  N   UNL     1      -8.331   7.620  72.773  1.00  0.00    -0.117 NA 
HETATM   22  C   UNL     1      -7.729   6.406  72.960  1.00  0.00    -0.098 A  
HETATM   23  N   UNL     1      -8.172   5.813  74.043  1.00  0.00    -0.109 NA 
HETATM   24  C   UNL     1      -9.270   7.769  73.754  1.00  0.00    -0.256 A  
HETATM   25  C   UNL     1      -9.130   6.654  74.549  1.00  0.00    -0.198 A  
ENDBRANCH  20  21
ENDBRANCH  10  20
ENDBRANCH   9  10
ENDBRANCH   8   9
ENDBRANCH   5   8
TORSDOF 7
ENDMDL
MODEL      385
REMARK 921   NORMALIZED FREE ENERGY PREDICTED BY IDOCK:   -3.41 KCAL/MOL
REMARK 922        TOTAL FREE ENERGY PREDICTED BY IDOCK:   -5.69 KCAL/MOL
REMARK 923 INTER-LIGAND FREE ENERGY PREDICTED BY IDOCK:   -4.43 KCAL/MOL
REMARK 924 INTRA-LIGAND FREE ENERGY PREDICTED BY IDOCK:   -1.26 KCAL/MOL
REMARK 927      BINDING AFFINITY PREDICTED BY RF-SCORE:    0.00 PKD
ROOT
HETATM    1 CL   UNL     1      -6.243   6.681  64.100  1.00  0.00    -0.034 Cl 
HETATM    2  C   UNL     1      -7.187   6.338  65.498  1.00  0.00    -0.070 A  
HETATM    3  C   UNL     1      -6.558   6.150  66.725  1.00  0.00    -0.059 A  
HETATM    4  C   UNL     1      -7.322   5.832  67.850  1.00  0.00    -0.077 A  
HETATM    5  C   UNL     1      -8.718   5.705  67.762  1.00  0.00    -0.107 A  
HETATM    6  C   UNL     1      -9.336   5.917  66.524  1.00  0.00    -0.166 A  
HETATM    7  C   UNL     1      -8.571   6.231  65.395  1.00  0.00    -0.097 A  
ENDROOT
BRANCH   5   8
HETATM    8  C   UNL     1      -9.525   5.268  68.967  1.00  0.00    -0.182 C  
BRANCH   8   9
HETATM    9  C   UNL     1      -8.804   5.498  70.296  1.00  0.00    -0.140 C  
BRANCH   9  10
HETATM   10  C   UNL     1      -9.540   6.434  71.279  1.00  0.00    -0.170 C  
BRANCH  10  11
HETATM   11  S   UNL     1     -11.188   6.905  70.604  1.00  0.00    -0.320 SA 
BRANCH  11  12
HETATM   12  C   UNL     1     -11.346   8.678  70.276  1.00  0.00    -0.136 A  
HETATM   13 CL   UNL     1      -9.389   9.074  68.288  1.00  0.00    -0.142 Cl 
HETATM   14  C   UNL     1     -11.971  11.463  70.004  1.00  0.00    -0.442 A  
HETATM   15  C   UNL     1     -10.687   9.504  69.337  1.00  0.00    -0.225 A  
HETATM   16  C   UNL     1     -11.021  10.869  69.196  1.00  0.00    -0.290 A  
HETATM   17  C   UNL     1     -12.589  10.705  70.979  1.00  0.00    -0.516 A  
HETATM   18  C   UNL     1     -12.284   9.342  71.121  1.00  0.00    -0.323 A  
HETATM   19 CL   UNL     1     -13.135   8.559  72.429  1.00  0.00    -0.362 Cl 
ENDBRANCH  11  12
ENDBRANCH  10  11
BRANCH  10  20
HETATM   20  C   UNL     1      -8.804   7.627  71.930  1.00  0.00    -0.116 C  
BRANCH  20  21
HETATM   21  N   UNL     1      -7.836   7.261  72.955  1.00  0.00    -0.095 NA 
HETATM   22  C   UNL     1      -7.865   6.121  73.713  1.00  0.00    -0.097 A  
HETATM   23  N   UNL     1      -6.865   6.086  74.562  1.00  0.00    -0.076 NA 
HETATM   24  C   UNL     1      -6.802   8.030  73.408  1.00  0.00    -0.101 A  
HETATM   25  C   UNL     1      -6.193   7.268  74.379  1.00  0.00    -0.082 A  
ENDBRANCH  20  21
ENDBRANCH  10  20
ENDBRANCH   9  10
ENDBRANCH   8   9
ENDBRANCH   5   8
TORSDOF 7
ENDMDL
MODEL      386
REMARK 921   NORMALIZED FREE ENERGY PREDICTED BY IDOCK:   -3.40 KCAL/MOL
REMARK 922        TOTAL FREE ENERGY PREDICTED BY IDOCK:   -5.67 KCAL/MOL
REMARK 923 INTER-LIGAND FREE ENERGY PREDICTED BY IDOCK:   -5.22 KCAL/MOL
REMARK 924 INTRA-LIGAND FREE ENERGY PREDICTED BY IDOCK:   -0.46 KCAL/MOL
REMARK 927      BINDING AFFINITY PREDICTED BY RF-SCORE:    0.00 PKD
ROOT
HETATM    1 CL   UNL     1      -6.534  16.064  68.630  1.00  0.00    -0.115 Cl 
HETATM    2  C   UNL     1      -8.017  15.235  68.356  1.00  0.00    -0.131 A  
HETATM    3  C   UNL     1      -8.166  14.448  67.218  1.00  0.00    -0.223 A  
HETATM    4  C   UNL     1      -9.384  13.809  66.976  1.00  0.00    -0.250 A  
HETATM    5  C   UNL     1     -10.460  13.944  67.869  1.00  0.00    -0.242 A  
HETATM    6  C   UNL     1     -10.285  14.724  69.019  1.00  0.00    -0.237 A  
HETATM    7  C   UNL     1      -9.067  15.369  69.260  1.00  0.00    -0.260 A  
ENDROOT
BRANCH   5   8
HETATM    8  C   UNL     1     -11.803  13.324  67.549  1.00  0.00    -0.403 C  
BRANCH   8   9
HETATM    9  C   UNL     1     -11.777  11.794  67.532  1.00  0.00    -0.312 C  
BRANCH   9  10
HETATM   10  C   UNL     1     -11.222  11.141  68.816  1.00  0.00    -0.253 C  
BRANCH  10  11
HETATM   11  S   UNL     1     -11.043   9.323  68.585  1.00  0.00     0.217 SA 
BRANCH  11  12
HETATM   12  C   UNL     1      -9.621   8.627  69.463  1.00  0.00    -0.170 A  
HETATM   13 CL   UNL     1      -7.608  10.512  68.887  1.00  0.00    -0.099 Cl 
HETATM   14  C   UNL     1      -7.666   7.246  71.042  1.00  0.00    -0.089 A  
HETATM   15  C   UNL     1      -8.306   9.120  69.625  1.00  0.00    -0.130 A  
HETATM   16  C   UNL     1      -7.360   8.443  70.425  1.00  0.00    -0.056 A  
HETATM   17  C   UNL     1      -8.919   6.697  70.853  1.00  0.00    -0.147 A  
HETATM   18  C   UNL     1      -9.880   7.365  70.077  1.00  0.00    -0.179 A  
HETATM   19 CL   UNL     1     -11.389   6.501  69.920  1.00  0.00    -0.450 Cl 
ENDBRANCH  11  12
ENDBRANCH  10  11
BRANCH  10  20
HETATM   20  C   UNL     1     -11.804  11.508  70.200  1.00  0.00    -0.356 C  
BRANCH  20  21
HETATM   21  N   UNL     1     -12.295  10.375  70.974  1.00  0.00    -0.351 NA 
HETATM   22  C   UNL     1     -11.572   9.653  71.884  1.00  0.00    -0.097 A  
HETATM   23  N   UNL     1     -12.288   8.685  72.404  1.00  0.00    -0.380 NA 
HETATM   24  C   UNL     1     -13.517   9.777  70.852  1.00  0.00    -0.109 A  
HETATM   25  C   UNL     1     -13.503   8.754  71.772  1.00  0.00    -0.393 A  
ENDBRANCH  20  21
ENDBRANCH  10  20
ENDBRANCH   9  10
ENDBRANCH   8   9
ENDBRANCH   5   8
TORSDOF 7
ENDMDL
MODEL      387
REMARK 921   NORMALIZED FREE ENERGY PREDICTED BY IDOCK:   -3.29 KCAL/MOL
REMARK 922        TOTAL FREE ENERGY PREDICTED BY IDOCK:   -5.51 KCAL/MOL
REMARK 923 INTER-LIGAND FREE ENERGY PREDICTED BY IDOCK:   -5.20 KCAL/MOL
REMARK 924 INTRA-LIGAND FREE ENERGY PREDICTED BY IDOCK:   -0.31 KCAL/MOL
REMARK 927      BINDING AFFINITY PREDICTED BY RF-SCORE:    0.00 PKD
ROOT
HETATM    1 CL   UNL     1      -8.152  17.263  67.088  1.00  0.00    -0.215 Cl 
HETATM    2  C   UNL     1      -9.099  15.895  67.528  1.00  0.00    -0.199 A  
HETATM    3  C   UNL     1      -9.392  14.925  66.574  1.00  0.00    -0.308 A  
HETATM    4  C   UNL     1     -10.194  13.836  66.921  1.00  0.00    -0.261 A  
HETATM    5  C   UNL     1     -10.704  13.701  68.223  1.00  0.00    -0.266 A  
HETATM    6  C   UNL     1     -10.381  14.675  69.176  1.00  0.00    -0.222 A  
HETATM    7  C   UNL     1      -9.582  15.770  68.827  1.00  0.00    -0.216 A  
ENDROOT
BRANCH   5   8
HETATM    8  C   UNL     1     -11.647  12.567  68.563  1.00  0.00    -0.364 C  
BRANCH   8   9
HETATM    9  C   UNL     1     -11.397  11.302  67.740  1.00  0.00    -0.354 C  
BRANCH   9  10
HETATM   10  C   UNL     1     -10.374  10.321  68.354  1.00  0.00    -0.177 C  
BRANCH  10  11
HETATM   11  S   UNL     1     -10.410   8.712  67.459  1.00  0.00    -0.272 SA 
BRANCH  11  12
HETATM   12  C   UNL     1      -8.993   8.474  66.358  1.00  0.00    -0.165 A  
HETATM   13 CL   UNL     1      -7.389   6.707  67.855  1.00  0.00    -0.094 Cl 
HETATM   14  C   UNL     1      -6.998   8.307  64.306  1.00  0.00    -0.073 A  
HETATM   15  C   UNL     1      -7.851   7.652  66.490  1.00  0.00    -0.105 A  
HETATM   16  C   UNL     1      -6.888   7.560  65.462  1.00  0.00    -0.052 A  
HETATM   17  C   UNL     1      -8.065   9.174  64.168  1.00  0.00    -0.149 A  
HETATM   18  C   UNL     1      -9.043   9.264  65.171  1.00  0.00    -0.206 A  
HETATM   19 CL   UNL     1     -10.292  10.438  64.839  1.00  0.00    -0.333 Cl 
ENDBRANCH  11  12
ENDBRANCH  10  11
BRANCH  10  20
HETATM   20  C   UNL     1     -10.277  10.144  69.887  1.00  0.00    -0.237 C  
BRANCH  20  21
HETATM   21  N   UNL     1     -10.093   8.768  70.331  1.00  0.00    -0.186 NA 
HETATM   22  C   UNL     1      -8.909   8.204  70.721  1.00  0.00    -0.141 A  
HETATM   23  N   UNL     1      -9.064   6.944  71.049  1.00  0.00    -0.155 NA 
HETATM   24  C   UNL     1     -11.039   7.783  70.336  1.00  0.00    -0.251 A  
HETATM   25  C   UNL     1     -10.388   6.670  70.817  1.00  0.00    -0.202 A  
ENDBRANCH  20  21
ENDBRANCH  10  20
ENDBRANCH   9  10
ENDBRANCH   8   9
ENDBRANCH   5   8
TORSDOF 7
ENDMDL
MODEL      388
REMARK 921   NORMALIZED FREE ENERGY PREDICTED BY IDOCK:   -3.22 KCAL/MOL
REMARK 922        TOTAL FREE ENERGY PREDICTED BY IDOCK:   -5.42 KCAL/MOL
REMARK 923 INTER-LIGAND FREE ENERGY PREDICTED BY IDOCK:   -4.26 KCAL/MOL
REMARK 924 INTRA-LIGAND FREE ENERGY PREDICTED BY IDOCK:   -1.16 KCAL/MOL
REMARK 927      BINDING AFFINITY PREDICTED BY RF-SCORE:    0.00 PKD
ROOT
HETATM    1 CL   UNL     1      -5.765  14.442  67.949  1.00  0.00    -0.136 Cl 
HETATM    2  C   UNL     1      -7.028  13.332  67.582  1.00  0.00    -0.160 A  
HETATM    3  C   UNL     1      -8.353  13.702  67.794  1.00  0.00    -0.181 A  
HETATM    4  C   UNL     1      -9.374  12.785  67.534  1.00  0.00    -0.189 A  
HETATM    5  C   UNL     1      -9.084  11.497  67.054  1.00  0.00    -0.175 A  
HETATM    6  C   UNL     1      -7.746  11.150  66.827  1.00  0.00    -0.153 A  
HETATM    7  C   UNL     1      -6.722  12.065  67.093  1.00  0.00    -0.136 A  
ENDROOT
BRANCH   5   8
HETATM    8  C   UNL     1     -10.191  10.482  66.866  1.00  0.00    -0.280 C  
BRANCH   8   9
HETATM    9  C   UNL     1      -9.709   9.034  66.960  1.00  0.00    -0.247 C  
BRANCH   9  10
HETATM   10  C   UNL     1      -9.763   8.424  68.378  1.00  0.00    -0.156 C  
BRANCH  10  11
HETATM   11  S   UNL     1      -8.067   8.292  69.084  1.00  0.00    -0.121 SA 
BRANCH  11  12
HETATM   12  C   UNL     1      -7.802   6.769  70.026  1.00  0.00    -0.111 A  
HETATM   13 CL   UNL     1      -7.618   4.845  67.976  1.00  0.00    -0.081 Cl 
HETATM   14  C   UNL     1      -7.320   4.629  71.872  1.00  0.00    -0.070 A  
HETATM   15  C   UNL     1      -7.571   5.444  69.592  1.00  0.00    -0.070 A  
HETATM   16  C   UNL     1      -7.311   4.403  70.510  1.00  0.00    -0.049 A  
HETATM   17  C   UNL     1      -7.608   5.896  72.339  1.00  0.00    -0.101 A  
HETATM   18  C   UNL     1      -7.849   6.948  71.441  1.00  0.00    -0.100 A  
HETATM   19 CL   UNL     1      -8.233   8.466  72.215  1.00  0.00    -0.210 Cl 
ENDBRANCH  11  12
ENDBRANCH  10  11
BRANCH  10  20
HETATM   20  C   UNL     1     -10.622   7.172  68.664  1.00  0.00    -0.189 C  
BRANCH  20  21
HETATM   21  N   UNL     1     -11.191   7.116  70.004  1.00  0.00    -0.261 NA 
HETATM   22  C   UNL     1     -11.554   8.193  70.766  1.00  0.00    -0.238 A  
HETATM   23  N   UNL     1     -12.020   7.819  71.934  1.00  0.00    -0.289 NA 
HETATM   24  C   UNL     1     -11.364   5.996  70.767  1.00  0.00    -0.225 A  
HETATM   25  C   UNL     1     -11.911   6.451  71.945  1.00  0.00    -0.329 A  
ENDBRANCH  20  21
ENDBRANCH  10  20
ENDBRANCH   9  10
ENDBRANCH   8   9
ENDBRANCH   5   8
TORSDOF 7
ENDMDL
MODEL      389
REMARK 921   NORMALIZED FREE ENERGY PREDICTED BY IDOCK:   -3.02 KCAL/MOL
REMARK 922        TOTAL FREE ENERGY PREDICTED BY IDOCK:   -5.14 KCAL/MOL
REMARK 923 INTER-LIGAND FREE ENERGY PREDICTED BY IDOCK:   -5.22 KCAL/MOL
REMARK 924 INTRA-LIGAND FREE ENERGY PREDICTED BY IDOCK:    0.08 KCAL/MOL
REMARK 927      BINDING AFFINITY PREDICTED BY RF-SCORE:    0.00 PKD
ROOT
HETATM    1 CL   UNL     1      -6.650  19.870  69.360  1.00  0.00    -0.379 Cl 
HETATM    2  C   UNL     1      -7.782  19.154  68.280  1.00  0.00    -0.315 A  
HETATM    3  C   UNL     1      -7.402  18.870  66.972  1.00  0.00    -0.224 A  
HETATM    4  C   UNL     1      -8.333  18.327  66.085  1.00  0.00    -0.159 A  
HETATM    5  C   UNL     1      -9.648  18.054  66.497  1.00  0.00    -0.318 A  
HETATM    6  C   UNL     1     -10.008  18.326  67.823  1.00  0.00    -0.343 A  
HETATM    7  C   UNL     1      -9.077  18.876  68.710  1.00  0.00    -0.352 A  
ENDROOT
BRANCH   5   8
HETATM    8  C   UNL     1     -10.674  17.553  65.503  1.00  0.00    -0.065 C  
BRANCH   8   9
HETATM    9  C   UNL     1     -11.596  16.473  66.074  1.00  0.00     1.049 C  
BRANCH   9  10
HETATM   10  C   UNL     1     -10.868  15.281  66.731  1.00  0.00    -0.312 C  
BRANCH  10  11
HETATM   11  S   UNL     1     -11.927  13.775  66.679  1.00  0.00    -0.434 SA 
BRANCH  11  12
HETATM   12  C   UNL     1     -11.021  12.280  66.207  1.00  0.00    -0.291 A  
HETATM   13 CL   UNL     1     -10.120  11.338  68.705  1.00  0.00    -0.206 Cl 
HETATM   14  C   UNL     1      -9.772   9.971  65.054  1.00  0.00    -0.386 A  
HETATM   15  C   UNL     1     -10.371  11.307  67.000  1.00  0.00    -0.227 A  
HETATM   16  C   UNL     1      -9.780  10.162  66.422  1.00  0.00    -0.259 A  
HETATM   17  C   UNL     1     -10.339  10.932  64.240  1.00  0.00    -0.436 A  
HETATM   18  C   UNL     1     -10.947  12.068  64.798  1.00  0.00    -0.311 A  
HETATM   19 CL   UNL     1     -11.573  13.189  63.614  1.00  0.00    -0.479 Cl 
ENDBRANCH  11  12
ENDBRANCH  10  11
BRANCH  10  20
HETATM   20  C   UNL     1     -10.146  15.450  68.087  1.00  0.00    -0.222 C  
BRANCH  20  21
HETATM   21  N   UNL     1      -8.867  14.759  68.187  1.00  0.00    -0.164 NA 
HETATM   22  C   UNL     1      -8.218  14.122  67.164  1.00  0.00    -0.144 A  
HETATM   23  N   UNL     1      -7.095  13.582  67.573  1.00  0.00    -0.166 NA 
HETATM   24  C   UNL     1      -8.150  14.539  69.329  1.00  0.00     0.029 A  
HETATM   25  C   UNL     1      -7.039  13.838  68.919  1.00  0.00    -0.107 A  
ENDBRANCH  20  21
ENDBRANCH  10  20
ENDBRANCH   9  10
ENDBRANCH   8   9
ENDBRANCH   5   8
TORSDOF 7
ENDMDL
MODEL      390
REMARK 921   NORMALIZED FREE ENERGY PREDICTED BY IDOCK:   -3.02 KCAL/MOL
REMARK 922        TOTAL FREE ENERGY PREDICTED BY IDOCK:   -5.14 KCAL/MOL
REMARK 923 INTER-LIGAND FREE ENERGY PREDICTED BY IDOCK:   -4.07 KCAL/MOL
REMARK 924 INTRA-LIGAND FREE ENERGY PREDICTED BY IDOCK:   -1.07 KCAL/MOL
REMARK 927      BINDING AFFINITY PREDICTED BY RF-SCORE:    0.00 PKD
ROOT
HETATM    1 CL   UNL     1      -6.091   7.028  62.521  1.00  0.00    -0.044 Cl 
HETATM    2  C   UNL     1      -6.406   8.295  63.642  1.00  0.00    -0.072 A  
HETATM    3  C   UNL     1      -5.452   8.619  64.602  1.00  0.00    -0.047 A  
HETATM    4  C   UNL     1      -5.726   9.619  65.536  1.00  0.00    -0.059 A  
HETATM    5  C   UNL     1      -6.949  10.310  65.517  1.00  0.00    -0.138 A  
HETATM    6  C   UNL     1      -7.889   9.985  64.531  1.00  0.00    -0.145 A  
HETATM    7  C   UNL     1      -7.618   8.979  63.598  1.00  0.00    -0.115 A  
ENDROOT
BRANCH   5   8
HETATM    8  C   UNL     1      -7.272  11.326  66.592  1.00  0.00    -0.126 C  
BRANCH   8   9
HETATM    9  C   UNL     1      -8.682  11.908  66.473  1.00  0.00    -0.158 C  
BRANCH   9  10
HETATM   10  C   UNL     1      -9.648  11.504  67.608  1.00  0.00    -0.171 C  
BRANCH  10  11
HETATM   11  S   UNL     1     -10.335  13.001  68.430  1.00  0.00    -0.241 SA 
BRANCH  11  12
HETATM   12  C   UNL     1      -9.195  14.408  68.423  1.00  0.00    -0.195 A  
HETATM   13 CL   UNL     1      -6.801  13.216  69.310  1.00  0.00    -0.069 Cl 
HETATM   14  C   UNL     1      -7.716  16.852  68.189  1.00  0.00    -0.187 A  
HETATM   15  C   UNL     1      -7.813  14.476  68.709  1.00  0.00    -0.145 A  
HETATM   16  C   UNL     1      -7.090  15.681  68.567  1.00  0.00    -0.116 A  
HETATM   17  C   UNL     1      -9.078  16.842  67.965  1.00  0.00    -0.234 A  
HETATM   18  C   UNL     1      -9.810  15.649  68.083  1.00  0.00    -0.212 A  
HETATM   19 CL   UNL     1     -11.523  15.839  67.800  1.00  0.00    -0.241 Cl 
ENDBRANCH  11  12
ENDBRANCH  10  11
BRANCH  10  20
HETATM   20  C   UNL     1      -9.256  10.401  68.618  1.00  0.00    -0.164 C  
BRANCH  20  21
HETATM   21  N   UNL     1      -9.815   9.086  68.331  1.00  0.00    -0.161 NA 
HETATM   22  C   UNL     1     -10.280   8.660  67.117  1.00  0.00    -0.283 A  
HETATM   23  N   UNL     1     -10.736   7.432  67.183  1.00  0.00    -0.340 NA 
HETATM   24  C   UNL     1     -10.065   8.095  69.238  1.00  0.00    -0.202 A  
HETATM   25  C   UNL     1     -10.604   7.067  68.499  1.00  0.00    -0.202 A  
ENDBRANCH  20  21
ENDBRANCH  10  20
ENDBRANCH   9  10
ENDBRANCH   8   9
ENDBRANCH   5   8
TORSDOF 7
ENDMDL
MODEL      391
REMARK 921   NORMALIZED FREE ENERGY PREDICTED BY IDOCK:   -3.00 KCAL/MOL
REMARK 922        TOTAL FREE ENERGY PREDICTED BY IDOCK:   -5.10 KCAL/MOL
REMARK 923 INTER-LIGAND FREE ENERGY PREDICTED BY IDOCK:   -3.68 KCAL/MOL
REMARK 924 INTRA-LIGAND FREE ENERGY PREDICTED BY IDOCK:   -1.42 KCAL/MOL
REMARK 927      BINDING AFFINITY PREDICTED BY RF-SCORE:    0.00 PKD
ROOT
HETATM    1 CL   UNL     1     -13.086  10.705  70.315  1.00  0.00    -0.170 Cl 
HETATM    2  C   UNL     1     -11.487  10.292  69.829  1.00  0.00    -0.256 A  
HETATM    3  C   UNL     1     -10.906   9.118  70.299  1.00  0.00    -0.282 A  
HETATM    4  C   UNL     1      -9.595   8.805  69.937  1.00  0.00    -0.182 A  
HETATM    5  C   UNL     1      -8.855   9.654  69.097  1.00  0.00    -0.157 A  
HETATM    6  C   UNL     1      -9.463  10.821  68.617  1.00  0.00    -0.188 A  
HETATM    7  C   UNL     1     -10.775  11.138  68.984  1.00  0.00    -0.265 A  
ENDROOT
BRANCH   5   8
HETATM    8  C   UNL     1      -7.404   9.351  68.787  1.00  0.00    -0.074 C  
BRANCH   8   9
HETATM    9  C   UNL     1      -6.675   8.640  69.928  1.00  0.00    -0.042 C  
BRANCH   9  10
HETATM   10  C   UNL     1      -6.604   7.104  69.794  1.00  0.00    -0.044 C  
BRANCH  10  11
HETATM   11  S   UNL     1      -6.710   6.309  71.452  1.00  0.00    -0.056 SA 
BRANCH  11  12
HETATM   12  C   UNL     1      -8.353   6.437  72.202  1.00  0.00    -0.108 A  
HETATM   13 CL   UNL     1      -7.905   8.311  74.258  1.00  0.00    -0.289 Cl 
HETATM   14  C   UNL     1     -11.097   6.407  73.033  1.00  0.00    -0.231 A  
HETATM   15  C   UNL     1      -8.825   7.256  73.253  1.00  0.00    -0.146 A  
HETATM   16  C   UNL     1     -10.184   7.250  73.636  1.00  0.00    -0.393 A  
HETATM   17  C   UNL     1     -10.660   5.542  72.049  1.00  0.00    -0.284 A  
HETATM   18  C   UNL     1      -9.317   5.548  71.640  1.00  0.00    -0.146 A  
HETATM   19 CL   UNL     1      -8.945   4.362  70.414  1.00  0.00    -0.134 Cl 
ENDBRANCH  11  12
ENDBRANCH  10  11
BRANCH  10  20
HETATM   20  C   UNL     1      -5.542   6.442  68.888  1.00  0.00    -0.016 C  
BRANCH  20  21
HETATM   21  N   UNL     1      -6.042   5.355  68.056  1.00  0.00    -0.025 NA 
HETATM   22  C   UNL     1      -6.736   5.496  66.885  1.00  0.00    -0.062 A  
HETATM   23  N   UNL     1      -7.063   4.331  66.379  1.00  0.00    -0.066 NA 
HETATM   24  C   UNL     1      -5.997   4.021  68.349  1.00  0.00    -0.027 A  
HETATM   25  C   UNL     1      -6.604   3.403  67.280  1.00  0.00    -0.038 A  
ENDBRANCH  20  21
ENDBRANCH  10  20
ENDBRANCH   9  10
ENDBRANCH   8   9
ENDBRANCH   5   8
TORSDOF 7
ENDMDL
MODEL      392
REMARK 921   NORMALIZED FREE ENERGY PREDICTED BY IDOCK:   -2.91 KCAL/MOL
REMARK 922        TOTAL FREE ENERGY PREDICTED BY IDOCK:   -4.98 KCAL/MOL
REMARK 923 INTER-LIGAND FREE ENERGY PREDICTED BY IDOCK:   -4.30 KCAL/MOL
REMARK 924 INTRA-LIGAND FREE ENERGY PREDICTED BY IDOCK:   -0.68 KCAL/MOL
REMARK 927      BINDING AFFINITY PREDICTED BY RF-SCORE:    0.00 PKD
ROOT
HETATM    1 CL   UNL     1     -10.402  14.596  67.988  1.00  0.00    -0.232 Cl 
HETATM    2  C   UNL     1     -10.421  12.915  67.625  1.00  0.00    -0.224 A  
HETATM    3  C   UNL     1     -11.181  12.050  68.406  1.00  0.00    -0.313 A  
HETATM    4  C   UNL     1     -11.163  10.680  68.135  1.00  0.00    -0.366 A  
HETATM    5  C   UNL     1     -10.394  10.162  67.080  1.00  0.00    -0.295 A  
HETATM    6  C   UNL     1      -9.651  11.049  66.291  1.00  0.00    -0.231 A  
HETATM    7  C   UNL     1      -9.664  12.421  66.565  1.00  0.00    -0.245 A  
ENDROOT
BRANCH   5   8
HETATM    8  C   UNL     1     -10.309   8.667  66.855  1.00  0.00    -0.355 C  
BRANCH   8   9
HETATM    9  C   UNL     1      -8.938   8.206  66.356  1.00  0.00    -0.207 C  
BRANCH   9  10
HETATM   10  C   UNL     1      -8.542   6.776  66.783  1.00  0.00    -0.119 C  
BRANCH  10  11
HETATM   11  S   UNL     1      -7.808   6.790  68.473  1.00  0.00    -0.119 SA 
BRANCH  11  12
HETATM   12  C   UNL     1      -8.918   7.476  69.728  1.00  0.00    -0.141 A  
HETATM   13 CL   UNL     1     -10.818   5.414  70.008  1.00  0.00    -0.308 Cl 
HETATM   14  C   UNL     1     -10.361   8.877  71.771  1.00  0.00    -0.426 A  
HETATM   15  C   UNL     1     -10.051   6.916  70.362  1.00  0.00    -0.187 A  
HETATM   16  C   UNL     1     -10.738   7.607  71.384  1.00  0.00    -0.247 A  
HETATM   17  C   UNL     1      -9.300   9.486  71.129  1.00  0.00     0.022 A  
HETATM   18  C   UNL     1      -8.593   8.807  70.124  1.00  0.00    -0.146 A  
HETATM   19 CL   UNL     1      -7.311   9.749  69.402  1.00  0.00    -0.079 Cl 
ENDBRANCH  11  12
ENDBRANCH  10  11
BRANCH  10  20
HETATM   20  C   UNL     1      -7.773   5.850  65.813  1.00  0.00    -0.096 C  
BRANCH  20  21
HETATM   21  N   UNL     1      -7.677   6.345  64.446  1.00  0.00    -0.102 NA 
HETATM   22  C   UNL     1      -6.669   6.068  63.563  1.00  0.00    -0.037 A  
HETATM   23  N   UNL     1      -6.857   6.675  62.415  1.00  0.00    -0.045 NA 
HETATM   24  C   UNL     1      -8.511   7.246  63.848  1.00  0.00     0.325 A  
HETATM   25  C   UNL     1      -8.005   7.409  62.579  1.00  0.00    -0.130 A  
ENDBRANCH  20  21
ENDBRANCH  10  20
ENDBRANCH   9  10
ENDBRANCH   8   9
ENDBRANCH   5   8
TORSDOF 7
ENDMDL
MODEL      393
REMARK 921   NORMALIZED FREE ENERGY PREDICTED BY IDOCK:   -2.83 KCAL/MOL
REMARK 922        TOTAL FREE ENERGY PREDICTED BY IDOCK:   -4.87 KCAL/MOL
REMARK 923 INTER-LIGAND FREE ENERGY PREDICTED BY IDOCK:   -5.54 KCAL/MOL
REMARK 924 INTRA-LIGAND FREE ENERGY PREDICTED BY IDOCK:    0.67 KCAL/MOL
REMARK 927      BINDING AFFINITY PREDICTED BY RF-SCORE:    0.00 PKD
ROOT
HETATM    1 CL   UNL     1      -7.569   4.925  66.746  1.00  0.00    -0.087 Cl 
HETATM    2  C   UNL     1      -8.439   6.365  67.109  1.00  0.00    -0.112 A  
HETATM    3  C   UNL     1      -8.449   6.854  68.412  1.00  0.00    -0.123 A  
HETATM    4  C   UNL     1      -9.189   7.999  68.713  1.00  0.00    -0.143 A  
HETATM    5  C   UNL     1      -9.918   8.671  67.717  1.00  0.00    -0.240 A  
HETATM    6  C   UNL     1      -9.880   8.176  66.408  1.00  0.00    -0.261 A  
HETATM    7  C   UNL     1      -9.143   7.025  66.106  1.00  0.00    -0.149 A  
ENDROOT
BRANCH   5   8
HETATM    8  C   UNL     1     -10.790   9.855  68.074  1.00  0.00    -0.294 C  
BRANCH   8   9
HETATM    9  C   UNL     1      -9.999  11.058  68.591  1.00  0.00    -0.205 C  
BRANCH   9  10
HETATM   10  C   UNL     1      -9.014  11.672  67.572  1.00  0.00    -0.165 C  
BRANCH  10  11
HETATM   11  S   UNL     1      -9.783  11.746  65.900  1.00  0.00    -0.239 SA 
BRANCH  11  12
HETATM   12  C   UNL     1     -10.312  13.412  65.429  1.00  0.00    -0.312 A  
HETATM   13 CL   UNL     1     -12.160  12.872  63.372  1.00  0.00    -0.632 Cl 
HETATM   14  C   UNL     1     -10.933  16.186  65.055  1.00  0.00    -0.357 A  
HETATM   15  C   UNL     1     -11.275  13.842  64.489  1.00  0.00    -0.365 A  
HETATM   16  C   UNL     1     -11.590  15.210  64.331  1.00  0.00    -0.275 A  
HETATM   17  C   UNL     1      -9.938  15.810  65.935  1.00  0.00    -0.380 A  
HETATM   18  C   UNL     1      -9.625  14.454  66.120  1.00  0.00    -0.283 A  
HETATM   19 CL   UNL     1      -8.316  14.176  67.242  1.00  0.00    -0.211 Cl 
ENDBRANCH  11  12
ENDBRANCH  10  11
BRANCH  10  20
HETATM   20  C   UNL     1      -7.540  11.208  67.525  1.00  0.00    -0.108 C  
BRANCH  20  21
HETATM   21  N   UNL     1      -6.786  11.448  68.749  1.00  0.00    -0.074 NA 
HETATM   22  C   UNL     1      -6.394  10.494  69.648  1.00  0.00    -0.074 A  
HETATM   23  N   UNL     1      -5.744  11.026  70.657  1.00  0.00    -0.178 NA 
HETATM   24  C   UNL     1      -6.434  12.665  69.260  1.00  0.00    -0.106 A  
HETATM   25  C   UNL     1      -5.760  12.378  70.424  1.00  0.00    -0.168 A  
ENDBRANCH  20  21
ENDBRANCH  10  20
ENDBRANCH   9  10
ENDBRANCH   8   9
ENDBRANCH   5   8
TORSDOF 7
ENDMDL
MODEL      394
REMARK 921   NORMALIZED FREE ENERGY PREDICTED BY IDOCK:   -2.81 KCAL/MOL
REMARK 922        TOTAL FREE ENERGY PREDICTED BY IDOCK:   -4.84 KCAL/MOL
REMARK 923 INTER-LIGAND FREE ENERGY PREDICTED BY IDOCK:   -3.74 KCAL/MOL
REMARK 924 INTRA-LIGAND FREE ENERGY PREDICTED BY IDOCK:   -1.10 KCAL/MOL
REMARK 927      BINDING AFFINITY PREDICTED BY RF-SCORE:    0.00 PKD
ROOT
HETATM    1 CL   UNL     1      -9.478   1.954  64.878  1.00  0.00    -0.079 Cl 
HETATM    2  C   UNL     1      -9.037   3.511  65.463  1.00  0.00    -0.147 A  
HETATM    3  C   UNL     1      -7.940   3.644  66.309  1.00  0.00    -0.089 A  
HETATM    4  C   UNL     1      -7.609   4.902  66.815  1.00  0.00    -0.088 A  
HETATM    5  C   UNL     1      -8.363   6.039  66.477  1.00  0.00    -0.113 A  
HETATM    6  C   UNL     1      -9.451   5.889  65.609  1.00  0.00     0.112 A  
HETATM    7  C   UNL     1      -9.787   4.628  65.105  1.00  0.00    -0.106 A  
ENDROOT
BRANCH   5   8
HETATM    8  C   UNL     1      -8.051   7.380  67.106  1.00  0.00    -0.114 C  
BRANCH   8   9
HETATM    9  C   UNL     1      -9.290   8.248  67.331  1.00  0.00    -0.171 C  
BRANCH   9  10
HETATM   10  C   UNL     1      -9.923   8.121  68.734  1.00  0.00    -0.189 C  
BRANCH  10  11
HETATM   11  S   UNL     1      -9.744   9.701  69.664  1.00  0.00    -0.227 SA 
BRANCH  11  12
HETATM   12  C   UNL     1      -8.606  10.868  68.877  1.00  0.00    -0.140 A  
HETATM   13 CL   UNL     1     -10.236  12.012  66.884  1.00  0.00    -0.225 Cl 
HETATM   14  C   UNL     1      -6.530  12.631  67.978  1.00  0.00    -0.093 A  
HETATM   15  C   UNL     1      -8.816  11.803  67.838  1.00  0.00    -0.165 A  
HETATM   16  C   UNL     1      -7.793  12.682  67.421  1.00  0.00    -0.175 A  
HETATM   17  C   UNL     1      -6.266  11.686  68.950  1.00  0.00    -0.057 A  
HETATM   18  C   UNL     1      -7.276  10.816  69.391  1.00  0.00    -0.132 A  
HETATM   19 CL   UNL     1      -6.745   9.667  70.594  1.00  0.00    -0.112 Cl 
ENDBRANCH  11  12
ENDBRANCH  10  11
BRANCH  10  20
HETATM   20  C   UNL     1      -9.644   6.882  69.613  1.00  0.00    -0.146 C  
BRANCH  20  21
HETATM   21  N   UNL     1     -10.584   6.689  70.711  1.00  0.00    -0.220 NA 
HETATM   22  C   UNL     1     -11.948   6.730  70.613  1.00  0.00    -0.362 A  
HETATM   23  N   UNL     1     -12.517   6.535  71.779  1.00  0.00    -0.316 NA 
HETATM   24  C   UNL     1     -10.270   6.539  72.031  1.00  0.00    -0.193 A  
HETATM   25  C   UNL     1     -11.482   6.410  72.671  1.00  0.00    -0.198 A  
ENDBRANCH  20  21
ENDBRANCH  10  20
ENDBRANCH   9  10
ENDBRANCH   8   9
ENDBRANCH   5   8
TORSDOF 7
ENDMDL
MODEL      395
REMARK 921   NORMALIZED FREE ENERGY PREDICTED BY IDOCK:   -2.76 KCAL/MOL
REMARK 922        TOTAL FREE ENERGY PREDICTED BY IDOCK:   -4.77 KCAL/MOL
REMARK 923 INTER-LIGAND FREE ENERGY PREDICTED BY IDOCK:   -3.75 KCAL/MOL
REMARK 924 INTRA-LIGAND FREE ENERGY PREDICTED BY IDOCK:   -1.02 KCAL/MOL
REMARK 927      BINDING AFFINITY PREDICTED BY RF-SCORE:    0.00 PKD
ROOT
HETATM    1 CL   UNL     1      -9.354   1.483  65.605  1.00  0.00     0.002 Cl 
HETATM    2  C   UNL     1      -8.945   3.105  66.009  1.00  0.00    -0.146 A  
HETATM    3  C   UNL     1      -7.871   3.355  66.858  1.00  0.00    -0.080 A  
HETATM    4  C   UNL     1      -7.566   4.669  67.217  1.00  0.00    -0.086 A  
HETATM    5  C   UNL     1      -8.324   5.746  66.726  1.00  0.00    -0.109 A  
HETATM    6  C   UNL     1      -9.388   5.478  65.856  1.00  0.00    -0.140 A  
HETATM    7  C   UNL     1      -9.698   4.161  65.501  1.00  0.00    -0.202 A  
ENDROOT
BRANCH   5   8
HETATM    8  C   UNL     1      -8.042   7.157  67.196  1.00  0.00    -0.114 C  
BRANCH   8   9
HETATM    9  C   UNL     1      -9.297   8.028  67.287  1.00  0.00    -0.177 C  
BRANCH   9  10
HETATM   10  C   UNL     1      -9.865   8.198  68.712  1.00  0.00    -0.176 C  
BRANCH  10  11
HETATM   11  S   UNL     1      -9.829   9.971  69.210  1.00  0.00    -0.226 SA 
BRANCH  11  12
HETATM   12  C   UNL     1      -8.368  10.853  68.608  1.00  0.00    -0.148 A  
HETATM   13 CL   UNL     1      -6.477  10.277  70.616  1.00  0.00    -0.101 Cl 
HETATM   14  C   UNL     1      -6.285  12.302  67.273  1.00  0.00    -0.152 A  
HETATM   15  C   UNL     1      -7.054  10.923  69.126  1.00  0.00    -0.109 A  
HETATM   16  C   UNL     1      -6.031  11.619  68.446  1.00  0.00    -0.049 A  
HETATM   17  C   UNL     1      -7.571  12.315  66.770  1.00  0.00     0.098 A  
HETATM   18  C   UNL     1      -8.597  11.611  67.422  1.00  0.00    -0.149 A  
HETATM   19 CL   UNL     1     -10.161  11.775  66.662  1.00  0.00    -0.225 Cl 
ENDBRANCH  11  12
ENDBRANCH  10  11
BRANCH  10  20
HETATM   20  C   UNL     1      -9.423   7.254  69.853  1.00  0.00    -0.157 C  
BRANCH  20  21
HETATM   21  N   UNL     1     -10.394   7.101  70.929  1.00  0.00    -0.201 NA 
HETATM   22  C   UNL     1     -10.340   7.717  72.150  1.00  0.00    -0.224 A  
HETATM   23  N   UNL     1     -11.351   7.365  72.908  1.00  0.00    -0.305 NA 
HETATM   24  C   UNL     1     -11.458   6.245  70.947  1.00  0.00    -0.312 A  
HETATM   25  C   UNL     1     -12.057   6.451  72.169  1.00  0.00    -0.268 A  
ENDBRANCH  20  21
ENDBRANCH  10  20
ENDBRANCH   9  10
ENDBRANCH   8   9
ENDBRANCH   5   8
TORSDOF 7
ENDMDL
MODEL      396
REMARK 921   NORMALIZED FREE ENERGY PREDICTED BY IDOCK:   -2.39 KCAL/MOL
REMARK 922        TOTAL FREE ENERGY PREDICTED BY IDOCK:   -4.25 KCAL/MOL
REMARK 923 INTER-LIGAND FREE ENERGY PREDICTED BY IDOCK:   -3.36 KCAL/MOL
REMARK 924 INTRA-LIGAND FREE ENERGY PREDICTED BY IDOCK:   -0.89 KCAL/MOL
REMARK 927      BINDING AFFINITY PREDICTED BY RF-SCORE:    0.00 PKD
ROOT
HETATM    1 CL   UNL     1      -8.390   5.607  66.183  1.00  0.00    -0.117 Cl 
HETATM    2  C   UNL     1      -8.917   7.173  66.665  1.00  0.00    -0.146 A  
HETATM    3  C   UNL     1      -8.862   7.535  68.008  1.00  0.00    -0.127 A  
HETATM    4  C   UNL     1      -9.327   8.790  68.403  1.00  0.00    -0.141 A  
HETATM    5  C   UNL     1      -9.845   9.698  67.463  1.00  0.00    -0.213 A  
HETATM    6  C   UNL     1      -9.873   9.324  66.114  1.00  0.00    -0.363 A  
HETATM    7  C   UNL     1      -9.412   8.064  65.718  1.00  0.00     0.067 A  
ENDROOT
BRANCH   5   8
HETATM    8  C   UNL     1     -10.432  11.017  67.916  1.00  0.00    -0.223 C  
BRANCH   8   9
HETATM    9  C   UNL     1      -9.428  11.911  68.645  1.00  0.00    -0.087 C  
BRANCH   9  10
HETATM   10  C   UNL     1      -8.195  12.317  67.809  1.00  0.00    -0.161 C  
BRANCH  10  11
HETATM   11  S   UNL     1      -8.698  12.753  66.092  1.00  0.00     0.523 SA 
BRANCH  11  12
HETATM   12  C   UNL     1      -9.509  14.367  65.973  1.00  0.00    -0.207 A  
HETATM   13 CL   UNL     1      -7.590  16.065  67.146  1.00  0.00    -0.223 Cl 
HETATM   14  C   UNL     1     -11.089  16.716  65.518  1.00  0.00     0.072 A  
HETATM   15  C   UNL     1      -9.052  15.656  66.330  1.00  0.00    -0.320 A  
HETATM   16  C   UNL     1      -9.830  16.808  66.079  1.00  0.00    -0.311 A  
HETATM   17  C   UNL     1     -11.598  15.468  65.216  1.00  0.00     0.000 A  
HETATM   18  C   UNL     1     -10.831  14.313  65.441  1.00  0.00    -0.342 A  
HETATM   19 CL   UNL     1     -11.655  12.827  65.036  1.00  0.00    -0.357 Cl 
ENDBRANCH  11  12
ENDBRANCH  10  11
BRANCH  10  20
HETATM   20  C   UNL     1      -6.904  11.468  67.850  1.00  0.00    -0.073 C  
BRANCH  20  21
HETATM   21  N   UNL     1      -6.367  11.237  69.185  1.00  0.00    -0.057 NA 
HETATM   22  C   UNL     1      -6.555  10.111  69.939  1.00  0.00    -0.100 A  
HETATM   23  N   UNL     1      -5.959  10.210  71.104  1.00  0.00    -0.266 NA 
HETATM   24  C   UNL     1      -5.679  12.134  69.950  1.00  0.00    -0.124 A  
HETATM   25  C   UNL     1      -5.406  11.466  71.121  1.00  0.00    -0.061 A  
ENDBRANCH  20  21
ENDBRANCH  10  20
ENDBRANCH   9  10
ENDBRANCH   8   9
ENDBRANCH   5   8
TORSDOF 7
ENDMDL
MODEL      397
REMARK 921   NORMALIZED FREE ENERGY PREDICTED BY IDOCK:   -1.44 KCAL/MOL
REMARK 922        TOTAL FREE ENERGY PREDICTED BY IDOCK:   -2.91 KCAL/MOL
REMARK 923 INTER-LIGAND FREE ENERGY PREDICTED BY IDOCK:   -2.33 KCAL/MOL
REMARK 924 INTRA-LIGAND FREE ENERGY PREDICTED BY IDOCK:   -0.58 KCAL/MOL
REMARK 927      BINDING AFFINITY PREDICTED BY RF-SCORE:    0.00 PKD
ROOT
HETATM    1 CL   UNL     1     -11.889   9.612  72.868  1.00  0.00     1.585 Cl 
HETATM    2  C   UNL     1     -11.278   9.331  71.284  1.00  0.00    -0.355 A  
HETATM    3  C   UNL     1     -10.835  10.403  70.516  1.00  0.00    -0.188 A  
HETATM    4  C   UNL     1     -10.378  10.179  69.216  1.00  0.00    -0.242 A  
HETATM    5  C   UNL     1     -10.351   8.883  68.674  1.00  0.00    -0.228 A  
HETATM    6  C   UNL     1     -10.781   7.813  69.468  1.00  0.00    -0.200 A  
HETATM    7  C   UNL     1     -11.245   8.038  70.769  1.00  0.00    -0.275 A  
ENDROOT
BRANCH   5   8
HETATM    8  C   UNL     1      -9.943   8.663  67.232  1.00  0.00    -0.282 C  
BRANCH   8   9
HETATM    9  C   UNL     1      -8.430   8.732  67.013  1.00  0.00    -0.109 C  
BRANCH   9  10
HETATM   10  C   UNL     1      -7.997   9.389  65.685  1.00  0.00    -0.103 C  
BRANCH  10  11
HETATM   11  S   UNL     1      -8.923  10.958  65.413  1.00  0.00    -0.173 SA 
BRANCH  11  12
HETATM   12  C   UNL     1      -8.664  12.177  66.726  1.00  0.00    -0.183 A  
HETATM   13 CL   UNL     1     -11.168  13.466  66.819  1.00  0.00    -0.317 Cl 
HETATM   14  C   UNL     1      -7.873  13.886  68.888  1.00  0.00    -0.022 A  
HETATM   15  C   UNL     1      -9.554  13.109  67.307  1.00  0.00    -0.233 A  
HETATM   16  C   UNL     1      -9.160  13.928  68.388  1.00  0.00    -0.184 A  
HETATM   17  C   UNL     1      -6.955  13.037  68.303  1.00  0.00    -0.101 A  
HETATM   18  C   UNL     1      -7.334  12.201  67.240  1.00  0.00    -0.149 A  
HETATM   19 CL   UNL     1      -6.030  11.228  66.605  1.00  0.00    -0.132 Cl 
ENDBRANCH  11  12
ENDBRANCH  10  11
BRANCH  10  20
HETATM   20  C   UNL     1      -7.870   8.546  64.396  1.00  0.00    -0.140 C  
BRANCH  20  21
HETATM   21  N   UNL     1      -7.344   7.202  64.595  1.00  0.00    -0.073 NA 
HETATM   22  C   UNL     1      -6.130   6.890  65.145  1.00  0.00    -0.036 A  
HETATM   23  N   UNL     1      -5.937   5.593  65.174  1.00  0.00    -0.021 NA 
HETATM   24  C   UNL     1      -7.919   6.035  64.179  1.00  0.00    -0.119 A  
HETATM   25  C   UNL     1      -7.047   5.048  64.579  1.00  0.00    -0.054 A  
ENDBRANCH  20  21
ENDBRANCH  10  20
ENDBRANCH   9  10
ENDBRANCH   8   9
ENDBRANCH   5   8
TORSDOF 7
ENDMDL
MODEL      398
REMARK 921   NORMALIZED FREE ENERGY PREDICTED BY IDOCK:   -1.37 KCAL/MOL
REMARK 922        TOTAL FREE ENERGY PREDICTED BY IDOCK:   -2.82 KCAL/MOL
REMARK 923 INTER-LIGAND FREE ENERGY PREDICTED BY IDOCK:   -1.80 KCAL/MOL
REMARK 924 INTRA-LIGAND FREE ENERGY PREDICTED BY IDOCK:   -1.02 KCAL/MOL
REMARK 927      BINDING AFFINITY PREDICTED BY RF-SCORE:    0.00 PKD
ROOT
HETATM    1 CL   UNL     1     -13.601  10.531  69.670  1.00  0.00     1.344 Cl 
HETATM    2  C   UNL     1     -11.908  10.466  69.368  1.00  0.00    -0.118 A  
HETATM    3  C   UNL     1     -11.256   9.237  69.366  1.00  0.00     0.030 A  
HETATM    4  C   UNL     1      -9.875   9.190  69.162  1.00  0.00    -0.171 A  
HETATM    5  C   UNL     1      -9.136  10.365  68.950  1.00  0.00    -0.175 A  
HETATM    6  C   UNL     1      -9.812  11.591  68.935  1.00  0.00    -0.091 A  
HETATM    7  C   UNL     1     -11.194  11.640  69.145  1.00  0.00    -0.325 A  
ENDROOT
BRANCH   5   8
HETATM    8  C   UNL     1      -7.628  10.310  68.823  1.00  0.00    -0.093 C  
BRANCH   8   9
HETATM    9  C   UNL     1      -6.972   9.331  69.799  1.00  0.00    -0.058 C  
BRANCH   9  10
HETATM   10  C   UNL     1      -6.800   7.895  69.259  1.00  0.00    -0.048 C  
BRANCH  10  11
HETATM   11  S   UNL     1      -7.027   6.668  70.614  1.00  0.00    -0.065 SA 
BRANCH  11  12
HETATM   12  C   UNL     1      -8.686   6.700  71.337  1.00  0.00    -0.129 A  
HETATM   13 CL   UNL     1     -10.218   5.460  69.323  1.00  0.00    -0.300 Cl 
HETATM   14  C   UNL     1     -11.108   6.874  72.862  1.00  0.00    -0.297 A  
HETATM   15  C   UNL     1      -9.910   6.180  70.859  1.00  0.00    -0.182 A  
HETATM   16  C   UNL     1     -11.091   6.250  71.630  1.00  0.00    -0.325 A  
HETATM   17  C   UNL     1      -9.948   7.455  73.334  1.00  0.00    -0.365 A  
HETATM   18  C   UNL     1      -8.759   7.377  72.590  1.00  0.00    -0.124 A  
HETATM   19 CL   UNL     1      -7.407   8.201  73.328  1.00  0.00    -0.162 Cl 
ENDBRANCH  11  12
ENDBRANCH  10  11
BRANCH  10  20
HETATM   20  C   UNL     1      -5.616   7.540  68.332  1.00  0.00    -0.027 C  
BRANCH  20  21
HETATM   21  N   UNL     1      -5.843   6.391  67.465  1.00  0.00    -0.013 NA 
HETATM   22  C   UNL     1      -5.636   5.080  67.801  1.00  0.00    -0.013 A  
HETATM   23  N   UNL     1      -5.916   4.279  66.801  1.00  0.00    -0.023 NA 
HETATM   24  C   UNL     1      -6.200   6.425  66.147  1.00  0.00    -0.038 A  
HETATM   25  C   UNL     1      -6.273   5.105  65.765  1.00  0.00    -0.034 A  
ENDBRANCH  20  21
ENDBRANCH  10  20
ENDBRANCH   9  10
ENDBRANCH   8   9
ENDBRANCH   5   8
TORSDOF 7
ENDMDL
MODEL      399
REMARK 921   NORMALIZED FREE ENERGY PREDICTED BY IDOCK:    7.89 KCAL/MOL
REMARK 922        TOTAL FREE ENERGY PREDICTED BY IDOCK:   10.24 KCAL/MOL
REMARK 923 INTER-LIGAND FREE ENERGY PREDICTED BY IDOCK:   10.26 KCAL/MOL
REMARK 924 INTRA-LIGAND FREE ENERGY PREDICTED BY IDOCK:   -0.03 KCAL/MOL
REMARK 927      BINDING AFFINITY PREDICTED BY RF-SCORE:    0.00 PKD
ROOT
HETATM    1 CL   UNL     1      -8.234  19.683  66.847  1.00  0.00    -0.306 Cl 
HETATM    2  C   UNL     1      -7.764  18.383  67.872  1.00  0.00    -0.251 A  
HETATM    3  C   UNL     1      -8.733  17.685  68.587  1.00  0.00    -0.266 A  
HETATM    4  C   UNL     1      -8.346  16.657  69.449  1.00  0.00     0.137 A  
HETATM    5  C   UNL     1      -6.993  16.312  69.601  1.00  0.00    -0.086 A  
HETATM    6  C   UNL     1      -6.034  17.011  68.858  1.00  0.00    -0.158 A  
HETATM    7  C   UNL     1      -6.419  18.045  67.998  1.00  0.00    -0.188 A  
ENDROOT
BRANCH   5   8
HETATM    8  C   UNL     1      -6.579  15.260  70.607  1.00  0.00     0.305 C  
BRANCH   8   9
HETATM    9  C   UNL     1      -7.689  14.258  70.930  1.00  0.00     2.532 C  
BRANCH   9  10
HETATM   10  C   UNL     1      -7.782  13.060  69.960  1.00  0.00     2.017 C  
BRANCH  10  11
HETATM   11  S   UNL     1      -6.493  13.191  68.652  1.00  0.00    -0.096 SA 
BRANCH  11  12
HETATM   12  C   UNL     1      -6.166  11.622  67.810  1.00  0.00    -0.059 A  
HETATM   13 CL   UNL     1      -6.286   9.786  69.944  1.00  0.00    -0.051 Cl 
HETATM   14  C   UNL     1      -5.702   9.371  66.096  1.00  0.00    -0.053 A  
HETATM   15  C   UNL     1      -6.144  10.298  68.304  1.00  0.00    -0.044 A  
HETATM   16  C   UNL     1      -5.938   9.196  67.446  1.00  0.00    -0.050 A  
HETATM   17  C   UNL     1      -5.650  10.653  65.587  1.00  0.00    -0.133 A  
HETATM   18  C   UNL     1      -5.871  11.760  66.421  1.00  0.00     0.179 A  
HETATM   19 CL   UNL     1      -5.726  13.300  65.609  1.00  0.00     6.583 Cl 
ENDBRANCH  11  12
ENDBRANCH  10  11
BRANCH  10  20
HETATM   20  C   UNL     1      -9.150  12.607  69.400  1.00  0.00     1.296 C  
BRANCH  20  21
HETATM   21  N   UNL     1      -9.980  13.683  68.874  1.00  0.00    -0.080 NA 
HETATM   22  C   UNL     1     -10.095  14.034  67.556  1.00  0.00    -0.237 A  
HETATM   23  N   UNL     1     -10.906  15.053  67.402  1.00  0.00    -0.298 NA 
HETATM   24  C   UNL     1     -10.699  14.585  69.604  1.00  0.00    -0.103 A  
HETATM   25  C   UNL     1     -11.292  15.404  68.670  1.00  0.00    -0.330 A  
ENDBRANCH  20  21
ENDBRANCH  10  20
ENDBRANCH   9  10
ENDBRANCH   8   9
ENDBRANCH   5   8
TORSDOF 7
ENDMDL
