MODEL        1
REMARK 921   NORMALIZED FREE ENERGY PREDICTED BY IDOCK:   -3.79 KCAL/MOL
REMARK 922        TOTAL FREE ENERGY PREDICTED BY IDOCK:   -4.36 KCAL/MOL
REMARK 923 INTER-LIGAND FREE ENERGY PREDICTED BY IDOCK:   -4.23 KCAL/MOL
REMARK 924 INTRA-LIGAND FREE ENERGY PREDICTED BY IDOCK:   -0.13 KCAL/MOL
REMARK 927      BINDING AFFINITY PREDICTED BY RF-SCORE:    0.00 PKD
ROOT
HETATM    1  C   UNL     1     -11.794  12.447  63.615  1.00  0.00    -0.610 C  
HETATM    2  C   UNL     1     -12.012  13.864  64.126  1.00  0.00    -0.428 C  
HETATM    3  H   UNL     1     -13.205  14.738  65.406  1.00  0.00     0.000 HD 
HETATM    4  O   UNL     1     -13.069  13.853  65.087  1.00  0.00    -0.773 OA 
ENDROOT
BRANCH   2   5
HETATM    5  C   UNL     1     -10.741  14.443  64.757  1.00  0.00    -0.423 C  
BRANCH   5   6
HETATM    6  C   UNL     1     -10.799  15.962  64.900  1.00  0.00    -0.400 C  
HETATM    7  O   UNL     1     -11.603  16.544  63.883  1.00  0.00    -1.598 OA 
HETATM    8  H   UNL     1     -11.639  17.489  63.971  1.00  0.00     0.000 HD 
ENDBRANCH   5   6
ENDBRANCH   2   5
TORSDOF 2
ENDMDL
MODEL        2
REMARK 921   NORMALIZED FREE ENERGY PREDICTED BY IDOCK:   -3.70 KCAL/MOL
REMARK 922        TOTAL FREE ENERGY PREDICTED BY IDOCK:   -4.26 KCAL/MOL
REMARK 923 INTER-LIGAND FREE ENERGY PREDICTED BY IDOCK:   -4.03 KCAL/MOL
REMARK 924 INTRA-LIGAND FREE ENERGY PREDICTED BY IDOCK:   -0.23 KCAL/MOL
REMARK 927      BINDING AFFINITY PREDICTED BY RF-SCORE:    0.00 PKD
ROOT
HETATM    1  C   UNL     1     -11.895  13.229  66.882  1.00  0.00    -0.446 C  
HETATM    2  C   UNL     1     -12.051  13.386  65.376  1.00  0.00    -0.421 C  
HETATM    3  H   UNL     1     -13.370  14.173  64.165  1.00  0.00     0.000 HD 
HETATM    4  O   UNL     1     -13.273  14.074  65.105  1.00  0.00    -0.768 OA 
ENDROOT
BRANCH   2   5
HETATM    5  C   UNL     1     -10.874  14.153  64.760  1.00  0.00    -0.426 C  
BRANCH   5   6
HETATM    6  C   UNL     1     -11.015  15.666  64.920  1.00  0.00    -0.431 C  
HETATM    7  O   UNL     1     -11.657  16.245  63.793  1.00  0.00    -1.539 OA 
HETATM    8  H   UNL     1     -11.745  17.186  63.893  1.00  0.00     0.000 HD 
ENDBRANCH   5   6
ENDBRANCH   2   5
TORSDOF 2
ENDMDL
MODEL        3
REMARK 921   NORMALIZED FREE ENERGY PREDICTED BY IDOCK:   -3.64 KCAL/MOL
REMARK 922        TOTAL FREE ENERGY PREDICTED BY IDOCK:   -4.19 KCAL/MOL
REMARK 923 INTER-LIGAND FREE ENERGY PREDICTED BY IDOCK:   -4.18 KCAL/MOL
REMARK 924 INTRA-LIGAND FREE ENERGY PREDICTED BY IDOCK:   -0.02 KCAL/MOL
REMARK 927      BINDING AFFINITY PREDICTED BY RF-SCORE:    0.00 PKD
ROOT
HETATM    1  C   UNL     1     -10.840  12.302  63.664  1.00  0.00    -0.522 C  
HETATM    2  C   UNL     1     -12.153  13.063  63.549  1.00  0.00    -0.542 C  
HETATM    3  H   UNL     1     -14.057  12.618  63.607  1.00  0.00     0.000 HD 
HETATM    4  O   UNL     1     -13.237  12.142  63.678  1.00  0.00    -0.770 OA 
ENDROOT
BRANCH   2   5
HETATM    5  C   UNL     1     -12.271  14.158  64.616  1.00  0.00    -0.465 C  
BRANCH   5   6
HETATM    6  C   UNL     1     -11.164  15.205  64.503  1.00  0.00    -0.272 C  
HETATM    7  O   UNL     1     -11.612  16.355  63.800  1.00  0.00    -1.605 OA 
HETATM    8  H   UNL     1     -10.924  17.005  63.729  1.00  0.00     0.000 HD 
ENDBRANCH   5   6
ENDBRANCH   2   5
TORSDOF 2
ENDMDL
MODEL        4
REMARK 921   NORMALIZED FREE ENERGY PREDICTED BY IDOCK:   -3.20 KCAL/MOL
REMARK 922        TOTAL FREE ENERGY PREDICTED BY IDOCK:   -3.70 KCAL/MOL
REMARK 923 INTER-LIGAND FREE ENERGY PREDICTED BY IDOCK:   -3.47 KCAL/MOL
REMARK 924 INTRA-LIGAND FREE ENERGY PREDICTED BY IDOCK:   -0.23 KCAL/MOL
REMARK 927      BINDING AFFINITY PREDICTED BY RF-SCORE:    0.00 PKD
ROOT
HETATM    1  C   UNL     1     -11.778  12.278  66.604  1.00  0.00    -0.417 C  
HETATM    2  C   UNL     1     -11.731  12.267  65.083  1.00  0.00    -0.361 C  
HETATM    3  H   UNL     1     -13.034  12.364  63.626  1.00  0.00     0.000 HD 
HETATM    4  O   UNL     1     -13.063  12.371  64.576  1.00  0.00    -0.823 OA 
ENDROOT
BRANCH   2   5
HETATM    5  C   UNL     1     -10.874  13.412  64.531  1.00  0.00    -0.419 C  
BRANCH   5   6
HETATM    6  C   UNL     1     -11.562  14.769  64.657  1.00  0.00    -0.399 C  
HETATM    7  O   UNL     1     -12.525  14.955  63.629  1.00  0.00    -1.055 OA 
HETATM    8  H   UNL     1     -12.953  15.800  63.707  1.00  0.00     0.000 HD 
ENDBRANCH   5   6
ENDBRANCH   2   5
TORSDOF 2
ENDMDL
MODEL        5
REMARK 921   NORMALIZED FREE ENERGY PREDICTED BY IDOCK:   -3.17 KCAL/MOL
REMARK 922        TOTAL FREE ENERGY PREDICTED BY IDOCK:   -3.67 KCAL/MOL
REMARK 923 INTER-LIGAND FREE ENERGY PREDICTED BY IDOCK:   -3.53 KCAL/MOL
REMARK 924 INTRA-LIGAND FREE ENERGY PREDICTED BY IDOCK:   -0.14 KCAL/MOL
REMARK 927      BINDING AFFINITY PREDICTED BY RF-SCORE:    0.00 PKD
ROOT
HETATM    1  C   UNL     1     -12.343  15.596  74.514  1.00  0.00    -0.776 C  
HETATM    2  C   UNL     1     -12.623  16.034  73.083  1.00  0.00    -0.520 C  
HETATM    3  H   UNL     1     -11.810  15.738  71.329  1.00  0.00     0.000 HD 
HETATM    4  O   UNL     1     -11.636  15.465  72.222  1.00  0.00    -0.430 OA 
ENDROOT
BRANCH   2   5
HETATM    5  C   UNL     1     -14.023  15.611  72.622  1.00  0.00    -0.608 C  
BRANCH   5   6
HETATM    6  C   UNL     1     -14.010  14.290  71.856  1.00  0.00    -0.478 C  
HETATM    7  O   UNL     1     -13.834  13.187  72.733  1.00  0.00    -0.721 OA 
HETATM    8  H   UNL     1     -13.826  12.365  72.256  1.00  0.00     0.000 HD 
ENDBRANCH   5   6
ENDBRANCH   2   5
TORSDOF 2
ENDMDL
MODEL        6
REMARK 921   NORMALIZED FREE ENERGY PREDICTED BY IDOCK:   -3.17 KCAL/MOL
REMARK 922        TOTAL FREE ENERGY PREDICTED BY IDOCK:   -3.67 KCAL/MOL
REMARK 923 INTER-LIGAND FREE ENERGY PREDICTED BY IDOCK:   -3.51 KCAL/MOL
REMARK 924 INTRA-LIGAND FREE ENERGY PREDICTED BY IDOCK:   -0.15 KCAL/MOL
REMARK 927      BINDING AFFINITY PREDICTED BY RF-SCORE:    0.00 PKD
ROOT
HETATM    1  C   UNL     1     -12.308  15.426  74.510  1.00  0.00    -0.700 C  
HETATM    2  C   UNL     1     -12.741  15.345  73.053  1.00  0.00    -0.451 C  
HETATM    3  H   UNL     1     -14.337  15.812  72.023  1.00  0.00     0.000 HD 
HETATM    4  O   UNL     1     -14.067  15.862  72.933  1.00  0.00    -0.561 OA 
ENDROOT
BRANCH   2   5
HETATM    5  C   UNL     1     -11.793  16.123  72.133  1.00  0.00    -0.626 C  
BRANCH   5   6
HETATM    6  C   UNL     1     -12.003  15.788  70.658  1.00  0.00    -0.393 C  
HETATM    7  O   UNL     1     -13.382  15.611  70.363  1.00  0.00    -0.783 OA 
HETATM    8  H   UNL     1     -13.513  15.402  69.445  1.00  0.00     0.000 HD 
ENDBRANCH   5   6
ENDBRANCH   2   5
TORSDOF 2
ENDMDL
MODEL        7
REMARK 921   NORMALIZED FREE ENERGY PREDICTED BY IDOCK:   -3.14 KCAL/MOL
REMARK 922        TOTAL FREE ENERGY PREDICTED BY IDOCK:   -3.64 KCAL/MOL
REMARK 923 INTER-LIGAND FREE ENERGY PREDICTED BY IDOCK:   -3.43 KCAL/MOL
REMARK 924 INTRA-LIGAND FREE ENERGY PREDICTED BY IDOCK:   -0.21 KCAL/MOL
REMARK 927      BINDING AFFINITY PREDICTED BY RF-SCORE:    0.00 PKD
ROOT
HETATM    1  C   UNL     1     -12.531  12.950  70.985  1.00  0.00    -0.374 C  
HETATM    2  C   UNL     1     -13.091  14.165  71.711  1.00  0.00    -0.357 C  
HETATM    3  H   UNL     1     -14.389  14.485  73.139  1.00  0.00     0.000 HD 
HETATM    4  O   UNL     1     -14.040  13.727  72.685  1.00  0.00    -0.715 OA 
ENDROOT
BRANCH   2   5
HETATM    5  C   UNL     1     -11.985  14.980  72.391  1.00  0.00    -0.442 C  
BRANCH   5   6
HETATM    6  C   UNL     1     -12.312  15.308  73.847  1.00  0.00    -0.626 C  
HETATM    7  O   UNL     1     -13.463  16.135  73.943  1.00  0.00    -0.915 OA 
HETATM    8  H   UNL     1     -13.666  16.339  74.848  1.00  0.00     0.000 HD 
ENDBRANCH   5   6
ENDBRANCH   2   5
TORSDOF 2
ENDMDL
MODEL        8
REMARK 921   NORMALIZED FREE ENERGY PREDICTED BY IDOCK:   -3.10 KCAL/MOL
REMARK 922        TOTAL FREE ENERGY PREDICTED BY IDOCK:   -3.59 KCAL/MOL
REMARK 923 INTER-LIGAND FREE ENERGY PREDICTED BY IDOCK:   -3.34 KCAL/MOL
REMARK 924 INTRA-LIGAND FREE ENERGY PREDICTED BY IDOCK:   -0.25 KCAL/MOL
REMARK 927      BINDING AFFINITY PREDICTED BY RF-SCORE:    0.00 PKD
ROOT
HETATM    1  C   UNL     1     -12.276  14.211  64.665  1.00  0.00    -0.465 C  
HETATM    2  C   UNL     1     -12.437  12.767  65.119  1.00  0.00    -0.501 C  
HETATM    3  H   UNL     1     -13.474  11.211  64.546  1.00  0.00     0.000 HD 
HETATM    4  O   UNL     1     -13.374  12.112  64.263  1.00  0.00    -0.761 OA 
ENDROOT
BRANCH   2   5
HETATM    5  C   UNL     1     -11.101  12.014  65.102  1.00  0.00    -0.369 C  
BRANCH   5   6
HETATM    6  C   UNL     1     -10.403  12.093  63.746  1.00  0.00    -0.437 C  
HETATM    7  O   UNL     1     -10.924  11.129  62.842  1.00  0.00    -0.809 OA 
HETATM    8  H   UNL     1     -10.490  11.178  61.999  1.00  0.00     0.000 HD 
ENDBRANCH   5   6
ENDBRANCH   2   5
TORSDOF 2
ENDMDL
MODEL        9
REMARK 921   NORMALIZED FREE ENERGY PREDICTED BY IDOCK:   -3.09 KCAL/MOL
REMARK 922        TOTAL FREE ENERGY PREDICTED BY IDOCK:   -3.58 KCAL/MOL
REMARK 923 INTER-LIGAND FREE ENERGY PREDICTED BY IDOCK:   -3.55 KCAL/MOL
REMARK 924 INTRA-LIGAND FREE ENERGY PREDICTED BY IDOCK:   -0.03 KCAL/MOL
REMARK 927      BINDING AFFINITY PREDICTED BY RF-SCORE:    0.00 PKD
ROOT
HETATM    1  C   UNL     1     -11.033  14.631  65.622  1.00  0.00    -0.336 C  
HETATM    2  C   UNL     1     -12.337  14.041  65.104  1.00  0.00    -0.453 C  
HETATM    3  H   UNL     1     -13.473  14.285  63.530  1.00  0.00     0.000 HD 
HETATM    4  O   UNL     1     -12.659  14.653  63.854  1.00  0.00    -0.834 OA 
ENDROOT
BRANCH   2   5
HETATM    5  C   UNL     1     -12.245  12.521  64.931  1.00  0.00    -0.534 C  
BRANCH   5   6
HETATM    6  C   UNL     1     -12.519  12.079  63.495  1.00  0.00    -0.540 C  
HETATM    7  O   UNL     1     -11.448  11.298  62.983  1.00  0.00    -0.852 OA 
HETATM    8  H   UNL     1     -11.619  11.024  62.089  1.00  0.00     0.000 HD 
ENDBRANCH   5   6
ENDBRANCH   2   5
TORSDOF 2
ENDMDL
MODEL       10
REMARK 921   NORMALIZED FREE ENERGY PREDICTED BY IDOCK:   -3.01 KCAL/MOL
REMARK 922        TOTAL FREE ENERGY PREDICTED BY IDOCK:   -3.49 KCAL/MOL
REMARK 923 INTER-LIGAND FREE ENERGY PREDICTED BY IDOCK:   -3.26 KCAL/MOL
REMARK 924 INTRA-LIGAND FREE ENERGY PREDICTED BY IDOCK:   -0.22 KCAL/MOL
REMARK 927      BINDING AFFINITY PREDICTED BY RF-SCORE:    0.00 PKD
ROOT
HETATM    1  C   UNL     1     -11.646  12.593  67.255  1.00  0.00    -0.428 C  
HETATM    2  C   UNL     1     -12.160  13.083  65.909  1.00  0.00    -0.444 C  
HETATM    3  H   UNL     1     -12.138  14.767  64.914  1.00  0.00     0.000 HD 
HETATM    4  O   UNL     1     -11.818  14.461  65.754  1.00  0.00    -0.363 OA 
ENDROOT
BRANCH   2   5
HETATM    5  C   UNL     1     -11.579  12.269  64.747  1.00  0.00    -0.393 C  
BRANCH   5   6
HETATM    6  C   UNL     1     -12.378  12.440  63.457  1.00  0.00    -0.546 C  
HETATM    7  O   UNL     1     -12.404  13.799  63.043  1.00  0.00    -1.089 OA 
HETATM    8  H   UNL     1     -12.901  13.905  62.241  1.00  0.00     0.000 HD 
ENDBRANCH   5   6
ENDBRANCH   2   5
TORSDOF 2
ENDMDL
MODEL       11
REMARK 921   NORMALIZED FREE ENERGY PREDICTED BY IDOCK:   -2.98 KCAL/MOL
REMARK 922        TOTAL FREE ENERGY PREDICTED BY IDOCK:   -3.46 KCAL/MOL
REMARK 923 INTER-LIGAND FREE ENERGY PREDICTED BY IDOCK:   -3.25 KCAL/MOL
REMARK 924 INTRA-LIGAND FREE ENERGY PREDICTED BY IDOCK:   -0.20 KCAL/MOL
REMARK 927      BINDING AFFINITY PREDICTED BY RF-SCORE:    0.00 PKD
ROOT
HETATM    1  C   UNL     1     -10.238  15.844  66.159  1.00  0.00    -0.340 C  
HETATM    2  C   UNL     1     -11.150  15.283  65.077  1.00  0.00    -0.426 C  
HETATM    3  H   UNL     1     -11.824  15.886  63.342  1.00  0.00     0.000 HD 
HETATM    4  O   UNL     1     -11.255  16.236  64.018  1.00  0.00    -0.719 OA 
ENDROOT
BRANCH   2   5
HETATM    5  C   UNL     1     -10.630  13.950  64.529  1.00  0.00    -0.375 C  
BRANCH   5   6
HETATM    6  C   UNL     1     -11.683  13.203  63.712  1.00  0.00    -0.461 C  
HETATM    7  O   UNL     1     -12.757  14.060  63.352  1.00  0.00    -0.933 OA 
HETATM    8  H   UNL     1     -13.412  13.595  62.844  1.00  0.00     0.000 HD 
ENDBRANCH   5   6
ENDBRANCH   2   5
TORSDOF 2
ENDMDL
MODEL       12
REMARK 921   NORMALIZED FREE ENERGY PREDICTED BY IDOCK:   -2.95 KCAL/MOL
REMARK 922        TOTAL FREE ENERGY PREDICTED BY IDOCK:   -3.43 KCAL/MOL
REMARK 923 INTER-LIGAND FREE ENERGY PREDICTED BY IDOCK:   -3.22 KCAL/MOL
REMARK 924 INTRA-LIGAND FREE ENERGY PREDICTED BY IDOCK:   -0.21 KCAL/MOL
REMARK 927      BINDING AFFINITY PREDICTED BY RF-SCORE:    0.00 PKD
ROOT
HETATM    1  C   UNL     1     -12.656  15.499  73.922  1.00  0.00    -0.767 C  
HETATM    2  C   UNL     1     -12.733  14.662  72.653  1.00  0.00    -0.375 C  
HETATM    3  H   UNL     1     -13.895  13.251  71.957  1.00  0.00     0.000 HD 
HETATM    4  O   UNL     1     -13.847  13.773  72.749  1.00  0.00    -0.716 OA 
ENDROOT
BRANCH   2   5
HETATM    5  C   UNL     1     -12.872  15.538  71.402  1.00  0.00    -0.531 C  
BRANCH   5   6
HETATM    6  C   UNL     1     -12.352  14.845  70.144  1.00  0.00    -0.327 C  
HETATM    7  O   UNL     1     -11.721  13.612  70.458  1.00  0.00    -0.500 OA 
HETATM    8  H   UNL     1     -11.397  13.181  69.676  1.00  0.00     0.000 HD 
ENDBRANCH   5   6
ENDBRANCH   2   5
TORSDOF 2
ENDMDL
MODEL       13
REMARK 921   NORMALIZED FREE ENERGY PREDICTED BY IDOCK:   -2.92 KCAL/MOL
REMARK 922        TOTAL FREE ENERGY PREDICTED BY IDOCK:   -3.39 KCAL/MOL
REMARK 923 INTER-LIGAND FREE ENERGY PREDICTED BY IDOCK:   -3.15 KCAL/MOL
REMARK 924 INTRA-LIGAND FREE ENERGY PREDICTED BY IDOCK:   -0.24 KCAL/MOL
REMARK 927      BINDING AFFINITY PREDICTED BY RF-SCORE:    0.00 PKD
ROOT
HETATM    1  C   UNL     1     -10.651  11.431  63.540  1.00  0.00    -0.468 C  
HETATM    2  C   UNL     1     -11.540  12.667  63.518  1.00  0.00    -0.514 C  
HETATM    3  H   UNL     1     -13.452  13.038  63.699  1.00  0.00     0.000 HD 
HETATM    4  O   UNL     1     -12.897  12.267  63.713  1.00  0.00    -0.735 OA 
ENDROOT
BRANCH   2   5
HETATM    5  C   UNL     1     -11.135  13.678  64.597  1.00  0.00    -0.387 C  
BRANCH   5   6
HETATM    6  C   UNL     1     -12.168  13.782  65.717  1.00  0.00    -0.462 C  
HETATM    7  O   UNL     1     -12.272  12.562  66.436  1.00  0.00    -0.584 OA 
HETATM    8  H   UNL     1     -12.915  12.626  67.133  1.00  0.00     0.000 HD 
ENDBRANCH   5   6
ENDBRANCH   2   5
TORSDOF 2
ENDMDL
MODEL       14
REMARK 921   NORMALIZED FREE ENERGY PREDICTED BY IDOCK:   -2.89 KCAL/MOL
REMARK 922        TOTAL FREE ENERGY PREDICTED BY IDOCK:   -3.36 KCAL/MOL
REMARK 923 INTER-LIGAND FREE ENERGY PREDICTED BY IDOCK:   -3.14 KCAL/MOL
REMARK 924 INTRA-LIGAND FREE ENERGY PREDICTED BY IDOCK:   -0.22 KCAL/MOL
REMARK 927      BINDING AFFINITY PREDICTED BY RF-SCORE:    0.00 PKD
ROOT
HETATM    1  C   UNL     1     -10.383   9.633  70.556  1.00  0.00    -0.359 C  
HETATM    2  C   UNL     1     -11.551   8.900  71.201  1.00  0.00    -0.300 C  
HETATM    3  H   UNL     1     -11.842   7.865  72.835  1.00  0.00     0.000 HD 
HETATM    4  O   UNL     1     -11.113   8.322  72.432  1.00  0.00    -0.334 OA 
ENDROOT
BRANCH   2   5
HETATM    5  C   UNL     1     -12.738   9.836  71.458  1.00  0.00    -0.504 C  
BRANCH   5   6
HETATM    6  C   UNL     1     -13.969   9.090  71.968  1.00  0.00    -0.410 C  
HETATM    7  O   UNL     1     -13.927   8.932  73.380  1.00  0.00    -1.236 OA 
HETATM    8  H   UNL     1     -14.693   8.468  73.697  1.00  0.00     0.000 HD 
ENDBRANCH   5   6
ENDBRANCH   2   5
TORSDOF 2
ENDMDL
MODEL       15
REMARK 921   NORMALIZED FREE ENERGY PREDICTED BY IDOCK:   -2.87 KCAL/MOL
REMARK 922        TOTAL FREE ENERGY PREDICTED BY IDOCK:   -3.34 KCAL/MOL
REMARK 923 INTER-LIGAND FREE ENERGY PREDICTED BY IDOCK:   -3.11 KCAL/MOL
REMARK 924 INTRA-LIGAND FREE ENERGY PREDICTED BY IDOCK:   -0.22 KCAL/MOL
REMARK 927      BINDING AFFINITY PREDICTED BY RF-SCORE:    0.00 PKD
ROOT
HETATM    1  C   UNL     1     -11.417   6.997  70.309  1.00  0.00    -0.333 C  
HETATM    2  C   UNL     1     -12.044   6.818  71.684  1.00  0.00    -0.359 C  
HETATM    3  H   UNL     1     -11.714   7.496  73.489  1.00  0.00     0.000 HD 
HETATM    4  O   UNL     1     -11.322   7.608  72.631  1.00  0.00    -0.332 OA 
ENDROOT
BRANCH   2   5
HETATM    5  C   UNL     1     -13.524   7.221  71.691  1.00  0.00    -0.428 C  
BRANCH   5   6
HETATM    6  C   UNL     1     -13.723   8.709  71.973  1.00  0.00    -0.426 C  
HETATM    7  O   UNL     1     -13.917   8.948  73.360  1.00  0.00    -1.236 OA 
HETATM    8  H   UNL     1     -14.041   9.873  73.536  1.00  0.00     0.000 HD 
ENDBRANCH   5   6
ENDBRANCH   2   5
TORSDOF 2
ENDMDL
MODEL       16
REMARK 921   NORMALIZED FREE ENERGY PREDICTED BY IDOCK:   -2.83 KCAL/MOL
REMARK 922        TOTAL FREE ENERGY PREDICTED BY IDOCK:   -3.29 KCAL/MOL
REMARK 923 INTER-LIGAND FREE ENERGY PREDICTED BY IDOCK:   -3.28 KCAL/MOL
REMARK 924 INTRA-LIGAND FREE ENERGY PREDICTED BY IDOCK:   -0.02 KCAL/MOL
REMARK 927      BINDING AFFINITY PREDICTED BY RF-SCORE:    0.00 PKD
ROOT
HETATM    1  C   UNL     1     -11.245   9.230  70.539  1.00  0.00    -0.315 C  
HETATM    2  C   UNL     1     -11.952  10.557  70.769  1.00  0.00    -0.370 C  
HETATM    3  H   UNL     1     -12.822  11.909  69.654  1.00  0.00     0.000 HD 
HETATM    4  O   UNL     1     -12.380  11.081  69.510  1.00  0.00    -0.324 OA 
ENDROOT
BRANCH   2   5
HETATM    5  C   UNL     1     -13.156  10.405  71.705  1.00  0.00    -0.567 C  
BRANCH   5   6
HETATM    6  C   UNL     1     -13.246   9.009  72.320  1.00  0.00    -0.460 C  
HETATM    7  O   UNL     1     -14.230   8.960  73.343  1.00  0.00    -1.241 OA 
HETATM    8  H   UNL     1     -14.285   8.092  73.726  1.00  0.00     0.000 HD 
ENDBRANCH   5   6
ENDBRANCH   2   5
TORSDOF 2
ENDMDL
MODEL       17
REMARK 921   NORMALIZED FREE ENERGY PREDICTED BY IDOCK:   -2.83 KCAL/MOL
REMARK 922        TOTAL FREE ENERGY PREDICTED BY IDOCK:   -3.29 KCAL/MOL
REMARK 923 INTER-LIGAND FREE ENERGY PREDICTED BY IDOCK:   -3.03 KCAL/MOL
REMARK 924 INTRA-LIGAND FREE ENERGY PREDICTED BY IDOCK:   -0.26 KCAL/MOL
REMARK 927      BINDING AFFINITY PREDICTED BY RF-SCORE:    0.00 PKD
ROOT
HETATM    1  C   UNL     1     -12.096  12.757  63.453  1.00  0.00    -0.619 C  
HETATM    2  C   UNL     1     -11.920  13.761  64.583  1.00  0.00    -0.416 C  
HETATM    3  H   UNL     1     -13.035  14.489  66.016  1.00  0.00     0.000 HD 
HETATM    4  O   UNL     1     -13.145  13.862  65.310  1.00  0.00    -0.777 OA 
ENDROOT
BRANCH   2   5
HETATM    5  C   UNL     1     -10.784  13.358  65.530  1.00  0.00    -0.301 C  
BRANCH   5   6
HETATM    6  C   UNL     1     -10.972  11.955  66.104  1.00  0.00    -0.308 C  
HETATM    7  O   UNL     1     -11.935  11.951  67.148  1.00  0.00    -0.611 OA 
HETATM    8  H   UNL     1     -12.052  11.078  67.506  1.00  0.00     0.000 HD 
ENDBRANCH   5   6
ENDBRANCH   2   5
TORSDOF 2
ENDMDL
MODEL       18
REMARK 921   NORMALIZED FREE ENERGY PREDICTED BY IDOCK:   -2.82 KCAL/MOL
REMARK 922        TOTAL FREE ENERGY PREDICTED BY IDOCK:   -3.28 KCAL/MOL
REMARK 923 INTER-LIGAND FREE ENERGY PREDICTED BY IDOCK:   -3.22 KCAL/MOL
REMARK 924 INTRA-LIGAND FREE ENERGY PREDICTED BY IDOCK:   -0.06 KCAL/MOL
REMARK 927      BINDING AFFINITY PREDICTED BY RF-SCORE:    0.00 PKD
ROOT
HETATM    1  C   UNL     1     -14.182  15.209  71.298  1.00  0.00    -0.527 C  
HETATM    2  C   UNL     1     -13.423  15.420  72.601  1.00  0.00    -0.529 C  
HETATM    3  H   UNL     1     -12.794  14.292  74.071  1.00  0.00     0.000 HD 
HETATM    4  O   UNL     1     -13.268  14.160  73.258  1.00  0.00    -0.584 OA 
ENDROOT
BRANCH   2   5
HETATM    5  C   UNL     1     -12.048  16.055  72.362  1.00  0.00    -0.629 C  
BRANCH   5   6
HETATM    6  C   UNL     1     -11.602  15.950  70.906  1.00  0.00    -0.421 C  
HETATM    7  O   UNL     1     -10.562  14.994  70.754  1.00  0.00    -0.532 OA 
HETATM    8  H   UNL     1     -10.284  14.929  69.847  1.00  0.00     0.000 HD 
ENDBRANCH   5   6
ENDBRANCH   2   5
TORSDOF 2
ENDMDL
MODEL       19
REMARK 921   NORMALIZED FREE ENERGY PREDICTED BY IDOCK:   -2.78 KCAL/MOL
REMARK 922        TOTAL FREE ENERGY PREDICTED BY IDOCK:   -3.24 KCAL/MOL
REMARK 923 INTER-LIGAND FREE ENERGY PREDICTED BY IDOCK:   -3.23 KCAL/MOL
REMARK 924 INTRA-LIGAND FREE ENERGY PREDICTED BY IDOCK:   -0.01 KCAL/MOL
REMARK 927      BINDING AFFINITY PREDICTED BY RF-SCORE:    0.00 PKD
ROOT
HETATM    1  C   UNL     1     -12.322  12.395  63.805  1.00  0.00    -0.625 C  
HETATM    2  C   UNL     1     -12.127  13.714  64.539  1.00  0.00    -0.419 C  
HETATM    3  H   UNL     1     -12.509  15.600  64.184  1.00  0.00     0.000 HD 
HETATM    4  O   UNL     1     -12.630  14.777  63.726  1.00  0.00    -0.806 OA 
ENDROOT
BRANCH   2   5
HETATM    5  C   UNL     1     -12.836  13.719  65.898  1.00  0.00    -0.369 C  
BRANCH   5   6
HETATM    6  C   UNL     1     -11.857  13.798  67.067  1.00  0.00    -0.410 C  
HETATM    7  O   UNL     1     -12.313  14.707  68.060  1.00  0.00    -0.604 OA 
HETATM    8  H   UNL     1     -11.703  14.757  68.787  1.00  0.00     0.000 HD 
ENDBRANCH   5   6
ENDBRANCH   2   5
TORSDOF 2
ENDMDL
MODEL       20
REMARK 921   NORMALIZED FREE ENERGY PREDICTED BY IDOCK:   -2.74 KCAL/MOL
REMARK 922        TOTAL FREE ENERGY PREDICTED BY IDOCK:   -3.19 KCAL/MOL
REMARK 923 INTER-LIGAND FREE ENERGY PREDICTED BY IDOCK:   -2.93 KCAL/MOL
REMARK 924 INTRA-LIGAND FREE ENERGY PREDICTED BY IDOCK:   -0.26 KCAL/MOL
REMARK 927      BINDING AFFINITY PREDICTED BY RF-SCORE:    0.00 PKD
ROOT
HETATM    1  C   UNL     1     -14.395   8.293  71.803  1.00  0.00    -0.574 C  
HETATM    2  C   UNL     1     -12.992   8.860  71.963  1.00  0.00    -0.399 C  
HETATM    3  H   UNL     1     -11.240   8.553  71.148  1.00  0.00     0.000 HD 
HETATM    4  O   UNL     1     -12.116   8.199  71.049  1.00  0.00    -0.286 OA 
ENDROOT
BRANCH   2   5
HETATM    5  C   UNL     1     -12.958  10.373  71.713  1.00  0.00    -0.580 C  
BRANCH   5   6
HETATM    6  C   UNL     1     -12.007  10.757  70.583  1.00  0.00    -0.367 C  
HETATM    7  O   UNL     1     -12.593  10.517  69.312  1.00  0.00    -0.726 OA 
HETATM    8  H   UNL     1     -12.001  10.756  68.608  1.00  0.00     0.000 HD 
ENDBRANCH   5   6
ENDBRANCH   2   5
TORSDOF 2
ENDMDL
MODEL       21
REMARK 921   NORMALIZED FREE ENERGY PREDICTED BY IDOCK:   -2.72 KCAL/MOL
REMARK 922        TOTAL FREE ENERGY PREDICTED BY IDOCK:   -3.16 KCAL/MOL
REMARK 923 INTER-LIGAND FREE ENERGY PREDICTED BY IDOCK:   -3.13 KCAL/MOL
REMARK 924 INTRA-LIGAND FREE ENERGY PREDICTED BY IDOCK:   -0.03 KCAL/MOL
REMARK 927      BINDING AFFINITY PREDICTED BY RF-SCORE:    0.00 PKD
ROOT
HETATM    1  C   UNL     1     -10.828  15.552  67.365  1.00  0.00    -0.312 C  
HETATM    2  C   UNL     1     -10.292  14.496  66.409  1.00  0.00    -0.293 C  
HETATM    3  H   UNL     1     -10.811  12.693  65.857  1.00  0.00     0.000 HD 
HETATM    4  O   UNL     1     -11.146  13.352  66.454  1.00  0.00    -0.294 OA 
ENDROOT
BRANCH   2   5
HETATM    5  C   UNL     1     -10.202  15.023  64.972  1.00  0.00    -0.349 C  
BRANCH   5   6
HETATM    6  C   UNL     1     -11.576  15.295  64.363  1.00  0.00    -0.263 C  
HETATM    7  O   UNL     1     -11.635  16.591  63.784  1.00  0.00    -1.617 OA 
HETATM    8  H   UNL     1     -12.490  16.760  63.405  1.00  0.00     0.000 HD 
ENDBRANCH   5   6
ENDBRANCH   2   5
TORSDOF 2
ENDMDL
MODEL       22
REMARK 921   NORMALIZED FREE ENERGY PREDICTED BY IDOCK:   -2.71 KCAL/MOL
REMARK 922        TOTAL FREE ENERGY PREDICTED BY IDOCK:   -3.16 KCAL/MOL
REMARK 923 INTER-LIGAND FREE ENERGY PREDICTED BY IDOCK:   -2.98 KCAL/MOL
REMARK 924 INTRA-LIGAND FREE ENERGY PREDICTED BY IDOCK:   -0.18 KCAL/MOL
REMARK 927      BINDING AFFINITY PREDICTED BY RF-SCORE:    0.00 PKD
ROOT
HETATM    1  C   UNL     1     -13.427   9.103  72.426  1.00  0.00    -0.535 C  
HETATM    2  C   UNL     1     -13.001  10.134  71.390  1.00  0.00    -0.429 C  
HETATM    3  H   UNL     1     -12.922  12.086  71.286  1.00  0.00     0.000 HD 
HETATM    4  O   UNL     1     -13.188  11.442  71.932  1.00  0.00    -0.484 OA 
ENDROOT
BRANCH   2   5
HETATM    5  C   UNL     1     -11.538   9.949  70.972  1.00  0.00    -0.470 C  
BRANCH   5   6
HETATM    6  C   UNL     1     -11.242  10.548  69.599  1.00  0.00    -0.282 C  
HETATM    7  O   UNL     1     -12.441  10.803  68.880  1.00  0.00    -0.782 OA 
HETATM    8  H   UNL     1     -12.257  11.176  68.025  1.00  0.00     0.000 HD 
ENDBRANCH   5   6
ENDBRANCH   2   5
TORSDOF 2
ENDMDL
MODEL       23
REMARK 921   NORMALIZED FREE ENERGY PREDICTED BY IDOCK:   -2.70 KCAL/MOL
REMARK 922        TOTAL FREE ENERGY PREDICTED BY IDOCK:   -3.15 KCAL/MOL
REMARK 923 INTER-LIGAND FREE ENERGY PREDICTED BY IDOCK:   -2.95 KCAL/MOL
REMARK 924 INTRA-LIGAND FREE ENERGY PREDICTED BY IDOCK:   -0.20 KCAL/MOL
REMARK 927      BINDING AFFINITY PREDICTED BY RF-SCORE:    0.00 PKD
ROOT
HETATM    1  C   UNL     1     -10.287  18.202  66.006  1.00  0.00    -0.360 C  
HETATM    2  C   UNL     1     -10.815  16.819  65.652  1.00  0.00    -0.107 C  
HETATM    3  H   UNL     1     -11.557  15.952  64.064  1.00  0.00     0.000 HD 
HETATM    4  O   UNL     1     -11.228  16.815  64.285  1.00  0.00    -1.163 OA 
ENDROOT
BRANCH   2   5
HETATM    5  C   UNL     1      -9.758  15.732  65.880  1.00  0.00    -0.389 C  
BRANCH   5   6
HETATM    6  C   UNL     1     -10.306  14.326  65.644  1.00  0.00    -0.336 C  
HETATM    7  O   UNL     1     -10.662  14.135  64.282  1.00  0.00    -0.596 OA 
HETATM    8  H   UNL     1     -11.003  13.260  64.135  1.00  0.00     0.000 HD 
ENDBRANCH   5   6
ENDBRANCH   2   5
TORSDOF 2
ENDMDL
MODEL       24
REMARK 921   NORMALIZED FREE ENERGY PREDICTED BY IDOCK:   -2.70 KCAL/MOL
REMARK 922        TOTAL FREE ENERGY PREDICTED BY IDOCK:   -3.15 KCAL/MOL
REMARK 923 INTER-LIGAND FREE ENERGY PREDICTED BY IDOCK:   -3.14 KCAL/MOL
REMARK 924 INTRA-LIGAND FREE ENERGY PREDICTED BY IDOCK:   -0.01 KCAL/MOL
REMARK 927      BINDING AFFINITY PREDICTED BY RF-SCORE:    0.00 PKD
ROOT
HETATM    1  C   UNL     1      -8.637  16.435  67.786  1.00  0.00    -0.172 C  
HETATM    2  C   UNL     1     -10.051  16.365  67.228  1.00  0.00    -0.270 C  
HETATM    3  H   UNL     1     -11.780  17.176  67.649  1.00  0.00     0.000 HD 
HETATM    4  O   UNL     1     -10.897  17.220  67.998  1.00  0.00    -0.381 OA 
ENDROOT
BRANCH   2   5
HETATM    5  C   UNL     1     -10.101  16.775  65.751  1.00  0.00    -0.276 C  
BRANCH   5   6
HETATM    6  C   UNL     1     -10.924  15.807  64.904  1.00  0.00    -0.427 C  
HETATM    7  O   UNL     1     -11.510  16.467  63.791  1.00  0.00    -1.615 OA 
HETATM    8  H   UNL     1     -12.022  15.865  63.264  1.00  0.00     0.000 HD 
ENDBRANCH   5   6
ENDBRANCH   2   5
TORSDOF 2
ENDMDL
MODEL       25
REMARK 921   NORMALIZED FREE ENERGY PREDICTED BY IDOCK:   -2.69 KCAL/MOL
REMARK 922        TOTAL FREE ENERGY PREDICTED BY IDOCK:   -3.13 KCAL/MOL
REMARK 923 INTER-LIGAND FREE ENERGY PREDICTED BY IDOCK:   -3.10 KCAL/MOL
REMARK 924 INTRA-LIGAND FREE ENERGY PREDICTED BY IDOCK:   -0.04 KCAL/MOL
REMARK 927      BINDING AFFINITY PREDICTED BY RF-SCORE:    0.00 PKD
ROOT
HETATM    1  C   UNL     1     -11.558   6.851  72.020  1.00  0.00    -0.322 C  
HETATM    2  C   UNL     1     -11.413   8.322  72.381  1.00  0.00    -0.394 C  
HETATM    3  H   UNL     1     -10.040   9.700  72.177  1.00  0.00     0.000 HD 
HETATM    4  O   UNL     1     -10.130   8.781  71.952  1.00  0.00    -0.295 OA 
ENDROOT
BRANCH   2   5
HETATM    5  C   UNL     1     -12.513   9.176  71.739  1.00  0.00    -0.447 C  
BRANCH   5   6
HETATM    6  C   UNL     1     -13.912   8.629  72.012  1.00  0.00    -0.446 C  
HETATM    7  O   UNL     1     -14.314   8.888  73.350  1.00  0.00    -1.192 OA 
HETATM    8  H   UNL     1     -15.184   8.547  73.520  1.00  0.00     0.000 HD 
ENDBRANCH   5   6
ENDBRANCH   2   5
TORSDOF 2
ENDMDL
MODEL       26
REMARK 921   NORMALIZED FREE ENERGY PREDICTED BY IDOCK:   -2.69 KCAL/MOL
REMARK 922        TOTAL FREE ENERGY PREDICTED BY IDOCK:   -3.13 KCAL/MOL
REMARK 923 INTER-LIGAND FREE ENERGY PREDICTED BY IDOCK:   -2.92 KCAL/MOL
REMARK 924 INTRA-LIGAND FREE ENERGY PREDICTED BY IDOCK:   -0.21 KCAL/MOL
REMARK 927      BINDING AFFINITY PREDICTED BY RF-SCORE:    0.00 PKD
ROOT
HETATM    1  C   UNL     1     -11.499   5.826  72.658  1.00  0.00    -0.337 C  
HETATM    2  C   UNL     1     -11.773   6.962  71.683  1.00  0.00    -0.304 C  
HETATM    3  H   UNL     1     -13.218   7.460  70.461  1.00  0.00     0.000 HD 
HETATM    4  O   UNL     1     -13.046   6.751  71.070  1.00  0.00    -0.215 OA 
ENDROOT
BRANCH   2   5
HETATM    5  C   UNL     1     -11.750   8.327  72.379  1.00  0.00    -0.463 C  
BRANCH   5   6
HETATM    6  C   UNL     1     -13.066   9.086  72.221  1.00  0.00    -0.445 C  
HETATM    7  O   UNL     1     -13.960   8.795  73.286  1.00  0.00    -1.160 OA 
HETATM    8  H   UNL     1     -14.779   9.266  73.187  1.00  0.00     0.000 HD 
ENDBRANCH   5   6
ENDBRANCH   2   5
TORSDOF 2
ENDMDL
MODEL       27
REMARK 921   NORMALIZED FREE ENERGY PREDICTED BY IDOCK:   -2.68 KCAL/MOL
REMARK 922        TOTAL FREE ENERGY PREDICTED BY IDOCK:   -3.13 KCAL/MOL
REMARK 923 INTER-LIGAND FREE ENERGY PREDICTED BY IDOCK:   -2.87 KCAL/MOL
REMARK 924 INTRA-LIGAND FREE ENERGY PREDICTED BY IDOCK:   -0.26 KCAL/MOL
REMARK 927      BINDING AFFINITY PREDICTED BY RF-SCORE:    0.00 PKD
ROOT
HETATM    1  C   UNL     1     -12.881  10.380  71.517  1.00  0.00    -0.569 C  
HETATM    2  C   UNL     1     -13.190   9.115  72.306  1.00  0.00    -0.461 C  
HETATM    3  H   UNL     1     -14.550   7.711  72.252  1.00  0.00     0.000 HD 
HETATM    4  O   UNL     1     -14.358   8.500  71.760  1.00  0.00    -0.430 OA 
ENDROOT
BRANCH   2   5
HETATM    5  C   UNL     1     -12.019   8.127  72.276  1.00  0.00    -0.434 C  
BRANCH   5   6
HETATM    6  C   UNL     1     -12.396   6.793  71.633  1.00  0.00    -0.362 C  
HETATM    7  O   UNL     1     -12.449   6.902  70.218  1.00  0.00    -0.613 OA 
HETATM    8  H   UNL     1     -12.684   6.072  69.818  1.00  0.00     0.000 HD 
ENDBRANCH   5   6
ENDBRANCH   2   5
TORSDOF 2
ENDMDL
MODEL       28
REMARK 921   NORMALIZED FREE ENERGY PREDICTED BY IDOCK:   -2.67 KCAL/MOL
REMARK 922        TOTAL FREE ENERGY PREDICTED BY IDOCK:   -3.11 KCAL/MOL
REMARK 923 INTER-LIGAND FREE ENERGY PREDICTED BY IDOCK:   -2.90 KCAL/MOL
REMARK 924 INTRA-LIGAND FREE ENERGY PREDICTED BY IDOCK:   -0.22 KCAL/MOL
REMARK 927      BINDING AFFINITY PREDICTED BY RF-SCORE:    0.00 PKD
ROOT
HETATM    1  C   UNL     1     -12.988  11.304  71.502  1.00  0.00    -0.520 C  
HETATM    2  C   UNL     1     -12.802   9.797  71.389  1.00  0.00    -0.392 C  
HETATM    3  H   UNL     1     -11.335   8.530  71.650  1.00  0.00     0.000 HD 
HETATM    4  O   UNL     1     -11.451   9.470  71.720  1.00  0.00    -0.384 OA 
ENDROOT
BRANCH   2   5
HETATM    5  C   UNL     1     -13.763   9.035  72.310  1.00  0.00    -0.550 C  
BRANCH   5   6
HETATM    6  C   UNL     1     -14.244   7.723  71.694  1.00  0.00    -0.457 C  
HETATM    7  O   UNL     1     -13.336   7.253  70.708  1.00  0.00    -0.592 OA 
HETATM    8  H   UNL     1     -13.635   6.437  70.325  1.00  0.00     0.000 HD 
ENDBRANCH   5   6
ENDBRANCH   2   5
TORSDOF 2
ENDMDL
MODEL       29
REMARK 921   NORMALIZED FREE ENERGY PREDICTED BY IDOCK:   -2.67 KCAL/MOL
REMARK 922        TOTAL FREE ENERGY PREDICTED BY IDOCK:   -3.11 KCAL/MOL
REMARK 923 INTER-LIGAND FREE ENERGY PREDICTED BY IDOCK:   -2.90 KCAL/MOL
REMARK 924 INTRA-LIGAND FREE ENERGY PREDICTED BY IDOCK:   -0.21 KCAL/MOL
REMARK 927      BINDING AFFINITY PREDICTED BY RF-SCORE:    0.00 PKD
ROOT
HETATM    1  C   UNL     1      -9.525  11.576  65.703  1.00  0.00    -0.244 C  
HETATM    2  C   UNL     1     -10.267  12.391  64.654  1.00  0.00    -0.287 C  
HETATM    3  H   UNL     1     -10.342  12.450  62.700  1.00  0.00     0.000 HD 
HETATM    4  O   UNL     1      -9.878  11.941  63.355  1.00  0.00    -0.393 OA 
ENDROOT
BRANCH   2   5
HETATM    5  C   UNL     1     -11.787  12.273  64.813  1.00  0.00    -0.428 C  
BRANCH   5   6
HETATM    6  C   UNL     1     -12.531  12.490  63.496  1.00  0.00    -0.459 C  
HETATM    7  O   UNL     1     -12.308  13.798  62.989  1.00  0.00    -1.089 OA 
HETATM    8  H   UNL     1     -12.771  13.933  62.170  1.00  0.00     0.000 HD 
ENDBRANCH   5   6
ENDBRANCH   2   5
TORSDOF 2
ENDMDL
MODEL       30
REMARK 921   NORMALIZED FREE ENERGY PREDICTED BY IDOCK:   -2.65 KCAL/MOL
REMARK 922        TOTAL FREE ENERGY PREDICTED BY IDOCK:   -3.09 KCAL/MOL
REMARK 923 INTER-LIGAND FREE ENERGY PREDICTED BY IDOCK:   -3.07 KCAL/MOL
REMARK 924 INTRA-LIGAND FREE ENERGY PREDICTED BY IDOCK:   -0.02 KCAL/MOL
REMARK 927      BINDING AFFINITY PREDICTED BY RF-SCORE:    0.00 PKD
ROOT
HETATM    1  C   UNL     1     -11.113  13.078  63.886  1.00  0.00    -0.411 C  
HETATM    2  C   UNL     1     -11.955  12.922  65.144  1.00  0.00    -0.414 C  
HETATM    3  H   UNL     1     -13.745  12.262  65.576  1.00  0.00     0.000 HD 
HETATM    4  O   UNL     1     -13.220  12.360  64.790  1.00  0.00    -0.784 OA 
ENDROOT
BRANCH   2   5
HETATM    5  C   UNL     1     -11.264  12.034  66.185  1.00  0.00    -0.394 C  
BRANCH   5   6
HETATM    6  C   UNL     1     -11.786  12.278  67.600  1.00  0.00    -0.334 C  
HETATM    7  O   UNL     1     -12.086  11.053  68.255  1.00  0.00    -0.737 OA 
HETATM    8  H   UNL     1     -12.411  11.205  69.135  1.00  0.00     0.000 HD 
ENDBRANCH   5   6
ENDBRANCH   2   5
TORSDOF 2
ENDMDL
MODEL       31
REMARK 921   NORMALIZED FREE ENERGY PREDICTED BY IDOCK:   -2.60 KCAL/MOL
REMARK 922        TOTAL FREE ENERGY PREDICTED BY IDOCK:   -3.03 KCAL/MOL
REMARK 923 INTER-LIGAND FREE ENERGY PREDICTED BY IDOCK:   -2.81 KCAL/MOL
REMARK 924 INTRA-LIGAND FREE ENERGY PREDICTED BY IDOCK:   -0.22 KCAL/MOL
REMARK 927      BINDING AFFINITY PREDICTED BY RF-SCORE:    0.00 PKD
ROOT
HETATM    1  C   UNL     1     -10.658  17.759  67.603  1.00  0.00    -0.385 C  
HETATM    2  C   UNL     1     -10.473  19.264  67.738  1.00  0.00    -0.435 C  
HETATM    3  H   UNL     1      -9.496  20.468  68.931  1.00  0.00     0.000 HD 
HETATM    4  O   UNL     1      -9.612  19.529  68.847  1.00  0.00    -0.397 OA 
ENDROOT
BRANCH   2   5
HETATM    5  C   UNL     1      -9.886  19.882  66.464  1.00  0.00    -0.567 C  
BRANCH   5   6
HETATM    6  C   UNL     1      -8.361  19.965  66.504  1.00  0.00    -0.336 C  
HETATM    7  O   UNL     1      -7.928  21.221  67.007  1.00  0.00    -0.691 OA 
HETATM    8  H   UNL     1      -6.980  21.274  67.032  1.00  0.00     0.000 HD 
ENDBRANCH   5   6
ENDBRANCH   2   5
TORSDOF 2
ENDMDL
MODEL       32
REMARK 921   NORMALIZED FREE ENERGY PREDICTED BY IDOCK:   -2.56 KCAL/MOL
REMARK 922        TOTAL FREE ENERGY PREDICTED BY IDOCK:   -2.99 KCAL/MOL
REMARK 923 INTER-LIGAND FREE ENERGY PREDICTED BY IDOCK:   -2.76 KCAL/MOL
REMARK 924 INTRA-LIGAND FREE ENERGY PREDICTED BY IDOCK:   -0.23 KCAL/MOL
REMARK 927      BINDING AFFINITY PREDICTED BY RF-SCORE:    0.00 PKD
ROOT
HETATM    1  C   UNL     1     -10.493  13.939  66.369  1.00  0.00    -0.284 C  
HETATM    2  C   UNL     1     -11.881  13.576  66.877  1.00  0.00    -0.407 C  
HETATM    3  H   UNL     1     -13.196  12.172  66.522  1.00  0.00     0.000 HD 
HETATM    4  O   UNL     1     -12.329  12.398  66.205  1.00  0.00    -0.606 OA 
ENDROOT
BRANCH   2   5
HETATM    5  C   UNL     1     -11.890  13.345  68.393  1.00  0.00    -0.401 C  
BRANCH   5   6
HETATM    6  C   UNL     1     -11.301  11.991  68.781  1.00  0.00    -0.278 C  
HETATM    7  O   UNL     1     -12.270  10.958  68.673  1.00  0.00    -0.785 OA 
HETATM    8  H   UNL     1     -11.904  10.115  68.914  1.00  0.00     0.000 HD 
ENDBRANCH   5   6
ENDBRANCH   2   5
TORSDOF 2
ENDMDL
MODEL       33
REMARK 921   NORMALIZED FREE ENERGY PREDICTED BY IDOCK:   -2.55 KCAL/MOL
REMARK 922        TOTAL FREE ENERGY PREDICTED BY IDOCK:   -2.98 KCAL/MOL
REMARK 923 INTER-LIGAND FREE ENERGY PREDICTED BY IDOCK:   -2.79 KCAL/MOL
REMARK 924 INTRA-LIGAND FREE ENERGY PREDICTED BY IDOCK:   -0.19 KCAL/MOL
REMARK 927      BINDING AFFINITY PREDICTED BY RF-SCORE:    0.00 PKD
ROOT
HETATM    1  C   UNL     1     -13.493  14.153  72.645  1.00  0.00    -0.634 C  
HETATM    2  C   UNL     1     -12.458  14.278  71.536  1.00  0.00    -0.356 C  
HETATM    3  H   UNL     1     -11.759  13.128  70.116  1.00  0.00     0.000 HD 
HETATM    4  O   UNL     1     -12.404  13.050  70.809  1.00  0.00    -0.363 OA 
ENDROOT
BRANCH   2   5
HETATM    5  C   UNL     1     -12.784  15.434  70.582  1.00  0.00    -0.490 C  
BRANCH   5   6
HETATM    6  C   UNL     1     -11.790  15.536  69.427  1.00  0.00    -0.374 C  
HETATM    7  O   UNL     1     -12.277  14.874  68.269  1.00  0.00    -0.570 OA 
HETATM    8  H   UNL     1     -11.658  14.937  67.550  1.00  0.00     0.000 HD 
ENDBRANCH   5   6
ENDBRANCH   2   5
TORSDOF 2
ENDMDL
MODEL       34
REMARK 921   NORMALIZED FREE ENERGY PREDICTED BY IDOCK:   -2.55 KCAL/MOL
REMARK 922        TOTAL FREE ENERGY PREDICTED BY IDOCK:   -2.98 KCAL/MOL
REMARK 923 INTER-LIGAND FREE ENERGY PREDICTED BY IDOCK:   -2.73 KCAL/MOL
REMARK 924 INTRA-LIGAND FREE ENERGY PREDICTED BY IDOCK:   -0.25 KCAL/MOL
REMARK 927      BINDING AFFINITY PREDICTED BY RF-SCORE:    0.00 PKD
ROOT
HETATM    1  C   UNL     1     -10.489  19.910  65.957  1.00  0.00    -0.580 C  
HETATM    2  C   UNL     1     -10.252  18.472  66.395  1.00  0.00    -0.420 C  
HETATM    3  H   UNL     1      -8.773  17.194  66.313  1.00  0.00     0.000 HD 
HETATM    4  O   UNL     1      -8.922  18.091  66.039  1.00  0.00    -0.502 OA 
ENDROOT
BRANCH   2   5
HETATM    5  C   UNL     1     -10.457  18.297  67.905  1.00  0.00    -0.408 C  
BRANCH   5   6
HETATM    6  C   UNL     1      -9.798  19.410  68.717  1.00  0.00    -0.456 C  
HETATM    7  O   UNL     1      -8.385  19.262  68.742  1.00  0.00    -0.361 OA 
HETATM    8  H   UNL     1      -7.976  19.955  69.247  1.00  0.00     0.000 HD 
ENDBRANCH   5   6
ENDBRANCH   2   5
TORSDOF 2
ENDMDL
MODEL       35
REMARK 921   NORMALIZED FREE ENERGY PREDICTED BY IDOCK:   -2.55 KCAL/MOL
REMARK 922        TOTAL FREE ENERGY PREDICTED BY IDOCK:   -2.98 KCAL/MOL
REMARK 923 INTER-LIGAND FREE ENERGY PREDICTED BY IDOCK:   -2.73 KCAL/MOL
REMARK 924 INTRA-LIGAND FREE ENERGY PREDICTED BY IDOCK:   -0.25 KCAL/MOL
REMARK 927      BINDING AFFINITY PREDICTED BY RF-SCORE:    0.00 PKD
ROOT
HETATM    1  C   UNL     1      -7.782  18.993  68.091  1.00  0.00    -0.326 C  
HETATM    2  C   UNL     1      -8.402  19.970  67.102  1.00  0.00    -0.332 C  
HETATM    3  H   UNL     1      -8.420  20.197  65.159  1.00  0.00     0.000 HD 
HETATM    4  O   UNL     1      -8.032  19.588  65.776  1.00  0.00    -0.416 OA 
ENDROOT
BRANCH   2   5
HETATM    5  C   UNL     1      -9.930  20.011  67.225  1.00  0.00    -0.574 C  
BRANCH   5   6
HETATM    6  C   UNL     1     -10.631  19.651  65.916  1.00  0.00    -0.466 C  
HETATM    7  O   UNL     1     -10.556  18.256  65.658  1.00  0.00    -0.614 OA 
HETATM    8  H   UNL     1     -10.991  18.033  64.844  1.00  0.00     0.000 HD 
ENDBRANCH   5   6
ENDBRANCH   2   5
TORSDOF 2
ENDMDL
MODEL       36
REMARK 921   NORMALIZED FREE ENERGY PREDICTED BY IDOCK:   -2.52 KCAL/MOL
REMARK 922        TOTAL FREE ENERGY PREDICTED BY IDOCK:   -2.94 KCAL/MOL
REMARK 923 INTER-LIGAND FREE ENERGY PREDICTED BY IDOCK:   -2.71 KCAL/MOL
REMARK 924 INTRA-LIGAND FREE ENERGY PREDICTED BY IDOCK:   -0.23 KCAL/MOL
REMARK 927      BINDING AFFINITY PREDICTED BY RF-SCORE:    0.00 PKD
ROOT
HETATM    1  C   UNL     1     -12.908  11.315  71.217  1.00  0.00    -0.491 C  
HETATM    2  C   UNL     1     -12.718   9.946  71.855  1.00  0.00    -0.409 C  
HETATM    3  H   UNL     1     -13.730   8.275  71.946  1.00  0.00     0.000 HD 
HETATM    4  O   UNL     1     -13.849   9.129  71.548  1.00  0.00    -0.376 OA 
ENDROOT
BRANCH   2   5
HETATM    5  C   UNL     1     -11.435   9.264  71.367  1.00  0.00    -0.439 C  
BRANCH   5   6
HETATM    6  C   UNL     1     -10.890   8.254  72.375  1.00  0.00    -0.351 C  
HETATM    7  O   UNL     1     -11.928   7.731  73.191  1.00  0.00    -0.644 OA 
HETATM    8  H   UNL     1     -11.589   7.103  73.819  1.00  0.00     0.000 HD 
ENDBRANCH   5   6
ENDBRANCH   2   5
TORSDOF 2
ENDMDL
MODEL       37
REMARK 921   NORMALIZED FREE ENERGY PREDICTED BY IDOCK:   -2.47 KCAL/MOL
REMARK 922        TOTAL FREE ENERGY PREDICTED BY IDOCK:   -2.89 KCAL/MOL
REMARK 923 INTER-LIGAND FREE ENERGY PREDICTED BY IDOCK:   -2.70 KCAL/MOL
REMARK 924 INTRA-LIGAND FREE ENERGY PREDICTED BY IDOCK:   -0.18 KCAL/MOL
REMARK 927      BINDING AFFINITY PREDICTED BY RF-SCORE:    0.00 PKD
ROOT
HETATM    1  C   UNL     1     -11.902   8.102  72.393  1.00  0.00    -0.448 C  
HETATM    2  C   UNL     1     -11.416   9.335  71.645  1.00  0.00    -0.398 C  
HETATM    3  H   UNL     1     -10.226   9.697  70.135  1.00  0.00     0.000 HD 
HETATM    4  O   UNL     1     -10.529   8.927  70.602  1.00  0.00    -0.199 OA 
ENDROOT
BRANCH   2   5
HETATM    5  C   UNL     1     -12.581  10.137  71.052  1.00  0.00    -0.478 C  
BRANCH   5   6
HETATM    6  C   UNL     1     -12.125  11.128  69.984  1.00  0.00    -0.359 C  
HETATM    7  O   UNL     1     -12.374  10.629  68.677  1.00  0.00    -0.820 OA 
HETATM    8  H   UNL     1     -12.090  11.245  68.013  1.00  0.00     0.000 HD 
ENDBRANCH   5   6
ENDBRANCH   2   5
TORSDOF 2
ENDMDL
MODEL       38
REMARK 921   NORMALIZED FREE ENERGY PREDICTED BY IDOCK:   -2.46 KCAL/MOL
REMARK 922        TOTAL FREE ENERGY PREDICTED BY IDOCK:   -2.88 KCAL/MOL
REMARK 923 INTER-LIGAND FREE ENERGY PREDICTED BY IDOCK:   -2.64 KCAL/MOL
REMARK 924 INTRA-LIGAND FREE ENERGY PREDICTED BY IDOCK:   -0.24 KCAL/MOL
REMARK 927      BINDING AFFINITY PREDICTED BY RF-SCORE:    0.00 PKD
ROOT
HETATM    1  C   UNL     1     -11.854   6.878  71.545  1.00  0.00    -0.366 C  
HETATM    2  C   UNL     1     -11.876   8.153  72.377  1.00  0.00    -0.388 C  
HETATM    3  H   UNL     1     -10.863   9.825  72.430  1.00  0.00     0.000 HD 
HETATM    4  O   UNL     1     -10.849   9.029  71.911  1.00  0.00    -0.350 OA 
ENDROOT
BRANCH   2   5
HETATM    5  C   UNL     1     -13.236   8.858  72.302  1.00  0.00    -0.498 C  
BRANCH   5   6
HETATM    6  C   UNL     1     -13.134  10.260  71.704  1.00  0.00    -0.449 C  
HETATM    7  O   UNL     1     -13.144  10.216  70.284  1.00  0.00    -0.586 OA 
HETATM    8  H   UNL     1     -13.081  11.088  69.912  1.00  0.00     0.000 HD 
ENDBRANCH   5   6
ENDBRANCH   2   5
TORSDOF 2
ENDMDL
MODEL       39
REMARK 921   NORMALIZED FREE ENERGY PREDICTED BY IDOCK:   -2.46 KCAL/MOL
REMARK 922        TOTAL FREE ENERGY PREDICTED BY IDOCK:   -2.88 KCAL/MOL
REMARK 923 INTER-LIGAND FREE ENERGY PREDICTED BY IDOCK:   -2.66 KCAL/MOL
REMARK 924 INTRA-LIGAND FREE ENERGY PREDICTED BY IDOCK:   -0.22 KCAL/MOL
REMARK 927      BINDING AFFINITY PREDICTED BY RF-SCORE:    0.00 PKD
ROOT
HETATM    1  C   UNL     1     -12.727   9.163  71.911  1.00  0.00    -0.464 C  
HETATM    2  C   UNL     1     -12.894  10.433  71.087  1.00  0.00    -0.414 C  
HETATM    3  H   UNL     1     -13.357  12.299  71.443  1.00  0.00     0.000 HD 
HETATM    4  O   UNL     1     -13.254  11.507  71.957  1.00  0.00    -0.509 OA 
ENDROOT
BRANCH   2   5
HETATM    5  C   UNL     1     -11.612  10.788  70.324  1.00  0.00    -0.427 C  
BRANCH   5   6
HETATM    6  C   UNL     1     -11.770  12.045  69.471  1.00  0.00    -0.342 C  
HETATM    7  O   UNL     1     -11.743  13.217  70.273  1.00  0.00    -0.502 OA 
HETATM    8  H   UNL     1     -11.841  13.999  69.742  1.00  0.00     0.000 HD 
ENDBRANCH   5   6
ENDBRANCH   2   5
TORSDOF 2
ENDMDL
MODEL       40
REMARK 921   NORMALIZED FREE ENERGY PREDICTED BY IDOCK:   -2.46 KCAL/MOL
REMARK 922        TOTAL FREE ENERGY PREDICTED BY IDOCK:   -2.87 KCAL/MOL
REMARK 923 INTER-LIGAND FREE ENERGY PREDICTED BY IDOCK:   -2.62 KCAL/MOL
REMARK 924 INTRA-LIGAND FREE ENERGY PREDICTED BY IDOCK:   -0.25 KCAL/MOL
REMARK 927      BINDING AFFINITY PREDICTED BY RF-SCORE:    0.00 PKD
ROOT
HETATM    1  C   UNL     1      -9.971  20.165  66.991  1.00  0.00    -0.596 C  
HETATM    2  C   UNL     1     -10.582  18.775  66.892  1.00  0.00    -0.409 C  
HETATM    3  H   UNL     1     -11.117  17.564  65.451  1.00  0.00     0.000 HD 
HETATM    4  O   UNL     1     -10.736  18.432  65.513  1.00  0.00    -0.588 OA 
ENDROOT
BRANCH   2   5
HETATM    5  C   UNL     1      -9.719  17.722  67.596  1.00  0.00    -0.282 C  
BRANCH   5   6
HETATM    6  C   UNL     1      -8.235  17.867  67.264  1.00  0.00    -0.217 C  
HETATM    7  O   UNL     1      -7.966  17.469  65.928  1.00  0.00    -0.527 OA 
HETATM    8  H   UNL     1      -7.042  17.558  65.721  1.00  0.00     0.000 HD 
ENDBRANCH   5   6
ENDBRANCH   2   5
TORSDOF 2
ENDMDL
MODEL       41
REMARK 921   NORMALIZED FREE ENERGY PREDICTED BY IDOCK:   -2.44 KCAL/MOL
REMARK 922        TOTAL FREE ENERGY PREDICTED BY IDOCK:   -2.86 KCAL/MOL
REMARK 923 INTER-LIGAND FREE ENERGY PREDICTED BY IDOCK:   -2.63 KCAL/MOL
REMARK 924 INTRA-LIGAND FREE ENERGY PREDICTED BY IDOCK:   -0.23 KCAL/MOL
REMARK 927      BINDING AFFINITY PREDICTED BY RF-SCORE:    0.00 PKD
ROOT
HETATM    1  C   UNL     1     -13.338  12.595  72.046  1.00  0.00    -0.555 C  
HETATM    2  C   UNL     1     -12.480  11.691  71.172  1.00  0.00    -0.307 C  
HETATM    3  H   UNL     1     -12.727  10.007  70.208  1.00  0.00     0.000 HD 
HETATM    4  O   UNL     1     -13.263  10.571  70.753  1.00  0.00    -0.335 OA 
ENDROOT
BRANCH   2   5
HETATM    5  C   UNL     1     -11.935  12.433  69.947  1.00  0.00    -0.369 C  
BRANCH   5   6
HETATM    6  C   UNL     1     -11.166  11.514  69.001  1.00  0.00    -0.262 C  
HETATM    7  O   UNL     1     -12.046  10.831  68.119  1.00  0.00    -0.802 OA 
HETATM    8  H   UNL     1     -11.567  10.259  67.530  1.00  0.00     0.000 HD 
ENDBRANCH   5   6
ENDBRANCH   2   5
TORSDOF 2
ENDMDL
MODEL       42
REMARK 921   NORMALIZED FREE ENERGY PREDICTED BY IDOCK:   -2.43 KCAL/MOL
REMARK 922        TOTAL FREE ENERGY PREDICTED BY IDOCK:   -2.84 KCAL/MOL
REMARK 923 INTER-LIGAND FREE ENERGY PREDICTED BY IDOCK:   -2.60 KCAL/MOL
REMARK 924 INTRA-LIGAND FREE ENERGY PREDICTED BY IDOCK:   -0.25 KCAL/MOL
REMARK 927      BINDING AFFINITY PREDICTED BY RF-SCORE:    0.00 PKD
ROOT
HETATM    1  C   UNL     1     -11.893  16.035  71.919  1.00  0.00    -0.619 C  
HETATM    2  C   UNL     1     -12.603  15.387  70.739  1.00  0.00    -0.442 C  
HETATM    3  H   UNL     1     -12.522  15.525  68.789  1.00  0.00     0.000 HD 
HETATM    4  O   UNL     1     -12.079  15.930  69.526  1.00  0.00    -0.329 OA 
ENDROOT
BRANCH   2   5
HETATM    5  C   UNL     1     -12.437  13.863  70.742  1.00  0.00    -0.445 C  
BRANCH   5   6
HETATM    6  C   UNL     1     -11.907  13.331  69.412  1.00  0.00    -0.329 C  
HETATM    7  O   UNL     1     -10.510  13.556  69.287  1.00  0.00    -0.434 OA 
HETATM    8  H   UNL     1     -10.181  13.225  68.459  1.00  0.00     0.000 HD 
ENDBRANCH   5   6
ENDBRANCH   2   5
TORSDOF 2
ENDMDL
MODEL       43
REMARK 921   NORMALIZED FREE ENERGY PREDICTED BY IDOCK:   -2.43 KCAL/MOL
REMARK 922        TOTAL FREE ENERGY PREDICTED BY IDOCK:   -2.84 KCAL/MOL
REMARK 923 INTER-LIGAND FREE ENERGY PREDICTED BY IDOCK:   -2.80 KCAL/MOL
REMARK 924 INTRA-LIGAND FREE ENERGY PREDICTED BY IDOCK:   -0.04 KCAL/MOL
REMARK 927      BINDING AFFINITY PREDICTED BY RF-SCORE:    0.00 PKD
ROOT
HETATM    1  C   UNL     1     -10.614  19.873  65.935  1.00  0.00    -0.523 C  
HETATM    2  C   UNL     1     -10.458  18.366  66.076  1.00  0.00    -0.374 C  
HETATM    3  H   UNL     1     -10.830  16.796  64.969  1.00  0.00     0.000 HD 
HETATM    4  O   UNL     1     -10.927  17.737  64.882  1.00  0.00    -0.866 OA 
ENDROOT
BRANCH   2   5
HETATM    5  C   UNL     1      -9.001  17.966  66.336  1.00  0.00    -0.247 C  
BRANCH   5   6
HETATM    6  C   UNL     1      -8.041  19.149  66.217  1.00  0.00    -0.297 C  
HETATM    7  O   UNL     1      -7.005  18.878  65.284  1.00  0.00    -0.494 OA 
HETATM    8  H   UNL     1      -6.408  19.613  65.210  1.00  0.00     0.000 HD 
ENDBRANCH   5   6
ENDBRANCH   2   5
TORSDOF 2
ENDMDL
MODEL       44
REMARK 921   NORMALIZED FREE ENERGY PREDICTED BY IDOCK:   -2.41 KCAL/MOL
REMARK 922        TOTAL FREE ENERGY PREDICTED BY IDOCK:   -2.82 KCAL/MOL
REMARK 923 INTER-LIGAND FREE ENERGY PREDICTED BY IDOCK:   -2.78 KCAL/MOL
REMARK 924 INTRA-LIGAND FREE ENERGY PREDICTED BY IDOCK:   -0.04 KCAL/MOL
REMARK 927      BINDING AFFINITY PREDICTED BY RF-SCORE:    0.00 PKD
ROOT
HETATM    1  C   UNL     1     -12.594  13.844  65.583  1.00  0.00    -0.553 C  
HETATM    2  C   UNL     1     -11.795  13.011  64.589  1.00  0.00    -0.372 C  
HETATM    3  H   UNL     1     -11.946  12.536  62.698  1.00  0.00     0.000 HD 
HETATM    4  O   UNL     1     -12.445  13.056  63.318  1.00  0.00    -0.699 OA 
ENDROOT
BRANCH   2   5
HETATM    5  C   UNL     1     -10.353  13.513  64.456  1.00  0.00    -0.381 C  
BRANCH   5   6
HETATM    6  C   UNL     1     -10.034  14.640  65.436  1.00  0.00    -0.330 C  
HETATM    7  O   UNL     1      -9.007  14.258  66.342  1.00  0.00    -0.448 OA 
HETATM    8  H   UNL     1      -8.809  14.959  66.952  1.00  0.00     0.000 HD 
ENDBRANCH   5   6
ENDBRANCH   2   5
TORSDOF 2
ENDMDL
MODEL       45
REMARK 921   NORMALIZED FREE ENERGY PREDICTED BY IDOCK:   -2.40 KCAL/MOL
REMARK 922        TOTAL FREE ENERGY PREDICTED BY IDOCK:   -2.81 KCAL/MOL
REMARK 923 INTER-LIGAND FREE ENERGY PREDICTED BY IDOCK:   -2.81 KCAL/MOL
REMARK 924 INTRA-LIGAND FREE ENERGY PREDICTED BY IDOCK:   -0.01 KCAL/MOL
REMARK 927      BINDING AFFINITY PREDICTED BY RF-SCORE:    0.00 PKD
ROOT
HETATM    1  C   UNL     1     -10.647  14.023  65.255  1.00  0.00    -0.376 C  
HETATM    2  C   UNL     1     -11.961  13.752  65.974  1.00  0.00    -0.414 C  
HETATM    3  H   UNL     1     -13.280  12.308  66.016  1.00  0.00     0.000 HD 
HETATM    4  O   UNL     1     -12.460  12.477  65.567  1.00  0.00    -0.646 OA 
ENDROOT
BRANCH   2   5
HETATM    5  C   UNL     1     -11.792  13.783  67.498  1.00  0.00    -0.422 C  
BRANCH   5   6
HETATM    6  C   UNL     1     -11.521  15.189  68.027  1.00  0.00    -0.342 C  
HETATM    7  O   UNL     1     -12.477  15.563  69.010  1.00  0.00    -0.607 OA 
HETATM    8  H   UNL     1     -12.308  16.438  69.339  1.00  0.00     0.000 HD 
ENDBRANCH   5   6
ENDBRANCH   2   5
TORSDOF 2
ENDMDL
MODEL       46
REMARK 921   NORMALIZED FREE ENERGY PREDICTED BY IDOCK:   -2.37 KCAL/MOL
REMARK 922        TOTAL FREE ENERGY PREDICTED BY IDOCK:   -2.78 KCAL/MOL
REMARK 923 INTER-LIGAND FREE ENERGY PREDICTED BY IDOCK:   -2.76 KCAL/MOL
REMARK 924 INTRA-LIGAND FREE ENERGY PREDICTED BY IDOCK:   -0.02 KCAL/MOL
REMARK 927      BINDING AFFINITY PREDICTED BY RF-SCORE:    0.00 PKD
ROOT
HETATM    1  C   UNL     1     -12.649  13.709  70.798  1.00  0.00    -0.397 C  
HETATM    2  C   UNL     1     -12.967  12.905  72.051  1.00  0.00    -0.280 C  
HETATM    3  H   UNL     1     -14.391  12.878  73.391  1.00  0.00     0.000 HD 
HETATM    4  O   UNL     1     -14.193  13.380  72.609  1.00  0.00    -0.747 OA 
ENDROOT
BRANCH   2   5
HETATM    5  C   UNL     1     -13.077  11.405  71.752  1.00  0.00    -0.523 C  
BRANCH   5   6
HETATM    6  C   UNL     1     -11.993  10.920  70.792  1.00  0.00    -0.346 C  
HETATM    7  O   UNL     1     -12.435   9.798  70.041  1.00  0.00    -0.464 OA 
HETATM    8  H   UNL     1     -11.761   9.496  69.444  1.00  0.00     0.000 HD 
ENDBRANCH   5   6
ENDBRANCH   2   5
TORSDOF 2
ENDMDL
MODEL       47
REMARK 921   NORMALIZED FREE ENERGY PREDICTED BY IDOCK:   -2.36 KCAL/MOL
REMARK 922        TOTAL FREE ENERGY PREDICTED BY IDOCK:   -2.76 KCAL/MOL
REMARK 923 INTER-LIGAND FREE ENERGY PREDICTED BY IDOCK:   -2.72 KCAL/MOL
REMARK 924 INTRA-LIGAND FREE ENERGY PREDICTED BY IDOCK:   -0.04 KCAL/MOL
REMARK 927      BINDING AFFINITY PREDICTED BY RF-SCORE:    0.00 PKD
ROOT
HETATM    1  C   UNL     1     -12.632  11.573  71.091  1.00  0.00    -0.463 C  
HETATM    2  C   UNL     1     -11.824  11.993  69.871  1.00  0.00    -0.331 C  
HETATM    3  H   UNL     1     -11.835  11.584  67.958  1.00  0.00     0.000 HD 
HETATM    4  O   UNL     1     -12.339  11.322  68.720  1.00  0.00    -0.518 OA 
ENDROOT
BRANCH   2   5
HETATM    5  C   UNL     1     -11.870  13.510  69.654  1.00  0.00    -0.398 C  
BRANCH   5   6
HETATM    6  C   UNL     1     -12.388  14.260  70.879  1.00  0.00    -0.359 C  
HETATM    7  O   UNL     1     -13.497  15.083  70.547  1.00  0.00    -0.654 OA 
HETATM    8  H   UNL     1     -13.820  15.550  71.309  1.00  0.00     0.000 HD 
ENDBRANCH   5   6
ENDBRANCH   2   5
TORSDOF 2
ENDMDL
MODEL       48
REMARK 921   NORMALIZED FREE ENERGY PREDICTED BY IDOCK:   -2.35 KCAL/MOL
REMARK 922        TOTAL FREE ENERGY PREDICTED BY IDOCK:   -2.76 KCAL/MOL
REMARK 923 INTER-LIGAND FREE ENERGY PREDICTED BY IDOCK:   -2.75 KCAL/MOL
REMARK 924 INTRA-LIGAND FREE ENERGY PREDICTED BY IDOCK:   -0.01 KCAL/MOL
REMARK 927      BINDING AFFINITY PREDICTED BY RF-SCORE:    0.00 PKD
ROOT
HETATM    1  C   UNL     1     -11.397   6.320  69.603  1.00  0.00    -0.492 C  
HETATM    2  C   UNL     1     -11.331   6.462  71.117  1.00  0.00    -0.319 C  
HETATM    3  H   UNL     1     -10.176   7.376  72.404  1.00  0.00     0.000 HD 
HETATM    4  O   UNL     1     -10.217   7.287  71.459  1.00  0.00    -0.194 OA 
ENDROOT
BRANCH   2   5
HETATM    5  C   UNL     1     -12.620   7.064  71.688  1.00  0.00    -0.419 C  
BRANCH   5   6
HETATM    6  C   UNL     1     -12.380   8.400  72.388  1.00  0.00    -0.351 C  
HETATM    7  O   UNL     1     -13.539   8.829  73.090  1.00  0.00    -0.970 OA 
HETATM    8  H   UNL     1     -13.389   9.660  73.525  1.00  0.00     0.000 HD 
ENDBRANCH   5   6
ENDBRANCH   2   5
TORSDOF 2
ENDMDL
MODEL       49
REMARK 921   NORMALIZED FREE ENERGY PREDICTED BY IDOCK:   -2.35 KCAL/MOL
REMARK 922        TOTAL FREE ENERGY PREDICTED BY IDOCK:   -2.76 KCAL/MOL
REMARK 923 INTER-LIGAND FREE ENERGY PREDICTED BY IDOCK:   -2.53 KCAL/MOL
REMARK 924 INTRA-LIGAND FREE ENERGY PREDICTED BY IDOCK:   -0.23 KCAL/MOL
REMARK 927      BINDING AFFINITY PREDICTED BY RF-SCORE:    0.00 PKD
ROOT
HETATM    1  C   UNL     1     -11.684  12.854  68.221  1.00  0.00    -0.390 C  
HETATM    2  C   UNL     1     -11.103  12.442  66.876  1.00  0.00    -0.287 C  
HETATM    3  H   UNL     1     -11.803  12.068  65.088  1.00  0.00     0.000 HD 
HETATM    4  O   UNL     1     -12.165  12.325  65.928  1.00  0.00    -0.634 OA 
ENDROOT
BRANCH   2   5
HETATM    5  C   UNL     1     -10.064  13.451  66.372  1.00  0.00    -0.292 C  
BRANCH   5   6
HETATM    6  C   UNL     1     -10.670  14.497  65.439  1.00  0.00    -0.361 C  
HETATM    7  O   UNL     1     -10.713  14.028  64.098  1.00  0.00    -0.565 OA 
HETATM    8  H   UNL     1     -11.089  14.679  63.518  1.00  0.00     0.000 HD 
ENDBRANCH   5   6
ENDBRANCH   2   5
TORSDOF 2
ENDMDL
MODEL       50
REMARK 921   NORMALIZED FREE ENERGY PREDICTED BY IDOCK:   -2.34 KCAL/MOL
REMARK 922        TOTAL FREE ENERGY PREDICTED BY IDOCK:   -2.74 KCAL/MOL
REMARK 923 INTER-LIGAND FREE ENERGY PREDICTED BY IDOCK:   -2.51 KCAL/MOL
REMARK 924 INTRA-LIGAND FREE ENERGY PREDICTED BY IDOCK:   -0.22 KCAL/MOL
REMARK 927      BINDING AFFINITY PREDICTED BY RF-SCORE:    0.00 PKD
ROOT
HETATM    1  C   UNL     1      -9.449  13.916  66.613  1.00  0.00    -0.296 C  
HETATM    2  C   UNL     1     -10.615  14.815  66.227  1.00  0.00    -0.305 C  
HETATM    3  H   UNL     1     -11.387  15.494  64.563  1.00  0.00     0.000 HD 
HETATM    4  O   UNL     1     -10.659  14.933  64.804  1.00  0.00    -0.407 OA 
ENDROOT
BRANCH   2   5
HETATM    5  C   UNL     1     -11.950  14.270  66.747  1.00  0.00    -0.462 C  
BRANCH   5   6
HETATM    6  C   UNL     1     -12.862  13.788  65.620  1.00  0.00    -0.408 C  
HETATM    7  O   UNL     1     -12.546  12.457  65.237  1.00  0.00    -0.636 OA 
HETATM    8  H   UNL     1     -13.114  12.157  64.536  1.00  0.00     0.000 HD 
ENDBRANCH   5   6
ENDBRANCH   2   5
TORSDOF 2
ENDMDL
MODEL       51
REMARK 921   NORMALIZED FREE ENERGY PREDICTED BY IDOCK:   -2.32 KCAL/MOL
REMARK 922        TOTAL FREE ENERGY PREDICTED BY IDOCK:   -2.72 KCAL/MOL
REMARK 923 INTER-LIGAND FREE ENERGY PREDICTED BY IDOCK:   -2.49 KCAL/MOL
REMARK 924 INTRA-LIGAND FREE ENERGY PREDICTED BY IDOCK:   -0.24 KCAL/MOL
REMARK 927      BINDING AFFINITY PREDICTED BY RF-SCORE:    0.00 PKD
ROOT
HETATM    1  C   UNL     1      -7.682  19.389  68.635  1.00  0.00    -0.394 C  
HETATM    2  C   UNL     1      -8.932  18.601  68.271  1.00  0.00    -0.318 C  
HETATM    3  H   UNL     1     -10.864  18.841  68.470  1.00  0.00     0.000 HD 
HETATM    4  O   UNL     1     -10.083  19.333  68.697  1.00  0.00    -0.406 OA 
ENDROOT
BRANCH   2   5
HETATM    5  C   UNL     1      -9.016  18.331  66.764  1.00  0.00    -0.289 C  
BRANCH   5   6
HETATM    6  C   UNL     1     -10.114  19.146  66.085  1.00  0.00    -0.426 C  
HETATM    7  O   UNL     1      -9.692  20.482  65.848  1.00  0.00    -0.653 OA 
HETATM    8  H   UNL     1     -10.375  20.989  65.425  1.00  0.00     0.000 HD 
ENDBRANCH   5   6
ENDBRANCH   2   5
TORSDOF 2
ENDMDL
MODEL       52
REMARK 921   NORMALIZED FREE ENERGY PREDICTED BY IDOCK:   -2.32 KCAL/MOL
REMARK 922        TOTAL FREE ENERGY PREDICTED BY IDOCK:   -2.72 KCAL/MOL
REMARK 923 INTER-LIGAND FREE ENERGY PREDICTED BY IDOCK:   -2.50 KCAL/MOL
REMARK 924 INTRA-LIGAND FREE ENERGY PREDICTED BY IDOCK:   -0.22 KCAL/MOL
REMARK 927      BINDING AFFINITY PREDICTED BY RF-SCORE:    0.00 PKD
ROOT
HETATM    1  C   UNL     1      -9.812  19.980  66.567  1.00  0.00    -0.581 C  
HETATM    2  C   UNL     1     -10.244  18.529  66.727  1.00  0.00    -0.393 C  
HETATM    3  H   UNL     1      -9.804  16.821  65.881  1.00  0.00     0.000 HD 
HETATM    4  O   UNL     1      -9.535  17.726  65.781  1.00  0.00    -0.518 OA 
ENDROOT
BRANCH   2   5
HETATM    5  C   UNL     1      -9.985  18.011  68.146  1.00  0.00    -0.356 C  
BRANCH   5   6
HETATM    6  C   UNL     1     -10.856  16.806  68.496  1.00  0.00    -0.345 C  
HETATM    7  O   UNL     1     -10.769  15.801  67.495  1.00  0.00    -0.306 OA 
HETATM    8  H   UNL     1     -11.310  15.051  67.713  1.00  0.00     0.000 HD 
ENDBRANCH   5   6
ENDBRANCH   2   5
TORSDOF 2
ENDMDL
MODEL       53
REMARK 921   NORMALIZED FREE ENERGY PREDICTED BY IDOCK:   -2.32 KCAL/MOL
REMARK 922        TOTAL FREE ENERGY PREDICTED BY IDOCK:   -2.72 KCAL/MOL
REMARK 923 INTER-LIGAND FREE ENERGY PREDICTED BY IDOCK:   -2.51 KCAL/MOL
REMARK 924 INTRA-LIGAND FREE ENERGY PREDICTED BY IDOCK:   -0.20 KCAL/MOL
REMARK 927      BINDING AFFINITY PREDICTED BY RF-SCORE:    0.00 PKD
ROOT
HETATM    1  C   UNL     1     -10.613  19.575  66.733  1.00  0.00    -0.597 C  
HETATM    2  C   UNL     1      -9.954  18.712  67.801  1.00  0.00    -0.346 C  
HETATM    3  H   UNL     1      -9.674  18.821  69.733  1.00  0.00     0.000 HD 
HETATM    4  O   UNL     1     -10.085  19.360  69.067  1.00  0.00    -0.430 OA 
ENDROOT
BRANCH   2   5
HETATM    5  C   UNL     1     -10.576  17.313  67.864  1.00  0.00    -0.384 C  
BRANCH   5   6
HETATM    6  C   UNL     1     -10.168  16.549  69.123  1.00  0.00    -0.298 C  
HETATM    7  O   UNL     1     -11.165  16.647  70.130  1.00  0.00    -0.459 OA 
HETATM    8  H   UNL     1     -10.911  16.172  70.913  1.00  0.00     0.000 HD 
ENDBRANCH   5   6
ENDBRANCH   2   5
TORSDOF 2
ENDMDL
MODEL       54
REMARK 921   NORMALIZED FREE ENERGY PREDICTED BY IDOCK:   -2.31 KCAL/MOL
REMARK 922        TOTAL FREE ENERGY PREDICTED BY IDOCK:   -2.71 KCAL/MOL
REMARK 923 INTER-LIGAND FREE ENERGY PREDICTED BY IDOCK:   -2.48 KCAL/MOL
REMARK 924 INTRA-LIGAND FREE ENERGY PREDICTED BY IDOCK:   -0.23 KCAL/MOL
REMARK 927      BINDING AFFINITY PREDICTED BY RF-SCORE:    0.00 PKD
ROOT
HETATM    1  C   UNL     1     -10.628  19.452  66.576  1.00  0.00    -0.554 C  
HETATM    2  C   UNL     1      -9.811  20.260  67.574  1.00  0.00    -0.436 C  
HETATM    3  H   UNL     1      -9.572  20.283  69.516  1.00  0.00     0.000 HD 
HETATM    4  O   UNL     1     -10.082  19.780  68.892  1.00  0.00    -0.455 OA 
ENDROOT
BRANCH   2   5
HETATM    5  C   UNL     1      -8.308  20.169  67.286  1.00  0.00    -0.394 C  
BRANCH   5   6
HETATM    6  C   UNL     1      -7.596  19.179  68.206  1.00  0.00    -0.304 C  
HETATM    7  O   UNL     1      -7.189  19.803  69.416  1.00  0.00    -0.338 OA 
HETATM    8  H   UNL     1      -6.745  19.187  69.988  1.00  0.00     0.000 HD 
ENDBRANCH   5   6
ENDBRANCH   2   5
TORSDOF 2
ENDMDL
MODEL       55
REMARK 921   NORMALIZED FREE ENERGY PREDICTED BY IDOCK:   -2.29 KCAL/MOL
REMARK 922        TOTAL FREE ENERGY PREDICTED BY IDOCK:   -2.68 KCAL/MOL
REMARK 923 INTER-LIGAND FREE ENERGY PREDICTED BY IDOCK:   -2.49 KCAL/MOL
REMARK 924 INTRA-LIGAND FREE ENERGY PREDICTED BY IDOCK:   -0.19 KCAL/MOL
REMARK 927      BINDING AFFINITY PREDICTED BY RF-SCORE:    0.00 PKD
ROOT
HETATM    1  C   UNL     1      -9.865  16.080  68.429  1.00  0.00    -0.213 C  
HETATM    2  C   UNL     1     -11.323  15.899  68.827  1.00  0.00    -0.378 C  
HETATM    3  H   UNL     1     -12.661  14.479  68.687  1.00  0.00     0.000 HD 
HETATM    4  O   UNL     1     -11.751  14.593  68.438  1.00  0.00    -0.304 OA 
ENDROOT
BRANCH   2   5
HETATM    5  C   UNL     1     -11.529  16.087  70.334  1.00  0.00    -0.392 C  
BRANCH   5   6
HETATM    6  C   UNL     1     -12.561  15.119  70.908  1.00  0.00    -0.379 C  
HETATM    7  O   UNL     1     -13.882  15.506  70.556  1.00  0.00    -0.827 OA 
HETATM    8  H   UNL     1     -14.524  14.904  70.913  1.00  0.00     0.000 HD 
ENDBRANCH   5   6
ENDBRANCH   2   5
TORSDOF 2
ENDMDL
MODEL       56
REMARK 921   NORMALIZED FREE ENERGY PREDICTED BY IDOCK:   -2.28 KCAL/MOL
REMARK 922        TOTAL FREE ENERGY PREDICTED BY IDOCK:   -2.68 KCAL/MOL
REMARK 923 INTER-LIGAND FREE ENERGY PREDICTED BY IDOCK:   -2.43 KCAL/MOL
REMARK 924 INTRA-LIGAND FREE ENERGY PREDICTED BY IDOCK:   -0.25 KCAL/MOL
REMARK 927      BINDING AFFINITY PREDICTED BY RF-SCORE:    0.00 PKD
ROOT
HETATM    1  C   UNL     1     -10.026  12.390  68.211  1.00  0.00    -0.224 C  
HETATM    2  C   UNL     1     -10.855  11.759  67.102  1.00  0.00    -0.258 C  
HETATM    3  H   UNL     1     -12.667  11.043  66.923  1.00  0.00     0.000 HD 
HETATM    4  O   UNL     1     -12.149  11.436  67.615  1.00  0.00    -0.630 OA 
ENDROOT
BRANCH   2   5
HETATM    5  C   UNL     1     -10.993  12.692  65.894  1.00  0.00    -0.310 C  
BRANCH   5   6
HETATM    6  C   UNL     1     -12.396  13.282  65.767  1.00  0.00    -0.447 C  
HETATM    7  O   UNL     1     -12.607  14.318  66.716  1.00  0.00    -0.563 OA 
HETATM    8  H   UNL     1     -13.480  14.684  66.638  1.00  0.00     0.000 HD 
ENDBRANCH   5   6
ENDBRANCH   2   5
TORSDOF 2
ENDMDL
MODEL       57
REMARK 921   NORMALIZED FREE ENERGY PREDICTED BY IDOCK:   -2.22 KCAL/MOL
REMARK 922        TOTAL FREE ENERGY PREDICTED BY IDOCK:   -2.60 KCAL/MOL
REMARK 923 INTER-LIGAND FREE ENERGY PREDICTED BY IDOCK:   -2.38 KCAL/MOL
REMARK 924 INTRA-LIGAND FREE ENERGY PREDICTED BY IDOCK:   -0.23 KCAL/MOL
REMARK 927      BINDING AFFINITY PREDICTED BY RF-SCORE:    0.00 PKD
ROOT
HETATM    1  C   UNL     1     -10.146   9.912  67.554  1.00  0.00    -0.244 C  
HETATM    2  C   UNL     1     -10.826  10.988  68.390  1.00  0.00    -0.220 C  
HETATM    3  H   UNL     1     -12.500  11.997  68.306  1.00  0.00     0.000 HD 
HETATM    4  O   UNL     1     -12.075  11.326  67.785  1.00  0.00    -0.631 OA 
ENDROOT
BRANCH   2   5
HETATM    5  C   UNL     1     -11.056  10.526  69.834  1.00  0.00    -0.371 C  
BRANCH   5   6
HETATM    6  C   UNL     1     -12.114  11.360  70.553  1.00  0.00    -0.394 C  
HETATM    7  O   UNL     1     -11.892  12.750  70.360  1.00  0.00    -0.516 OA 
HETATM    8  H   UNL     1     -12.550  13.269  70.808  1.00  0.00     0.000 HD 
ENDBRANCH   5   6
ENDBRANCH   2   5
TORSDOF 2
ENDMDL
MODEL       58
REMARK 921   NORMALIZED FREE ENERGY PREDICTED BY IDOCK:   -2.21 KCAL/MOL
REMARK 922        TOTAL FREE ENERGY PREDICTED BY IDOCK:   -2.60 KCAL/MOL
REMARK 923 INTER-LIGAND FREE ENERGY PREDICTED BY IDOCK:   -2.36 KCAL/MOL
REMARK 924 INTRA-LIGAND FREE ENERGY PREDICTED BY IDOCK:   -0.24 KCAL/MOL
REMARK 927      BINDING AFFINITY PREDICTED BY RF-SCORE:    0.00 PKD
ROOT
HETATM    1  C   UNL     1      -6.839  18.685  66.730  1.00  0.00    -0.213 C  
HETATM    2  C   UNL     1      -8.302  18.818  66.332  1.00  0.00    -0.280 C  
HETATM    3  H   UNL     1      -9.669  17.653  65.557  1.00  0.00     0.000 HD 
HETATM    4  O   UNL     1      -8.755  17.570  65.804  1.00  0.00    -0.514 OA 
ENDROOT
BRANCH   2   5
HETATM    5  C   UNL     1      -9.180  19.230  67.520  1.00  0.00    -0.357 C  
BRANCH   5   6
HETATM    6  C   UNL     1     -10.620  19.524  67.108  1.00  0.00    -0.487 C  
HETATM    7  O   UNL     1     -10.724  19.726  65.706  1.00  0.00    -0.512 OA 
HETATM    8  H   UNL     1     -11.620  19.910  65.449  1.00  0.00     0.000 HD 
ENDBRANCH   5   6
ENDBRANCH   2   5
TORSDOF 2
ENDMDL
MODEL       59
REMARK 921   NORMALIZED FREE ENERGY PREDICTED BY IDOCK:   -2.20 KCAL/MOL
REMARK 922        TOTAL FREE ENERGY PREDICTED BY IDOCK:   -2.59 KCAL/MOL
REMARK 923 INTER-LIGAND FREE ENERGY PREDICTED BY IDOCK:   -2.36 KCAL/MOL
REMARK 924 INTRA-LIGAND FREE ENERGY PREDICTED BY IDOCK:   -0.23 KCAL/MOL
REMARK 927      BINDING AFFINITY PREDICTED BY RF-SCORE:    0.00 PKD
ROOT
HETATM    1  C   UNL     1     -10.482  16.321  67.833  1.00  0.00    -0.295 C  
HETATM    2  C   UNL     1     -10.939  15.799  66.478  1.00  0.00    -0.165 C  
HETATM    3  H   UNL     1     -10.633  16.270  64.604  1.00  0.00     0.000 HD 
HETATM    4  O   UNL     1     -10.348  16.596  65.450  1.00  0.00    -0.584 OA 
ENDROOT
BRANCH   2   5
HETATM    5  C   UNL     1     -10.560  14.327  66.278  1.00  0.00    -0.291 C  
BRANCH   5   6
HETATM    6  C   UNL     1     -10.555  13.919  64.806  1.00  0.00    -0.426 C  
HETATM    7  O   UNL     1     -11.748  14.331  64.154  1.00  0.00    -0.597 OA 
HETATM    8  H   UNL     1     -11.745  14.077  63.238  1.00  0.00     0.000 HD 
ENDBRANCH   5   6
ENDBRANCH   2   5
TORSDOF 2
ENDMDL
MODEL       60
REMARK 921   NORMALIZED FREE ENERGY PREDICTED BY IDOCK:   -2.19 KCAL/MOL
REMARK 922        TOTAL FREE ENERGY PREDICTED BY IDOCK:   -2.57 KCAL/MOL
REMARK 923 INTER-LIGAND FREE ENERGY PREDICTED BY IDOCK:   -2.35 KCAL/MOL
REMARK 924 INTRA-LIGAND FREE ENERGY PREDICTED BY IDOCK:   -0.22 KCAL/MOL
REMARK 927      BINDING AFFINITY PREDICTED BY RF-SCORE:    0.00 PKD
ROOT
HETATM    1  C   UNL     1      -6.460  18.686  69.241  1.00  0.00    -0.289 C  
HETATM    2  C   UNL     1      -7.558  19.677  68.884  1.00  0.00    -0.309 C  
HETATM    3  H   UNL     1      -7.717  21.268  67.757  1.00  0.00     0.000 HD 
HETATM    4  O   UNL     1      -7.031  20.650  67.980  1.00  0.00    -0.293 OA 
ENDROOT
BRANCH   2   5
HETATM    5  C   UNL     1      -8.769  18.981  68.253  1.00  0.00    -0.366 C  
BRANCH   5   6
HETATM    6  C   UNL     1      -9.967  19.916  68.102  1.00  0.00    -0.427 C  
HETATM    7  O   UNL     1      -9.755  20.861  67.063  1.00  0.00    -0.664 OA 
HETATM    8  H   UNL     1     -10.500  21.443  66.969  1.00  0.00     0.000 HD 
ENDBRANCH   5   6
ENDBRANCH   2   5
TORSDOF 2
ENDMDL
MODEL       61
REMARK 921   NORMALIZED FREE ENERGY PREDICTED BY IDOCK:   -2.18 KCAL/MOL
REMARK 922        TOTAL FREE ENERGY PREDICTED BY IDOCK:   -2.57 KCAL/MOL
REMARK 923 INTER-LIGAND FREE ENERGY PREDICTED BY IDOCK:   -2.56 KCAL/MOL
REMARK 924 INTRA-LIGAND FREE ENERGY PREDICTED BY IDOCK:   -0.01 KCAL/MOL
REMARK 927      BINDING AFFINITY PREDICTED BY RF-SCORE:    0.00 PKD
ROOT
HETATM    1  C   UNL     1     -12.098  15.077  73.064  1.00  0.00    -0.427 C  
HETATM    2  C   UNL     1     -13.342  14.410  72.495  1.00  0.00    -0.486 C  
HETATM    3  H   UNL     1     -14.985  15.000  71.611  1.00  0.00     0.000 HD 
HETATM    4  O   UNL     1     -14.208  15.416  71.966  1.00  0.00    -0.514 OA 
ENDROOT
BRANCH   2   5
HETATM    5  C   UNL     1     -12.994  13.395  71.400  1.00  0.00    -0.412 C  
BRANCH   5   6
HETATM    6  C   UNL     1     -13.100  11.951  71.887  1.00  0.00    -0.369 C  
HETATM    7  O   UNL     1     -12.678  11.037  70.885  1.00  0.00    -0.354 OA 
HETATM    8  H   UNL     1     -12.745  10.139  71.187  1.00  0.00     0.000 HD 
ENDBRANCH   5   6
ENDBRANCH   2   5
TORSDOF 2
ENDMDL
MODEL       62
REMARK 921   NORMALIZED FREE ENERGY PREDICTED BY IDOCK:   -2.16 KCAL/MOL
REMARK 922        TOTAL FREE ENERGY PREDICTED BY IDOCK:   -2.54 KCAL/MOL
REMARK 923 INTER-LIGAND FREE ENERGY PREDICTED BY IDOCK:   -2.30 KCAL/MOL
REMARK 924 INTRA-LIGAND FREE ENERGY PREDICTED BY IDOCK:   -0.24 KCAL/MOL
REMARK 927      BINDING AFFINITY PREDICTED BY RF-SCORE:    0.00 PKD
ROOT
HETATM    1  C   UNL     1     -10.085   8.366  72.282  1.00  0.00    -0.382 C  
HETATM    2  C   UNL     1     -11.274   8.626  71.368  1.00  0.00    -0.277 C  
HETATM    3  H   UNL     1     -12.180   7.674  69.919  1.00  0.00     0.000 HD 
HETATM    4  O   UNL     1     -11.437   7.512  70.489  1.00  0.00    -0.280 OA 
ENDROOT
BRANCH   2   5
HETATM    5  C   UNL     1     -12.564   8.854  72.165  1.00  0.00    -0.467 C  
BRANCH   5   6
HETATM    6  C   UNL     1     -13.743   8.057  71.609  1.00  0.00    -0.356 C  
HETATM    7  O   UNL     1     -13.766   6.738  72.135  1.00  0.00    -0.540 OA 
HETATM    8  H   UNL     1     -14.499   6.242  71.788  1.00  0.00     0.000 HD 
ENDBRANCH   5   6
ENDBRANCH   2   5
TORSDOF 2
ENDMDL
MODEL       63
REMARK 921   NORMALIZED FREE ENERGY PREDICTED BY IDOCK:   -2.16 KCAL/MOL
REMARK 922        TOTAL FREE ENERGY PREDICTED BY IDOCK:   -2.54 KCAL/MOL
REMARK 923 INTER-LIGAND FREE ENERGY PREDICTED BY IDOCK:   -2.32 KCAL/MOL
REMARK 924 INTRA-LIGAND FREE ENERGY PREDICTED BY IDOCK:   -0.22 KCAL/MOL
REMARK 927      BINDING AFFINITY PREDICTED BY RF-SCORE:    0.00 PKD
ROOT
HETATM    1  C   UNL     1      -9.993   4.833  70.549  1.00  0.00    -0.306 C  
HETATM    2  C   UNL     1     -10.760   6.148  70.537  1.00  0.00    -0.278 C  
HETATM    3  H   UNL     1     -12.000   7.051  69.324  1.00  0.00     0.000 HD 
HETATM    4  O   UNL     1     -11.521   6.231  69.331  1.00  0.00    -0.427 OA 
ENDROOT
BRANCH   2   5
HETATM    5  C   UNL     1     -11.690   6.275  71.750  1.00  0.00    -0.355 C  
BRANCH   5   6
HETATM    6  C   UNL     1     -12.528   7.551  71.711  1.00  0.00    -0.330 C  
HETATM    7  O   UNL     1     -13.740   7.350  70.997  1.00  0.00    -0.621 OA 
HETATM    8  H   UNL     1     -14.261   8.144  70.973  1.00  0.00     0.000 HD 
ENDBRANCH   5   6
ENDBRANCH   2   5
TORSDOF 2
ENDMDL
MODEL       64
REMARK 921   NORMALIZED FREE ENERGY PREDICTED BY IDOCK:   -2.11 KCAL/MOL
REMARK 922        TOTAL FREE ENERGY PREDICTED BY IDOCK:   -2.49 KCAL/MOL
REMARK 923 INTER-LIGAND FREE ENERGY PREDICTED BY IDOCK:   -2.26 KCAL/MOL
REMARK 924 INTRA-LIGAND FREE ENERGY PREDICTED BY IDOCK:   -0.22 KCAL/MOL
REMARK 927      BINDING AFFINITY PREDICTED BY RF-SCORE:    0.00 PKD
ROOT
HETATM    1  C   UNL     1     -11.164   6.218  70.433  1.00  0.00    -0.439 C  
HETATM    2  C   UNL     1     -12.099   7.344  70.848  1.00  0.00    -0.257 C  
HETATM    3  H   UNL     1     -13.722   7.510  71.928  1.00  0.00     0.000 HD 
HETATM    4  O   UNL     1     -13.138   6.807  71.669  1.00  0.00    -0.328 OA 
ENDROOT
BRANCH   2   5
HETATM    5  C   UNL     1     -11.356   8.450  71.606  1.00  0.00    -0.349 C  
BRANCH   5   6
HETATM    6  C   UNL     1     -10.437   7.898  72.693  1.00  0.00    -0.320 C  
HETATM    7  O   UNL     1     -11.179   7.229  73.703  1.00  0.00    -0.570 OA 
HETATM    8  H   UNL     1     -10.607   6.886  74.380  1.00  0.00     0.000 HD 
ENDBRANCH   5   6
ENDBRANCH   2   5
TORSDOF 2
ENDMDL
MODEL       65
REMARK 921   NORMALIZED FREE ENERGY PREDICTED BY IDOCK:   -2.10 KCAL/MOL
REMARK 922        TOTAL FREE ENERGY PREDICTED BY IDOCK:   -2.47 KCAL/MOL
REMARK 923 INTER-LIGAND FREE ENERGY PREDICTED BY IDOCK:   -2.25 KCAL/MOL
REMARK 924 INTRA-LIGAND FREE ENERGY PREDICTED BY IDOCK:   -0.22 KCAL/MOL
REMARK 927      BINDING AFFINITY PREDICTED BY RF-SCORE:    0.00 PKD
ROOT
HETATM    1  C   UNL     1     -11.705  11.820  68.199  1.00  0.00    -0.377 C  
HETATM    2  C   UNL     1     -11.685  10.849  69.371  1.00  0.00    -0.325 C  
HETATM    3  H   UNL     1     -10.317   9.908  70.406  1.00  0.00     0.000 HD 
HETATM    4  O   UNL     1     -10.330  10.514  69.674  1.00  0.00    -0.231 OA 
ENDROOT
BRANCH   2   5
HETATM    5  C   UNL     1     -12.364  11.441  70.612  1.00  0.00    -0.466 C  
BRANCH   5   6
HETATM    6  C   UNL     1     -12.833  10.366  71.590  1.00  0.00    -0.474 C  
HETATM    7  O   UNL     1     -11.789   9.449  71.886  1.00  0.00    -0.373 OA 
HETATM    8  H   UNL     1     -12.081   8.780  72.494  1.00  0.00     0.000 HD 
ENDBRANCH   5   6
ENDBRANCH   2   5
TORSDOF 2
ENDMDL
MODEL       66
REMARK 921   NORMALIZED FREE ENERGY PREDICTED BY IDOCK:   -2.08 KCAL/MOL
REMARK 922        TOTAL FREE ENERGY PREDICTED BY IDOCK:   -2.45 KCAL/MOL
REMARK 923 INTER-LIGAND FREE ENERGY PREDICTED BY IDOCK:   -2.22 KCAL/MOL
REMARK 924 INTRA-LIGAND FREE ENERGY PREDICTED BY IDOCK:   -0.23 KCAL/MOL
REMARK 927      BINDING AFFINITY PREDICTED BY RF-SCORE:    0.00 PKD
ROOT
HETATM    1  C   UNL     1     -13.744   9.172  72.236  1.00  0.00    -0.548 C  
HETATM    2  C   UNL     1     -12.413   8.437  72.175  1.00  0.00    -0.370 C  
HETATM    3  H   UNL     1     -11.747   6.781  71.373  1.00  0.00     0.000 HD 
HETATM    4  O   UNL     1     -12.578   7.240  71.412  1.00  0.00    -0.355 OA 
ENDROOT
BRANCH   2   5
HETATM    5  C   UNL     1     -11.313   9.304  71.552  1.00  0.00    -0.455 C  
BRANCH   5   6
HETATM    6  C   UNL     1      -9.915   8.736  71.794  1.00  0.00    -0.326 C  
HETATM    7  O   UNL     1      -9.699   7.557  71.031  1.00  0.00    -0.168 OA 
HETATM    8  H   UNL     1      -8.830   7.204  71.182  1.00  0.00     0.000 HD 
ENDBRANCH   5   6
ENDBRANCH   2   5
TORSDOF 2
ENDMDL
MODEL       67
REMARK 921   NORMALIZED FREE ENERGY PREDICTED BY IDOCK:   -2.07 KCAL/MOL
REMARK 922        TOTAL FREE ENERGY PREDICTED BY IDOCK:   -2.44 KCAL/MOL
REMARK 923 INTER-LIGAND FREE ENERGY PREDICTED BY IDOCK:   -2.27 KCAL/MOL
REMARK 924 INTRA-LIGAND FREE ENERGY PREDICTED BY IDOCK:   -0.17 KCAL/MOL
REMARK 927      BINDING AFFINITY PREDICTED BY RF-SCORE:    0.00 PKD
ROOT
HETATM    1  C   UNL     1     -10.647  18.926  66.568  1.00  0.00    -0.462 C  
HETATM    2  C   UNL     1      -9.429  19.615  67.167  1.00  0.00    -0.340 C  
HETATM    3  H   UNL     1      -8.175  19.257  68.625  1.00  0.00     0.000 HD 
HETATM    4  O   UNL     1      -8.936  18.827  68.252  1.00  0.00    -0.304 OA 
ENDROOT
BRANCH   2   5
HETATM    5  C   UNL     1      -8.322  19.819  66.126  1.00  0.00    -0.368 C  
BRANCH   5   6
HETATM    6  C   UNL     1      -7.251  18.733  66.193  1.00  0.00    -0.263 C  
HETATM    7  O   UNL     1      -7.749  17.488  65.721  1.00  0.00    -0.530 OA 
HETATM    8  H   UNL     1      -7.082  16.813  65.763  1.00  0.00     0.000 HD 
ENDBRANCH   5   6
ENDBRANCH   2   5
TORSDOF 2
ENDMDL
MODEL       68
REMARK 921   NORMALIZED FREE ENERGY PREDICTED BY IDOCK:   -2.04 KCAL/MOL
REMARK 922        TOTAL FREE ENERGY PREDICTED BY IDOCK:   -2.41 KCAL/MOL
REMARK 923 INTER-LIGAND FREE ENERGY PREDICTED BY IDOCK:   -2.16 KCAL/MOL
REMARK 924 INTRA-LIGAND FREE ENERGY PREDICTED BY IDOCK:   -0.25 KCAL/MOL
REMARK 927      BINDING AFFINITY PREDICTED BY RF-SCORE:    0.00 PKD
ROOT
HETATM    1  C   UNL     1     -10.799  12.252  68.237  1.00  0.00    -0.254 C  
HETATM    2  C   UNL     1     -10.866  13.678  67.709  1.00  0.00    -0.253 C  
HETATM    3  H   UNL     1     -12.198  14.792  66.808  1.00  0.00     0.000 HD 
HETATM    4  O   UNL     1     -12.156  13.902  67.138  1.00  0.00    -0.407 OA 
ENDROOT
BRANCH   2   5
HETATM    5  C   UNL     1     -10.600  14.706  68.815  1.00  0.00    -0.248 C  
BRANCH   5   6
HETATM    6  C   UNL     1     -11.764  15.677  69.000  1.00  0.00    -0.395 C  
HETATM    7  O   UNL     1     -12.797  15.099  69.785  1.00  0.00    -0.603 OA 
HETATM    8  H   UNL     1     -13.522  15.703  69.901  1.00  0.00     0.000 HD 
ENDBRANCH   5   6
ENDBRANCH   2   5
TORSDOF 2
ENDMDL
MODEL       69
REMARK 921   NORMALIZED FREE ENERGY PREDICTED BY IDOCK:   -2.04 KCAL/MOL
REMARK 922        TOTAL FREE ENERGY PREDICTED BY IDOCK:   -2.41 KCAL/MOL
REMARK 923 INTER-LIGAND FREE ENERGY PREDICTED BY IDOCK:   -2.17 KCAL/MOL
REMARK 924 INTRA-LIGAND FREE ENERGY PREDICTED BY IDOCK:   -0.23 KCAL/MOL
REMARK 927      BINDING AFFINITY PREDICTED BY RF-SCORE:    0.00 PKD
ROOT
HETATM    1  C   UNL     1      -6.841  20.076  65.457  1.00  0.00    -0.332 C  
HETATM    2  C   UNL     1      -8.250  19.817  65.970  1.00  0.00    -0.311 C  
HETATM    3  H   UNL     1      -9.411  18.258  66.192  1.00  0.00     0.000 HD 
HETATM    4  O   UNL     1      -8.532  18.419  65.871  1.00  0.00    -0.497 OA 
ENDROOT
BRANCH   2   5
HETATM    5  C   UNL     1      -8.421  20.281  67.421  1.00  0.00    -0.405 C  
BRANCH   5   6
HETATM    6  C   UNL     1      -7.639  19.416  68.407  1.00  0.00    -0.321 C  
HETATM    7  O   UNL     1      -8.322  18.201  68.681  1.00  0.00    -0.308 OA 
HETATM    8  H   UNL     1      -7.835  17.663  69.294  1.00  0.00     0.000 HD 
ENDBRANCH   5   6
ENDBRANCH   2   5
TORSDOF 2
ENDMDL
MODEL       70
REMARK 921   NORMALIZED FREE ENERGY PREDICTED BY IDOCK:   -2.04 KCAL/MOL
REMARK 922        TOTAL FREE ENERGY PREDICTED BY IDOCK:   -2.41 KCAL/MOL
REMARK 923 INTER-LIGAND FREE ENERGY PREDICTED BY IDOCK:   -2.38 KCAL/MOL
REMARK 924 INTRA-LIGAND FREE ENERGY PREDICTED BY IDOCK:   -0.03 KCAL/MOL
REMARK 927      BINDING AFFINITY PREDICTED BY RF-SCORE:    0.00 PKD
ROOT
HETATM    1  C   UNL     1      -8.756  17.196  68.011  1.00  0.00    -0.221 C  
HETATM    2  C   UNL     1     -10.269  17.281  67.865  1.00  0.00    -0.332 C  
HETATM    3  H   UNL     1     -11.819  17.045  69.036  1.00  0.00     0.000 HD 
HETATM    4  O   UNL     1     -10.874  16.991  69.127  1.00  0.00    -0.288 OA 
ENDROOT
BRANCH   2   5
HETATM    5  C   UNL     1     -10.717  18.664  67.378  1.00  0.00    -0.456 C  
BRANCH   5   6
HETATM    6  C   UNL     1      -9.877  19.793  67.973  1.00  0.00    -0.417 C  
HETATM    7  O   UNL     1      -9.759  20.879  67.065  1.00  0.00    -0.664 OA 
HETATM    8  H   UNL     1      -9.236  21.581  67.435  1.00  0.00     0.000 HD 
ENDBRANCH   5   6
ENDBRANCH   2   5
TORSDOF 2
ENDMDL
MODEL       71
REMARK 921   NORMALIZED FREE ENERGY PREDICTED BY IDOCK:   -2.02 KCAL/MOL
REMARK 922        TOTAL FREE ENERGY PREDICTED BY IDOCK:   -2.38 KCAL/MOL
REMARK 923 INTER-LIGAND FREE ENERGY PREDICTED BY IDOCK:   -2.14 KCAL/MOL
REMARK 924 INTRA-LIGAND FREE ENERGY PREDICTED BY IDOCK:   -0.24 KCAL/MOL
REMARK 927      BINDING AFFINITY PREDICTED BY RF-SCORE:    0.00 PKD
ROOT
HETATM    1  C   UNL     1      -6.933  17.404  69.023  1.00  0.00    -0.238 C  
HETATM    2  C   UNL     1      -8.203  17.629  68.215  1.00  0.00    -0.276 C  
HETATM    3  H   UNL     1     -10.086  17.120  68.368  1.00  0.00     0.000 HD 
HETATM    4  O   UNL     1      -9.293  16.980  68.873  1.00  0.00    -0.265 OA 
ENDROOT
BRANCH   2   5
HETATM    5  C   UNL     1      -8.512  19.121  68.044  1.00  0.00    -0.345 C  
BRANCH   5   6
HETATM    6  C   UNL     1     -10.000  19.430  68.200  1.00  0.00    -0.413 C  
HETATM    7  O   UNL     1     -10.340  19.646  69.563  1.00  0.00    -0.607 OA 
HETATM    8  H   UNL     1     -11.266  19.838  69.660  1.00  0.00     0.000 HD 
ENDBRANCH   5   6
ENDBRANCH   2   5
TORSDOF 2
ENDMDL
MODEL       72
REMARK 921   NORMALIZED FREE ENERGY PREDICTED BY IDOCK:   -2.01 KCAL/MOL
REMARK 922        TOTAL FREE ENERGY PREDICTED BY IDOCK:   -2.38 KCAL/MOL
REMARK 923 INTER-LIGAND FREE ENERGY PREDICTED BY IDOCK:   -2.36 KCAL/MOL
REMARK 924 INTRA-LIGAND FREE ENERGY PREDICTED BY IDOCK:   -0.02 KCAL/MOL
REMARK 927      BINDING AFFINITY PREDICTED BY RF-SCORE:    0.00 PKD
ROOT
HETATM    1  C   UNL     1     -10.620  10.046  70.212  1.00  0.00    -0.354 C  
HETATM    2  C   UNL     1     -10.486   8.831  71.119  1.00  0.00    -0.245 C  
HETATM    3  H   UNL     1      -9.305   8.277  72.576  1.00  0.00     0.000 HD 
HETATM    4  O   UNL     1      -9.388   9.035  72.010  1.00  0.00    -0.358 OA 
ENDROOT
BRANCH   2   5
HETATM    5  C   UNL     1     -11.768   8.576  71.922  1.00  0.00    -0.409 C  
BRANCH   5   6
HETATM    6  C   UNL     1     -12.441   7.258  71.545  1.00  0.00    -0.373 C  
HETATM    7  O   UNL     1     -13.743   7.477  71.020  1.00  0.00    -0.622 OA 
HETATM    8  H   UNL     1     -14.162   6.657  70.785  1.00  0.00     0.000 HD 
ENDBRANCH   5   6
ENDBRANCH   2   5
TORSDOF 2
ENDMDL
MODEL       73
REMARK 921   NORMALIZED FREE ENERGY PREDICTED BY IDOCK:   -2.01 KCAL/MOL
REMARK 922        TOTAL FREE ENERGY PREDICTED BY IDOCK:   -2.37 KCAL/MOL
REMARK 923 INTER-LIGAND FREE ENERGY PREDICTED BY IDOCK:   -2.34 KCAL/MOL
REMARK 924 INTRA-LIGAND FREE ENERGY PREDICTED BY IDOCK:   -0.03 KCAL/MOL
REMARK 927      BINDING AFFINITY PREDICTED BY RF-SCORE:    0.00 PKD
ROOT
HETATM    1  C   UNL     1     -13.623   7.260  71.425  1.00  0.00    -0.399 C  
HETATM    2  C   UNL     1     -12.156   7.664  71.426  1.00  0.00    -0.316 C  
HETATM    3  H   UNL     1     -10.914   8.480  72.698  1.00  0.00     0.000 HD 
HETATM    4  O   UNL     1     -11.830   8.228  72.698  1.00  0.00    -0.401 OA 
ENDROOT
BRANCH   2   5
HETATM    5  C   UNL     1     -11.237   6.472  71.134  1.00  0.00    -0.353 C  
BRANCH   5   6
HETATM    6  C   UNL     1     -11.194   6.119  69.649  1.00  0.00    -0.418 C  
HETATM    7  O   UNL     1     -11.269   7.284  68.840  1.00  0.00    -0.449 OA 
HETATM    8  H   UNL     1     -11.242   7.064  67.916  1.00  0.00     0.000 HD 
ENDBRANCH   5   6
ENDBRANCH   2   5
TORSDOF 2
ENDMDL
MODEL       74
REMARK 921   NORMALIZED FREE ENERGY PREDICTED BY IDOCK:   -2.00 KCAL/MOL
REMARK 922        TOTAL FREE ENERGY PREDICTED BY IDOCK:   -2.36 KCAL/MOL
REMARK 923 INTER-LIGAND FREE ENERGY PREDICTED BY IDOCK:   -2.35 KCAL/MOL
REMARK 924 INTRA-LIGAND FREE ENERGY PREDICTED BY IDOCK:   -0.01 KCAL/MOL
REMARK 927      BINDING AFFINITY PREDICTED BY RF-SCORE:    0.00 PKD
ROOT
HETATM    1  C   UNL     1     -11.267  14.207  68.753  1.00  0.00    -0.294 C  
HETATM    2  C   UNL     1     -12.150  13.442  69.729  1.00  0.00    -0.310 C  
HETATM    3  H   UNL     1     -12.215  11.626  70.453  1.00  0.00     0.000 HD 
HETATM    4  O   UNL     1     -11.665  12.103  69.843  1.00  0.00    -0.314 OA 
ENDROOT
BRANCH   2   5
HETATM    5  C   UNL     1     -12.177  14.106  71.111  1.00  0.00    -0.435 C  
BRANCH   5   6
HETATM    6  C   UNL     1     -13.596  14.274  71.650  1.00  0.00    -0.381 C  
HETATM    7  O   UNL     1     -13.598  14.394  73.065  1.00  0.00    -0.619 OA 
HETATM    8  H   UNL     1     -14.481  14.498  73.401  1.00  0.00     0.000 HD 
ENDBRANCH   5   6
ENDBRANCH   2   5
TORSDOF 2
ENDMDL
MODEL       75
REMARK 921   NORMALIZED FREE ENERGY PREDICTED BY IDOCK:   -1.99 KCAL/MOL
REMARK 922        TOTAL FREE ENERGY PREDICTED BY IDOCK:   -2.35 KCAL/MOL
REMARK 923 INTER-LIGAND FREE ENERGY PREDICTED BY IDOCK:   -2.15 KCAL/MOL
REMARK 924 INTRA-LIGAND FREE ENERGY PREDICTED BY IDOCK:   -0.20 KCAL/MOL
REMARK 927      BINDING AFFINITY PREDICTED BY RF-SCORE:    0.00 PKD
ROOT
HETATM    1  C   UNL     1     -12.321  11.606  70.513  1.00  0.00    -0.410 C  
HETATM    2  C   UNL     1     -11.505  11.852  69.252  1.00  0.00    -0.306 C  
HETATM    3  H   UNL     1     -11.612  11.320  67.372  1.00  0.00     0.000 HD 
HETATM    4  O   UNL     1     -12.121  11.166  68.160  1.00  0.00    -0.633 OA 
ENDROOT
BRANCH   2   5
HETATM    5  C   UNL     1     -11.391  13.346  68.930  1.00  0.00    -0.331 C  
BRANCH   5   6
HETATM    6  C   UNL     1     -10.052  13.705  68.289  1.00  0.00    -0.240 C  
HETATM    7  O   UNL     1      -9.872  13.023  67.056  1.00  0.00    -0.228 OA 
HETATM    8  H   UNL     1      -9.039  13.246  66.657  1.00  0.00     0.000 HD 
ENDBRANCH   5   6
ENDBRANCH   2   5
TORSDOF 2
ENDMDL
MODEL       76
REMARK 921   NORMALIZED FREE ENERGY PREDICTED BY IDOCK:   -1.99 KCAL/MOL
REMARK 922        TOTAL FREE ENERGY PREDICTED BY IDOCK:   -2.35 KCAL/MOL
REMARK 923 INTER-LIGAND FREE ENERGY PREDICTED BY IDOCK:   -2.11 KCAL/MOL
REMARK 924 INTRA-LIGAND FREE ENERGY PREDICTED BY IDOCK:   -0.23 KCAL/MOL
REMARK 927      BINDING AFFINITY PREDICTED BY RF-SCORE:    0.00 PKD
ROOT
HETATM    1  C   UNL     1      -9.836   6.530  72.769  1.00  0.00    -0.180 C  
HETATM    2  C   UNL     1     -10.383   7.944  72.911  1.00  0.00    -0.347 C  
HETATM    3  H   UNL     1      -9.845   9.734  72.333  1.00  0.00     0.000 HD 
HETATM    4  O   UNL     1      -9.503   8.851  72.245  1.00  0.00    -0.327 OA 
ENDROOT
BRANCH   2   5
HETATM    5  C   UNL     1     -11.796   8.068  72.330  1.00  0.00    -0.429 C  
BRANCH   5   6
HETATM    6  C   UNL     1     -12.019   9.398  71.615  1.00  0.00    -0.393 C  
HETATM    7  O   UNL     1     -11.669   9.309  70.241  1.00  0.00    -0.439 OA 
HETATM    8  H   UNL     1     -11.807  10.137  69.796  1.00  0.00     0.000 HD 
ENDBRANCH   5   6
ENDBRANCH   2   5
TORSDOF 2
ENDMDL
MODEL       77
REMARK 921   NORMALIZED FREE ENERGY PREDICTED BY IDOCK:   -1.98 KCAL/MOL
REMARK 922        TOTAL FREE ENERGY PREDICTED BY IDOCK:   -2.34 KCAL/MOL
REMARK 923 INTER-LIGAND FREE ENERGY PREDICTED BY IDOCK:   -2.31 KCAL/MOL
REMARK 924 INTRA-LIGAND FREE ENERGY PREDICTED BY IDOCK:   -0.03 KCAL/MOL
REMARK 927      BINDING AFFINITY PREDICTED BY RF-SCORE:    0.00 PKD
ROOT
HETATM    1  C   UNL     1     -11.674  12.574  67.306  1.00  0.00    -0.431 C  
HETATM    2  C   UNL     1     -12.160  13.083  65.956  1.00  0.00    -0.432 C  
HETATM    3  H   UNL     1     -12.130  14.785  64.991  1.00  0.00     0.000 HD 
HETATM    4  O   UNL     1     -11.827  14.467  65.834  1.00  0.00    -0.369 OA 
ENDROOT
BRANCH   2   5
HETATM    5  C   UNL     1     -11.542  12.295  64.795  1.00  0.00    -0.393 C  
BRANCH   5   6
HETATM    6  C   UNL     1     -10.417  11.369  65.252  1.00  0.00    -0.283 C  
HETATM    7  O   UNL     1      -9.279  11.488  64.410  1.00  0.00    -0.405 OA 
HETATM    8  H   UNL     1      -8.579  10.912  64.694  1.00  0.00     0.000 HD 
ENDBRANCH   5   6
ENDBRANCH   2   5
TORSDOF 2
ENDMDL
MODEL       78
REMARK 921   NORMALIZED FREE ENERGY PREDICTED BY IDOCK:   -1.97 KCAL/MOL
REMARK 922        TOTAL FREE ENERGY PREDICTED BY IDOCK:   -2.33 KCAL/MOL
REMARK 923 INTER-LIGAND FREE ENERGY PREDICTED BY IDOCK:   -2.31 KCAL/MOL
REMARK 924 INTRA-LIGAND FREE ENERGY PREDICTED BY IDOCK:   -0.02 KCAL/MOL
REMARK 927      BINDING AFFINITY PREDICTED BY RF-SCORE:    0.00 PKD
ROOT
HETATM    1  C   UNL     1     -14.378   7.372  71.780  1.00  0.00    -0.586 C  
HETATM    2  C   UNL     1     -13.274   8.411  71.642  1.00  0.00    -0.339 C  
HETATM    3  H   UNL     1     -12.956  10.231  72.283  1.00  0.00     0.000 HD 
HETATM    4  O   UNL     1     -13.645   9.583  72.369  1.00  0.00    -0.452 OA 
ENDROOT
BRANCH   2   5
HETATM    5  C   UNL     1     -11.929   7.883  72.157  1.00  0.00    -0.379 C  
BRANCH   5   6
HETATM    6  C   UNL     1     -11.863   6.357  72.158  1.00  0.00    -0.314 C  
HETATM    7  O   UNL     1     -10.802   5.889  72.979  1.00  0.00    -0.239 OA 
HETATM    8  H   UNL     1     -10.760   4.940  72.980  1.00  0.00     0.000 HD 
ENDBRANCH   5   6
ENDBRANCH   2   5
TORSDOF 2
ENDMDL
MODEL       79
REMARK 921   NORMALIZED FREE ENERGY PREDICTED BY IDOCK:   -1.95 KCAL/MOL
REMARK 922        TOTAL FREE ENERGY PREDICTED BY IDOCK:   -2.31 KCAL/MOL
REMARK 923 INTER-LIGAND FREE ENERGY PREDICTED BY IDOCK:   -2.05 KCAL/MOL
REMARK 924 INTRA-LIGAND FREE ENERGY PREDICTED BY IDOCK:   -0.25 KCAL/MOL
REMARK 927      BINDING AFFINITY PREDICTED BY RF-SCORE:    0.00 PKD
ROOT
HETATM    1  C   UNL     1     -10.315  20.030  66.430  1.00  0.00    -0.573 C  
HETATM    2  C   UNL     1      -8.808  19.821  66.389  1.00  0.00    -0.377 C  
HETATM    3  H   UNL     1      -7.274  20.364  67.474  1.00  0.00     0.000 HD 
HETATM    4  O   UNL     1      -8.214  20.495  67.500  1.00  0.00    -0.311 OA 
ENDROOT
BRANCH   2   5
HETATM    5  C   UNL     1      -8.439  18.334  66.424  1.00  0.00    -0.266 C  
BRANCH   5   6
HETATM    6  C   UNL     1      -9.076  17.601  67.603  1.00  0.00    -0.241 C  
HETATM    7  O   UNL     1      -8.342  17.817  68.800  1.00  0.00    -0.286 OA 
HETATM    8  H   UNL     1      -8.738  17.361  69.533  1.00  0.00     0.000 HD 
ENDBRANCH   5   6
ENDBRANCH   2   5
TORSDOF 2
ENDMDL
MODEL       80
REMARK 921   NORMALIZED FREE ENERGY PREDICTED BY IDOCK:   -1.94 KCAL/MOL
REMARK 922        TOTAL FREE ENERGY PREDICTED BY IDOCK:   -2.30 KCAL/MOL
REMARK 923 INTER-LIGAND FREE ENERGY PREDICTED BY IDOCK:   -2.09 KCAL/MOL
REMARK 924 INTRA-LIGAND FREE ENERGY PREDICTED BY IDOCK:   -0.21 KCAL/MOL
REMARK 927      BINDING AFFINITY PREDICTED BY RF-SCORE:    0.00 PKD
ROOT
HETATM    1  C   UNL     1      -6.429  20.043  69.317  1.00  0.00    -0.360 C  
HETATM    2  C   UNL     1      -6.915  20.014  67.875  1.00  0.00    -0.275 C  
HETATM    3  H   UNL     1      -7.459  21.334  66.538  1.00  0.00     0.000 HD 
HETATM    4  O   UNL     1      -7.156  21.352  67.438  1.00  0.00    -0.556 OA 
ENDROOT
BRANCH   2   5
HETATM    5  C   UNL     1      -5.900  19.338  66.946  1.00  0.00    -0.167 C  
BRANCH   5   6
HETATM    6  C   UNL     1      -6.468  19.073  65.553  1.00  0.00    -0.271 C  
HETATM    7  O   UNL     1      -7.884  18.962  65.588  1.00  0.00    -0.459 OA 
HETATM    8  H   UNL     1      -8.238  18.797  64.721  1.00  0.00     0.000 HD 
ENDBRANCH   5   6
ENDBRANCH   2   5
TORSDOF 2
ENDMDL
MODEL       81
REMARK 921   NORMALIZED FREE ENERGY PREDICTED BY IDOCK:   -1.93 KCAL/MOL
REMARK 922        TOTAL FREE ENERGY PREDICTED BY IDOCK:   -2.29 KCAL/MOL
REMARK 923 INTER-LIGAND FREE ENERGY PREDICTED BY IDOCK:   -2.27 KCAL/MOL
REMARK 924 INTRA-LIGAND FREE ENERGY PREDICTED BY IDOCK:   -0.01 KCAL/MOL
REMARK 927      BINDING AFFINITY PREDICTED BY RF-SCORE:    0.00 PKD
ROOT
HETATM    1  C   UNL     1     -11.361   9.268  71.504  1.00  0.00    -0.455 C  
HETATM    2  C   UNL     1     -12.688   9.848  71.035  1.00  0.00    -0.334 C  
HETATM    3  H   UNL     1     -14.541   9.829  71.662  1.00  0.00     0.000 HD 
HETATM    4  O   UNL     1     -13.713   9.466  71.954  1.00  0.00    -0.389 OA 
ENDROOT
BRANCH   2   5
HETATM    5  C   UNL     1     -12.633  11.376  70.924  1.00  0.00    -0.453 C  
BRANCH   5   6
HETATM    6  C   UNL     1     -13.434  12.072  72.022  1.00  0.00    -0.261 C  
HETATM    7  O   UNL     1     -13.602  13.454  71.741  1.00  0.00    -0.382 OA 
HETATM    8  H   UNL     1     -14.101  13.887  72.424  1.00  0.00     0.000 HD 
ENDBRANCH   5   6
ENDBRANCH   2   5
TORSDOF 2
ENDMDL
MODEL       82
REMARK 921   NORMALIZED FREE ENERGY PREDICTED BY IDOCK:   -1.93 KCAL/MOL
REMARK 922        TOTAL FREE ENERGY PREDICTED BY IDOCK:   -2.28 KCAL/MOL
REMARK 923 INTER-LIGAND FREE ENERGY PREDICTED BY IDOCK:   -2.02 KCAL/MOL
REMARK 924 INTRA-LIGAND FREE ENERGY PREDICTED BY IDOCK:   -0.26 KCAL/MOL
REMARK 927      BINDING AFFINITY PREDICTED BY RF-SCORE:    0.00 PKD
ROOT
HETATM    1  C   UNL     1     -10.212   9.742  70.529  1.00  0.00    -0.321 C  
HETATM    2  C   UNL     1     -11.632  10.105  70.116  1.00  0.00    -0.277 C  
HETATM    3  H   UNL     1     -13.126  11.093  70.901  1.00  0.00     0.000 HD 
HETATM    4  O   UNL     1     -12.240  10.867  71.160  1.00  0.00    -0.352 OA 
ENDROOT
BRANCH   2   5
HETATM    5  C   UNL     1     -11.656  10.903  68.807  1.00  0.00    -0.378 C  
BRANCH   5   6
HETATM    6  C   UNL     1     -10.697  12.090  68.828  1.00  0.00    -0.220 C  
HETATM    7  O   UNL     1     -11.149  13.101  69.718  1.00  0.00    -0.477 OA 
HETATM    8  H   UNL     1     -10.552  13.840  69.732  1.00  0.00     0.000 HD 
ENDBRANCH   5   6
ENDBRANCH   2   5
TORSDOF 2
ENDMDL
MODEL       83
REMARK 921   NORMALIZED FREE ENERGY PREDICTED BY IDOCK:   -1.93 KCAL/MOL
REMARK 922        TOTAL FREE ENERGY PREDICTED BY IDOCK:   -2.28 KCAL/MOL
REMARK 923 INTER-LIGAND FREE ENERGY PREDICTED BY IDOCK:   -2.05 KCAL/MOL
REMARK 924 INTRA-LIGAND FREE ENERGY PREDICTED BY IDOCK:   -0.23 KCAL/MOL
REMARK 927      BINDING AFFINITY PREDICTED BY RF-SCORE:    0.00 PKD
ROOT
HETATM    1  C   UNL     1     -10.923  15.134  70.086  1.00  0.00    -0.277 C  
HETATM    2  C   UNL     1     -11.468  13.928  69.334  1.00  0.00    -0.280 C  
HETATM    3  H   UNL     1     -12.996  12.719  69.515  1.00  0.00     0.000 HD 
HETATM    4  O   UNL     1     -12.655  13.472  69.985  1.00  0.00    -0.212 OA 
ENDROOT
BRANCH   2   5
HETATM    5  C   UNL     1     -11.773  14.261  67.869  1.00  0.00    -0.394 C  
BRANCH   5   6
HETATM    6  C   UNL     1     -12.001  13.012  67.020  1.00  0.00    -0.347 C  
HETATM    7  O   UNL     1     -11.895  11.831  67.804  1.00  0.00    -0.541 OA 
HETATM    8  H   UNL     1     -12.036  11.054  67.276  1.00  0.00     0.000 HD 
ENDBRANCH   5   6
ENDBRANCH   2   5
TORSDOF 2
ENDMDL
MODEL       84
REMARK 921   NORMALIZED FREE ENERGY PREDICTED BY IDOCK:   -1.89 KCAL/MOL
REMARK 922        TOTAL FREE ENERGY PREDICTED BY IDOCK:   -2.24 KCAL/MOL
REMARK 923 INTER-LIGAND FREE ENERGY PREDICTED BY IDOCK:   -2.23 KCAL/MOL
REMARK 924 INTRA-LIGAND FREE ENERGY PREDICTED BY IDOCK:   -0.01 KCAL/MOL
REMARK 927      BINDING AFFINITY PREDICTED BY RF-SCORE:    0.00 PKD
ROOT
HETATM    1  C   UNL     1     -12.254  13.042  65.854  1.00  0.00    -0.493 C  
HETATM    2  C   UNL     1     -11.315  14.126  65.345  1.00  0.00    -0.322 C  
HETATM    3  H   UNL     1     -11.461  15.696  64.187  1.00  0.00     0.000 HD 
HETATM    4  O   UNL     1     -12.048  15.019  64.505  1.00  0.00    -0.443 OA 
ENDROOT
BRANCH   2   5
HETATM    5  C   UNL     1     -10.670  14.907  66.497  1.00  0.00    -0.309 C  
BRANCH   5   6
HETATM    6  C   UNL     1      -9.922  16.148  66.014  1.00  0.00    -0.348 C  
HETATM    7  O   UNL     1      -8.516  15.951  66.058  1.00  0.00    -0.311 OA 
HETATM    8  H   UNL     1      -8.051  16.723  65.758  1.00  0.00     0.000 HD 
ENDBRANCH   5   6
ENDBRANCH   2   5
TORSDOF 2
ENDMDL
MODEL       85
REMARK 921   NORMALIZED FREE ENERGY PREDICTED BY IDOCK:   -1.88 KCAL/MOL
REMARK 922        TOTAL FREE ENERGY PREDICTED BY IDOCK:   -2.23 KCAL/MOL
REMARK 923 INTER-LIGAND FREE ENERGY PREDICTED BY IDOCK:   -2.23 KCAL/MOL
REMARK 924 INTRA-LIGAND FREE ENERGY PREDICTED BY IDOCK:   -0.01 KCAL/MOL
REMARK 927      BINDING AFFINITY PREDICTED BY RF-SCORE:    0.00 PKD
ROOT
HETATM    1  C   UNL     1     -11.352  14.528  64.710  1.00  0.00    -0.397 C  
HETATM    2  C   UNL     1     -11.004  15.425  65.890  1.00  0.00    -0.293 C  
HETATM    3  H   UNL     1     -11.311  15.404  67.822  1.00  0.00     0.000 HD 
HETATM    4  O   UNL     1     -11.528  14.845  67.085  1.00  0.00    -0.352 OA 
ENDROOT
BRANCH   2   5
HETATM    5  C   UNL     1      -9.490  15.624  66.027  1.00  0.00    -0.390 C  
BRANCH   5   6
HETATM    6  C   UNL     1      -9.130  16.995  66.595  1.00  0.00    -0.254 C  
HETATM    7  O   UNL     1      -8.266  17.704  65.718  1.00  0.00    -0.543 OA 
HETATM    8  H   UNL     1      -8.041  18.557  66.071  1.00  0.00     0.000 HD 
ENDBRANCH   5   6
ENDBRANCH   2   5
TORSDOF 2
ENDMDL
MODEL       86
REMARK 921   NORMALIZED FREE ENERGY PREDICTED BY IDOCK:   -1.87 KCAL/MOL
REMARK 922        TOTAL FREE ENERGY PREDICTED BY IDOCK:   -2.22 KCAL/MOL
REMARK 923 INTER-LIGAND FREE ENERGY PREDICTED BY IDOCK:   -1.96 KCAL/MOL
REMARK 924 INTRA-LIGAND FREE ENERGY PREDICTED BY IDOCK:   -0.26 KCAL/MOL
REMARK 927      BINDING AFFINITY PREDICTED BY RF-SCORE:    0.00 PKD
ROOT
HETATM    1  C   UNL     1     -11.267  11.583  66.946  1.00  0.00    -0.363 C  
HETATM    2  C   UNL     1     -11.183  13.050  66.551  1.00  0.00    -0.302 C  
HETATM    3  H   UNL     1     -12.092  14.706  67.058  1.00  0.00     0.000 HD 
HETATM    4  O   UNL     1     -12.145  13.790  67.305  1.00  0.00    -0.389 OA 
ENDROOT
BRANCH   2   5
HETATM    5  C   UNL     1      -9.782  13.624  66.788  1.00  0.00    -0.275 C  
BRANCH   5   6
HETATM    6  C   UNL     1      -9.231  13.267  68.167  1.00  0.00    -0.212 C  
HETATM    7  O   UNL     1      -9.827  14.063  69.182  1.00  0.00    -0.422 OA 
HETATM    8  H   UNL     1      -9.484  13.841  70.040  1.00  0.00     0.000 HD 
ENDBRANCH   5   6
ENDBRANCH   2   5
TORSDOF 2
ENDMDL
MODEL       87
REMARK 921   NORMALIZED FREE ENERGY PREDICTED BY IDOCK:   -1.86 KCAL/MOL
REMARK 922        TOTAL FREE ENERGY PREDICTED BY IDOCK:   -2.21 KCAL/MOL
REMARK 923 INTER-LIGAND FREE ENERGY PREDICTED BY IDOCK:   -2.17 KCAL/MOL
REMARK 924 INTRA-LIGAND FREE ENERGY PREDICTED BY IDOCK:   -0.03 KCAL/MOL
REMARK 927      BINDING AFFINITY PREDICTED BY RF-SCORE:    0.00 PKD
ROOT
HETATM    1  C   UNL     1      -9.756  10.563  64.182  1.00  0.00    -0.388 C  
HETATM    2  C   UNL     1     -10.722  11.688  64.525  1.00  0.00    -0.322 C  
HETATM    3  H   UNL     1     -12.470  12.294  63.891  1.00  0.00     0.000 HD 
HETATM    4  O   UNL     1     -11.867  11.592  63.676  1.00  0.00    -0.420 OA 
ENDROOT
BRANCH   2   5
HETATM    5  C   UNL     1     -11.157  11.635  65.994  1.00  0.00    -0.325 C  
BRANCH   5   6
HETATM    6  C   UNL     1     -10.376  10.598  66.798  1.00  0.00    -0.245 C  
HETATM    7  O   UNL     1     -11.243   9.804  67.595  1.00  0.00    -0.473 OA 
HETATM    8  H   UNL     1     -10.757   9.159  68.095  1.00  0.00     0.000 HD 
ENDBRANCH   5   6
ENDBRANCH   2   5
TORSDOF 2
ENDMDL
MODEL       88
REMARK 921   NORMALIZED FREE ENERGY PREDICTED BY IDOCK:   -1.85 KCAL/MOL
REMARK 922        TOTAL FREE ENERGY PREDICTED BY IDOCK:   -2.19 KCAL/MOL
REMARK 923 INTER-LIGAND FREE ENERGY PREDICTED BY IDOCK:   -1.93 KCAL/MOL
REMARK 924 INTRA-LIGAND FREE ENERGY PREDICTED BY IDOCK:   -0.26 KCAL/MOL
REMARK 927      BINDING AFFINITY PREDICTED BY RF-SCORE:    0.00 PKD
ROOT
HETATM    1  C   UNL     1      -9.267  15.595  66.292  1.00  0.00    -0.365 C  
HETATM    2  C   UNL     1     -10.544  14.986  66.853  1.00  0.00    -0.297 C  
HETATM    3  H   UNL     1     -11.055  13.297  67.696  1.00  0.00     0.000 HD 
HETATM    4  O   UNL     1     -10.258  13.676  67.346  1.00  0.00    -0.238 OA 
ENDROOT
BRANCH   2   5
HETATM    5  C   UNL     1     -11.138  15.846  67.975  1.00  0.00    -0.334 C  
BRANCH   5   6
HETATM    6  C   UNL     1     -10.108  16.205  69.044  1.00  0.00    -0.247 C  
HETATM    7  O   UNL     1      -9.789  15.080  69.850  1.00  0.00    -0.453 OA 
HETATM    8  H   UNL     1      -9.148  15.303  70.515  1.00  0.00     0.000 HD 
ENDBRANCH   5   6
ENDBRANCH   2   5
TORSDOF 2
ENDMDL
MODEL       89
REMARK 921   NORMALIZED FREE ENERGY PREDICTED BY IDOCK:   -1.82 KCAL/MOL
REMARK 922        TOTAL FREE ENERGY PREDICTED BY IDOCK:   -2.17 KCAL/MOL
REMARK 923 INTER-LIGAND FREE ENERGY PREDICTED BY IDOCK:   -1.95 KCAL/MOL
REMARK 924 INTRA-LIGAND FREE ENERGY PREDICTED BY IDOCK:   -0.22 KCAL/MOL
REMARK 927      BINDING AFFINITY PREDICTED BY RF-SCORE:    0.00 PKD
ROOT
HETATM    1  C   UNL     1     -10.594   9.886  67.434  1.00  0.00    -0.338 C  
HETATM    2  C   UNL     1     -11.264  11.225  67.706  1.00  0.00    -0.291 C  
HETATM    3  H   UNL     1     -10.863  12.817  68.770  1.00  0.00     0.000 HD 
HETATM    4  O   UNL     1     -10.445  11.981  68.601  1.00  0.00    -0.223 OA 
ENDROOT
BRANCH   2   5
HETATM    5  C   UNL     1     -11.494  12.019  66.415  1.00  0.00    -0.417 C  
BRANCH   5   6
HETATM    6  C   UNL     1     -11.831  13.484  66.682  1.00  0.00    -0.407 C  
HETATM    7  O   UNL     1     -10.656  14.249  66.913  1.00  0.00    -0.271 OA 
HETATM    8  H   UNL     1     -10.865  15.161  67.080  1.00  0.00     0.000 HD 
ENDBRANCH   5   6
ENDBRANCH   2   5
TORSDOF 2
ENDMDL
MODEL       90
REMARK 921   NORMALIZED FREE ENERGY PREDICTED BY IDOCK:   -1.81 KCAL/MOL
REMARK 922        TOTAL FREE ENERGY PREDICTED BY IDOCK:   -2.15 KCAL/MOL
REMARK 923 INTER-LIGAND FREE ENERGY PREDICTED BY IDOCK:   -2.11 KCAL/MOL
REMARK 924 INTRA-LIGAND FREE ENERGY PREDICTED BY IDOCK:   -0.04 KCAL/MOL
REMARK 927      BINDING AFFINITY PREDICTED BY RF-SCORE:    0.00 PKD
ROOT
HETATM    1  C   UNL     1      -9.874  10.379  65.587  1.00  0.00    -0.321 C  
HETATM    2  C   UNL     1     -10.301  11.828  65.401  1.00  0.00    -0.268 C  
HETATM    3  H   UNL     1      -9.736  13.569  66.092  1.00  0.00     0.000 HD 
HETATM    4  O   UNL     1      -9.470  12.664  66.208  1.00  0.00    -0.243 OA 
ENDROOT
BRANCH   2   5
HETATM    5  C   UNL     1     -10.210  12.264  63.934  1.00  0.00    -0.421 C  
BRANCH   5   6
HETATM    6  C   UNL     1      -9.788  11.122  63.011  1.00  0.00    -0.337 C  
HETATM    7  O   UNL     1      -8.491  11.345  62.476  1.00  0.00    -0.516 OA 
HETATM    8  H   UNL     1      -8.229  10.635  61.902  1.00  0.00     0.000 HD 
ENDBRANCH   5   6
ENDBRANCH   2   5
TORSDOF 2
ENDMDL
MODEL       91
REMARK 921   NORMALIZED FREE ENERGY PREDICTED BY IDOCK:   -1.80 KCAL/MOL
REMARK 922        TOTAL FREE ENERGY PREDICTED BY IDOCK:   -2.14 KCAL/MOL
REMARK 923 INTER-LIGAND FREE ENERGY PREDICTED BY IDOCK:   -1.91 KCAL/MOL
REMARK 924 INTRA-LIGAND FREE ENERGY PREDICTED BY IDOCK:   -0.23 KCAL/MOL
REMARK 927      BINDING AFFINITY PREDICTED BY RF-SCORE:    0.00 PKD
ROOT
HETATM    1  C   UNL     1     -13.002   8.145  71.716  1.00  0.00    -0.364 C  
HETATM    2  C   UNL     1     -11.735   7.316  71.871  1.00  0.00    -0.287 C  
HETATM    3  H   UNL     1     -10.174   6.898  70.769  1.00  0.00     0.000 HD 
HETATM    4  O   UNL     1     -10.965   7.415  70.672  1.00  0.00    -0.245 OA 
ENDROOT
BRANCH   2   5
HETATM    5  C   UNL     1     -10.896   7.778  73.068  1.00  0.00    -0.451 C  
BRANCH   5   6
HETATM    6  C   UNL     1      -9.396   7.700  72.794  1.00  0.00    -0.182 C  
HETATM    7  O   UNL     1      -8.933   8.866  72.127  1.00  0.00    -0.381 OA 
HETATM    8  H   UNL     1      -8.000   8.818  71.956  1.00  0.00     0.000 HD 
ENDBRANCH   5   6
ENDBRANCH   2   5
TORSDOF 2
ENDMDL
MODEL       92
REMARK 921   NORMALIZED FREE ENERGY PREDICTED BY IDOCK:   -1.79 KCAL/MOL
REMARK 922        TOTAL FREE ENERGY PREDICTED BY IDOCK:   -2.13 KCAL/MOL
REMARK 923 INTER-LIGAND FREE ENERGY PREDICTED BY IDOCK:   -1.90 KCAL/MOL
REMARK 924 INTRA-LIGAND FREE ENERGY PREDICTED BY IDOCK:   -0.23 KCAL/MOL
REMARK 927      BINDING AFFINITY PREDICTED BY RF-SCORE:    0.00 PKD
ROOT
HETATM    1  C   UNL     1      -8.558  14.063  67.379  1.00  0.00    -0.211 C  
HETATM    2  C   UNL     1     -10.015  13.657  67.211  1.00  0.00    -0.240 C  
HETATM    3  H   UNL     1     -11.371  12.766  68.304  1.00  0.00     0.000 HD 
HETATM    4  O   UNL     1     -10.461  13.020  68.409  1.00  0.00    -0.242 OA 
ENDROOT
BRANCH   2   5
HETATM    5  C   UNL     1     -10.909  14.863  66.899  1.00  0.00    -0.319 C  
BRANCH   5   6
HETATM    6  C   UNL     1     -10.972  15.858  68.055  1.00  0.00    -0.336 C  
HETATM    7  O   UNL     1     -12.048  15.560  68.934  1.00  0.00    -0.555 OA 
HETATM    8  H   UNL     1     -12.087  16.180  69.653  1.00  0.00     0.000 HD 
ENDBRANCH   5   6
ENDBRANCH   2   5
TORSDOF 2
ENDMDL
MODEL       93
REMARK 921   NORMALIZED FREE ENERGY PREDICTED BY IDOCK:   -1.78 KCAL/MOL
REMARK 922        TOTAL FREE ENERGY PREDICTED BY IDOCK:   -2.12 KCAL/MOL
REMARK 923 INTER-LIGAND FREE ENERGY PREDICTED BY IDOCK:   -2.11 KCAL/MOL
REMARK 924 INTRA-LIGAND FREE ENERGY PREDICTED BY IDOCK:   -0.01 KCAL/MOL
REMARK 927      BINDING AFFINITY PREDICTED BY RF-SCORE:    0.00 PKD
ROOT
HETATM    1  C   UNL     1     -10.246  17.986  67.125  1.00  0.00    -0.366 C  
HETATM    2  C   UNL     1     -10.536  16.625  66.509  1.00  0.00    -0.262 C  
HETATM    3  H   UNL     1     -10.506  15.850  64.713  1.00  0.00     0.000 HD 
HETATM    4  O   UNL     1     -10.326  16.700  65.098  1.00  0.00    -0.630 OA 
ENDROOT
BRANCH   2   5
HETATM    5  C   UNL     1      -9.649  15.528  67.110  1.00  0.00    -0.228 C  
BRANCH   5   6
HETATM    6  C   UNL     1     -10.243  14.930  68.384  1.00  0.00    -0.231 C  
HETATM    7  O   UNL     1      -9.256  14.243  69.139  1.00  0.00    -0.396 OA 
HETATM    8  H   UNL     1      -9.625  13.871  69.931  1.00  0.00     0.000 HD 
ENDBRANCH   5   6
ENDBRANCH   2   5
TORSDOF 2
ENDMDL
MODEL       94
REMARK 921   NORMALIZED FREE ENERGY PREDICTED BY IDOCK:   -1.78 KCAL/MOL
REMARK 922        TOTAL FREE ENERGY PREDICTED BY IDOCK:   -2.12 KCAL/MOL
REMARK 923 INTER-LIGAND FREE ENERGY PREDICTED BY IDOCK:   -2.08 KCAL/MOL
REMARK 924 INTRA-LIGAND FREE ENERGY PREDICTED BY IDOCK:   -0.04 KCAL/MOL
REMARK 927      BINDING AFFINITY PREDICTED BY RF-SCORE:    0.00 PKD
ROOT
HETATM    1  C   UNL     1     -10.796   5.721  69.990  1.00  0.00    -0.403 C  
HETATM    2  C   UNL     1     -11.766   6.694  70.645  1.00  0.00    -0.394 C  
HETATM    3  H   UNL     1     -12.660   6.848  72.378  1.00  0.00     0.000 HD 
HETATM    4  O   UNL     1     -12.055   6.241  71.969  1.00  0.00    -0.337 OA 
ENDROOT
BRANCH   2   5
HETATM    5  C   UNL     1     -11.199   8.117  70.694  1.00  0.00    -0.268 C  
BRANCH   5   6
HETATM    6  C   UNL     1     -10.315   8.435  69.489  1.00  0.00    -0.219 C  
HETATM    7  O   UNL     1     -11.084   8.937  68.405  1.00  0.00    -0.455 OA 
HETATM    8  H   UNL     1     -10.535   9.135  67.655  1.00  0.00     0.000 HD 
ENDBRANCH   5   6
ENDBRANCH   2   5
TORSDOF 2
ENDMDL
MODEL       95
REMARK 921   NORMALIZED FREE ENERGY PREDICTED BY IDOCK:   -1.78 KCAL/MOL
REMARK 922        TOTAL FREE ENERGY PREDICTED BY IDOCK:   -2.11 KCAL/MOL
REMARK 923 INTER-LIGAND FREE ENERGY PREDICTED BY IDOCK:   -2.08 KCAL/MOL
REMARK 924 INTRA-LIGAND FREE ENERGY PREDICTED BY IDOCK:   -0.04 KCAL/MOL
REMARK 927      BINDING AFFINITY PREDICTED BY RF-SCORE:    0.00 PKD
ROOT
HETATM    1  C   UNL     1      -6.417  17.508  69.135  1.00  0.00    -0.240 C  
HETATM    2  C   UNL     1      -6.846  18.460  68.027  1.00  0.00    -0.217 C  
HETATM    3  H   UNL     1      -7.558  18.291  66.213  1.00  0.00     0.000 HD 
HETATM    4  O   UNL     1      -7.290  17.697  66.904  1.00  0.00    -0.180 OA 
ENDROOT
BRANCH   2   5
HETATM    5  C   UNL     1      -7.962  19.405  68.489  1.00  0.00    -0.395 C  
BRANCH   5   6
HETATM    6  C   UNL     1      -8.366  20.405  67.408  1.00  0.00    -0.318 C  
HETATM    7  O   UNL     1      -7.291  21.277  67.086  1.00  0.00    -0.726 OA 
HETATM    8  H   UNL     1      -7.543  21.899  66.414  1.00  0.00     0.000 HD 
ENDBRANCH   5   6
ENDBRANCH   2   5
TORSDOF 2
ENDMDL
MODEL       96
REMARK 921   NORMALIZED FREE ENERGY PREDICTED BY IDOCK:   -1.77 KCAL/MOL
REMARK 922        TOTAL FREE ENERGY PREDICTED BY IDOCK:   -2.10 KCAL/MOL
REMARK 923 INTER-LIGAND FREE ENERGY PREDICTED BY IDOCK:   -2.06 KCAL/MOL
REMARK 924 INTRA-LIGAND FREE ENERGY PREDICTED BY IDOCK:   -0.04 KCAL/MOL
REMARK 927      BINDING AFFINITY PREDICTED BY RF-SCORE:    0.00 PKD
ROOT
HETATM    1  C   UNL     1      -8.670   9.282  69.177  1.00  0.00    -0.139 C  
HETATM    2  C   UNL     1     -10.153   8.970  69.328  1.00  0.00    -0.195 C  
HETATM    3  H   UNL     1     -11.227   7.415  69.833  1.00  0.00     0.000 HD 
HETATM    4  O   UNL     1     -10.302   7.610  69.739  1.00  0.00    -0.212 OA 
ENDROOT
BRANCH   2   5
HETATM    5  C   UNL     1     -10.829   9.898  70.344  1.00  0.00    -0.380 C  
BRANCH   5   6
HETATM    6  C   UNL     1     -11.488  11.107  69.683  1.00  0.00    -0.310 C  
HETATM    7  O   UNL     1     -12.185  10.732  68.503  1.00  0.00    -0.824 OA 
HETATM    8  H   UNL     1     -12.594  11.484  68.091  1.00  0.00     0.000 HD 
ENDBRANCH   5   6
ENDBRANCH   2   5
TORSDOF 2
ENDMDL
MODEL       97
REMARK 921   NORMALIZED FREE ENERGY PREDICTED BY IDOCK:   -1.76 KCAL/MOL
REMARK 922        TOTAL FREE ENERGY PREDICTED BY IDOCK:   -2.09 KCAL/MOL
REMARK 923 INTER-LIGAND FREE ENERGY PREDICTED BY IDOCK:   -2.07 KCAL/MOL
REMARK 924 INTRA-LIGAND FREE ENERGY PREDICTED BY IDOCK:   -0.02 KCAL/MOL
REMARK 927      BINDING AFFINITY PREDICTED BY RF-SCORE:    0.00 PKD
ROOT
HETATM    1  C   UNL     1      -9.915   4.412  71.990  1.00  0.00    -0.252 C  
HETATM    2  C   UNL     1     -10.921   4.722  73.090  1.00  0.00    -0.300 C  
HETATM    3  H   UNL     1     -11.723   3.752  74.588  1.00  0.00     0.000 HD 
HETATM    4  O   UNL     1     -11.096   3.559  73.901  1.00  0.00    -0.210 OA 
ENDROOT
BRANCH   2   5
HETATM    5  C   UNL     1     -10.466   5.899  73.960  1.00  0.00    -0.276 C  
BRANCH   5   6
HETATM    6  C   UNL     1     -10.568   7.238  73.231  1.00  0.00    -0.382 C  
HETATM    7  O   UNL     1     -11.904   7.721  73.228  1.00  0.00    -0.651 OA 
HETATM    8  H   UNL     1     -11.968   8.553  72.774  1.00  0.00     0.000 HD 
ENDBRANCH   5   6
ENDBRANCH   2   5
TORSDOF 2
ENDMDL
MODEL       98
REMARK 921   NORMALIZED FREE ENERGY PREDICTED BY IDOCK:   -1.75 KCAL/MOL
REMARK 922        TOTAL FREE ENERGY PREDICTED BY IDOCK:   -2.09 KCAL/MOL
REMARK 923 INTER-LIGAND FREE ENERGY PREDICTED BY IDOCK:   -1.87 KCAL/MOL
REMARK 924 INTRA-LIGAND FREE ENERGY PREDICTED BY IDOCK:   -0.22 KCAL/MOL
REMARK 927      BINDING AFFINITY PREDICTED BY RF-SCORE:    0.00 PKD
ROOT
HETATM    1  C   UNL     1      -8.838   5.471  71.654  1.00  0.00    -0.141 C  
HETATM    2  C   UNL     1      -9.769   6.526  71.074  1.00  0.00    -0.175 C  
HETATM    3  H   UNL     1     -11.650   6.615  70.544  1.00  0.00     0.000 HD 
HETATM    4  O   UNL     1     -11.069   5.956  70.906  1.00  0.00    -0.282 OA 
ENDROOT
BRANCH   2   5
HETATM    5  C   UNL     1      -9.856   7.765  71.973  1.00  0.00    -0.226 C  
BRANCH   5   6
HETATM    6  C   UNL     1     -10.741   7.537  73.197  1.00  0.00    -0.398 C  
HETATM    7  O   UNL     1     -12.068   7.988  72.964  1.00  0.00    -0.646 OA 
HETATM    8  H   UNL     1     -12.618   7.846  73.726  1.00  0.00     0.000 HD 
ENDBRANCH   5   6
ENDBRANCH   2   5
TORSDOF 2
ENDMDL
MODEL       99
REMARK 921   NORMALIZED FREE ENERGY PREDICTED BY IDOCK:   -1.75 KCAL/MOL
REMARK 922        TOTAL FREE ENERGY PREDICTED BY IDOCK:   -2.09 KCAL/MOL
REMARK 923 INTER-LIGAND FREE ENERGY PREDICTED BY IDOCK:   -2.04 KCAL/MOL
REMARK 924 INTRA-LIGAND FREE ENERGY PREDICTED BY IDOCK:   -0.04 KCAL/MOL
REMARK 927      BINDING AFFINITY PREDICTED BY RF-SCORE:    0.00 PKD
ROOT
HETATM    1  C   UNL     1     -10.427   7.460  70.089  1.00  0.00    -0.228 C  
HETATM    2  C   UNL     1      -9.636   8.487  70.886  1.00  0.00    -0.185 C  
HETATM    3  H   UNL     1      -9.396  10.428  70.846  1.00  0.00     0.000 HD 
HETATM    4  O   UNL     1      -9.889   9.787  70.348  1.00  0.00    -0.259 OA 
ENDROOT
BRANCH   2   5
HETATM    5  C   UNL     1     -10.005   8.459  72.374  1.00  0.00    -0.380 C  
BRANCH   5   6
HETATM    6  C   UNL     1     -11.097   7.438  72.685  1.00  0.00    -0.331 C  
HETATM    7  O   UNL     1     -12.266   8.071  73.187  1.00  0.00    -0.659 OA 
HETATM    8  H   UNL     1     -12.945   7.436  73.381  1.00  0.00     0.000 HD 
ENDBRANCH   5   6
ENDBRANCH   2   5
TORSDOF 2
ENDMDL
MODEL      100
REMARK 921   NORMALIZED FREE ENERGY PREDICTED BY IDOCK:   -1.75 KCAL/MOL
REMARK 922        TOTAL FREE ENERGY PREDICTED BY IDOCK:   -2.08 KCAL/MOL
REMARK 923 INTER-LIGAND FREE ENERGY PREDICTED BY IDOCK:   -1.86 KCAL/MOL
REMARK 924 INTRA-LIGAND FREE ENERGY PREDICTED BY IDOCK:   -0.23 KCAL/MOL
REMARK 927      BINDING AFFINITY PREDICTED BY RF-SCORE:    0.00 PKD
ROOT
HETATM    1  C   UNL     1      -8.480  14.061  67.346  1.00  0.00    -0.209 C  
HETATM    2  C   UNL     1      -9.811  13.982  66.613  1.00  0.00    -0.284 C  
HETATM    3  H   UNL     1     -11.653  13.507  67.070  1.00  0.00     0.000 HD 
HETATM    4  O   UNL     1     -10.822  13.556  67.528  1.00  0.00    -0.259 OA 
ENDROOT
BRANCH   2   5
HETATM    5  C   UNL     1     -10.202  15.330  65.997  1.00  0.00    -0.335 C  
BRANCH   5   6
HETATM    6  C   UNL     1     -11.211  15.183  64.860  1.00  0.00    -0.417 C  
HETATM    7  O   UNL     1     -11.874  13.927  64.920  1.00  0.00    -0.352 OA 
HETATM    8  H   UNL     1     -12.502  13.835  64.213  1.00  0.00     0.000 HD 
ENDBRANCH   5   6
ENDBRANCH   2   5
TORSDOF 2
ENDMDL
MODEL      101
REMARK 921   NORMALIZED FREE ENERGY PREDICTED BY IDOCK:   -1.73 KCAL/MOL
REMARK 922        TOTAL FREE ENERGY PREDICTED BY IDOCK:   -2.06 KCAL/MOL
REMARK 923 INTER-LIGAND FREE ENERGY PREDICTED BY IDOCK:   -1.99 KCAL/MOL
REMARK 924 INTRA-LIGAND FREE ENERGY PREDICTED BY IDOCK:   -0.07 KCAL/MOL
REMARK 927      BINDING AFFINITY PREDICTED BY RF-SCORE:    0.00 PKD
ROOT
HETATM    1  C   UNL     1     -10.207  10.517  65.040  1.00  0.00    -0.365 C  
HETATM    2  C   UNL     1      -9.440  11.328  66.075  1.00  0.00    -0.216 C  
HETATM    3  H   UNL     1      -9.407  13.191  66.672  1.00  0.00     0.000 HD 
HETATM    4  O   UNL     1      -9.885  12.685  66.025  1.00  0.00    -0.256 OA 
ENDROOT
BRANCH   2   5
HETATM    5  C   UNL     1      -9.630  10.770  67.490  1.00  0.00    -0.176 C  
BRANCH   5   6
HETATM    6  C   UNL     1     -10.699  11.525  68.277  1.00  0.00    -0.211 C  
HETATM    7  O   UNL     1     -11.921  10.800  68.312  1.00  0.00    -0.768 OA 
HETATM    8  H   UNL     1     -12.586  11.270  68.801  1.00  0.00     0.000 HD 
ENDBRANCH   5   6
ENDBRANCH   2   5
TORSDOF 2
ENDMDL
MODEL      102
REMARK 921   NORMALIZED FREE ENERGY PREDICTED BY IDOCK:   -1.71 KCAL/MOL
REMARK 922        TOTAL FREE ENERGY PREDICTED BY IDOCK:   -2.04 KCAL/MOL
REMARK 923 INTER-LIGAND FREE ENERGY PREDICTED BY IDOCK:   -2.04 KCAL/MOL
REMARK 924 INTRA-LIGAND FREE ENERGY PREDICTED BY IDOCK:   -0.01 KCAL/MOL
REMARK 927      BINDING AFFINITY PREDICTED BY RF-SCORE:    0.00 PKD
ROOT
HETATM    1  C   UNL     1     -12.121  13.807  68.846  1.00  0.00    -0.348 C  
HETATM    2  C   UNL     1     -11.281  14.403  67.725  1.00  0.00    -0.300 C  
HETATM    3  H   UNL     1     -11.541  14.826  65.833  1.00  0.00     0.000 HD 
HETATM    4  O   UNL     1     -12.066  14.454  66.533  1.00  0.00    -0.418 OA 
ENDROOT
BRANCH   2   5
HETATM    5  C   UNL     1     -10.776  15.807  68.077  1.00  0.00    -0.296 C  
BRANCH   5   6
HETATM    6  C   UNL     1     -10.122  15.864  69.456  1.00  0.00    -0.277 C  
HETATM    7  O   UNL     1      -8.989  15.009  69.524  1.00  0.00    -0.397 OA 
HETATM    8  H   UNL     1      -8.583  15.044  70.382  1.00  0.00     0.000 HD 
ENDBRANCH   5   6
ENDBRANCH   2   5
TORSDOF 2
ENDMDL
MODEL      103
REMARK 921   NORMALIZED FREE ENERGY PREDICTED BY IDOCK:   -1.71 KCAL/MOL
REMARK 922        TOTAL FREE ENERGY PREDICTED BY IDOCK:   -2.04 KCAL/MOL
REMARK 923 INTER-LIGAND FREE ENERGY PREDICTED BY IDOCK:   -2.03 KCAL/MOL
REMARK 924 INTRA-LIGAND FREE ENERGY PREDICTED BY IDOCK:   -0.01 KCAL/MOL
REMARK 927      BINDING AFFINITY PREDICTED BY RF-SCORE:    0.00 PKD
ROOT
HETATM    1  C   UNL     1     -10.652   9.666  67.213  1.00  0.00    -0.315 C  
HETATM    2  C   UNL     1     -11.166  11.074  67.482  1.00  0.00    -0.302 C  
HETATM    3  H   UNL     1     -10.663  12.566  68.642  1.00  0.00     0.000 HD 
HETATM    4  O   UNL     1     -10.343  11.687  68.475  1.00  0.00    -0.201 OA 
ENDROOT
BRANCH   2   5
HETATM    5  C   UNL     1     -11.171  11.929  66.209  1.00  0.00    -0.392 C  
BRANCH   5   6
HETATM    6  C   UNL     1     -10.059  11.538  65.238  1.00  0.00    -0.269 C  
HETATM    7  O   UNL     1      -9.905  12.511  64.214  1.00  0.00    -0.549 OA 
HETATM    8  H   UNL     1      -9.213  12.267  63.609  1.00  0.00     0.000 HD 
ENDBRANCH   5   6
ENDBRANCH   2   5
TORSDOF 2
ENDMDL
MODEL      104
REMARK 921   NORMALIZED FREE ENERGY PREDICTED BY IDOCK:   -1.69 KCAL/MOL
REMARK 922        TOTAL FREE ENERGY PREDICTED BY IDOCK:   -2.02 KCAL/MOL
REMARK 923 INTER-LIGAND FREE ENERGY PREDICTED BY IDOCK:   -1.76 KCAL/MOL
REMARK 924 INTRA-LIGAND FREE ENERGY PREDICTED BY IDOCK:   -0.26 KCAL/MOL
REMARK 927      BINDING AFFINITY PREDICTED BY RF-SCORE:    0.00 PKD
ROOT
HETATM    1  C   UNL     1     -11.215   7.852  72.793  1.00  0.00    -0.466 C  
HETATM    2  C   UNL     1     -10.698   8.931  71.852  1.00  0.00    -0.356 C  
HETATM    3  H   UNL     1      -8.967   9.750  71.454  1.00  0.00     0.000 HD 
HETATM    4  O   UNL     1      -9.290   9.077  72.041  1.00  0.00    -0.358 OA 
ENDROOT
BRANCH   2   5
HETATM    5  C   UNL     1     -10.995   8.596  70.386  1.00  0.00    -0.256 C  
BRANCH   5   6
HETATM    6  C   UNL     1      -9.734   8.236  69.603  1.00  0.00    -0.173 C  
HETATM    7  O   UNL     1      -9.236   6.962  69.987  1.00  0.00    -0.154 OA 
HETATM    8  H   UNL     1      -8.452   6.738  69.499  1.00  0.00     0.000 HD 
ENDBRANCH   5   6
ENDBRANCH   2   5
TORSDOF 2
ENDMDL
MODEL      105
REMARK 921   NORMALIZED FREE ENERGY PREDICTED BY IDOCK:   -1.67 KCAL/MOL
REMARK 922        TOTAL FREE ENERGY PREDICTED BY IDOCK:   -1.99 KCAL/MOL
REMARK 923 INTER-LIGAND FREE ENERGY PREDICTED BY IDOCK:   -1.98 KCAL/MOL
REMARK 924 INTRA-LIGAND FREE ENERGY PREDICTED BY IDOCK:   -0.01 KCAL/MOL
REMARK 927      BINDING AFFINITY PREDICTED BY RF-SCORE:    0.00 PKD
ROOT
HETATM    1  C   UNL     1     -10.795  10.555  69.668  1.00  0.00    -0.320 C  
HETATM    2  C   UNL     1     -11.883  11.541  69.266  1.00  0.00    -0.348 C  
HETATM    3  H   UNL     1     -12.595  13.224  69.964  1.00  0.00     0.000 HD 
HETATM    4  O   UNL     1     -11.917  12.608  70.215  1.00  0.00    -0.348 OA 
ENDROOT
BRANCH   2   5
HETATM    5  C   UNL     1     -11.650  12.103  67.859  1.00  0.00    -0.413 C  
BRANCH   5   6
HETATM    6  C   UNL     1     -10.954  11.102  66.938  1.00  0.00    -0.273 C  
HETATM    7  O   UNL     1     -10.861  11.601  65.612  1.00  0.00    -0.276 OA 
HETATM    8  H   UNL     1     -10.428  10.979  65.039  1.00  0.00     0.000 HD 
ENDBRANCH   5   6
ENDBRANCH   2   5
TORSDOF 2
ENDMDL
MODEL      106
REMARK 921   NORMALIZED FREE ENERGY PREDICTED BY IDOCK:   -1.66 KCAL/MOL
REMARK 922        TOTAL FREE ENERGY PREDICTED BY IDOCK:   -1.98 KCAL/MOL
REMARK 923 INTER-LIGAND FREE ENERGY PREDICTED BY IDOCK:   -1.94 KCAL/MOL
REMARK 924 INTRA-LIGAND FREE ENERGY PREDICTED BY IDOCK:   -0.04 KCAL/MOL
REMARK 927      BINDING AFFINITY PREDICTED BY RF-SCORE:    0.00 PKD
ROOT
HETATM    1  C   UNL     1      -9.102   8.569  68.039  1.00  0.00    -0.144 C  
HETATM    2  C   UNL     1     -10.356   8.463  67.182  1.00  0.00    -0.311 C  
HETATM    3  H   UNL     1     -10.847   8.880  65.335  1.00  0.00     0.000 HD 
HETATM    4  O   UNL     1     -10.064   8.947  65.870  1.00  0.00    -0.194 OA 
ENDROOT
BRANCH   2   5
HETATM    5  C   UNL     1     -10.871   7.021  67.103  1.00  0.00    -0.427 C  
BRANCH   5   6
HETATM    6  C   UNL     1     -10.595   6.232  68.381  1.00  0.00    -0.260 C  
HETATM    7  O   UNL     1     -11.673   6.347  69.300  1.00  0.00    -0.608 OA 
HETATM    8  H   UNL     1     -11.501   5.856  70.095  1.00  0.00     0.000 HD 
ENDBRANCH   5   6
ENDBRANCH   2   5
TORSDOF 2
ENDMDL
MODEL      107
REMARK 921   NORMALIZED FREE ENERGY PREDICTED BY IDOCK:   -1.65 KCAL/MOL
REMARK 922        TOTAL FREE ENERGY PREDICTED BY IDOCK:   -1.97 KCAL/MOL
REMARK 923 INTER-LIGAND FREE ENERGY PREDICTED BY IDOCK:   -1.96 KCAL/MOL
REMARK 924 INTRA-LIGAND FREE ENERGY PREDICTED BY IDOCK:   -0.01 KCAL/MOL
REMARK 927      BINDING AFFINITY PREDICTED BY RF-SCORE:    0.00 PKD
ROOT
HETATM    1  C   UNL     1     -10.990  10.529  69.559  1.00  0.00    -0.312 C  
HETATM    2  C   UNL     1     -12.015  11.625  69.304  1.00  0.00    -0.317 C  
HETATM    3  H   UNL     1     -13.182  12.753  70.397  1.00  0.00     0.000 HD 
HETATM    4  O   UNL     1     -12.542  12.069  70.556  1.00  0.00    -0.216 OA 
ENDROOT
BRANCH   2   5
HETATM    5  C   UNL     1     -11.405  12.810  68.547  1.00  0.00    -0.326 C  
BRANCH   5   6
HETATM    6  C   UNL     1     -12.049  14.141  68.928  1.00  0.00    -0.304 C  
HETATM    7  O   UNL     1     -11.971  15.075  67.860  1.00  0.00    -0.489 OA 
HETATM    8  H   UNL     1     -12.372  15.904  68.098  1.00  0.00     0.000 HD 
ENDBRANCH   5   6
ENDBRANCH   2   5
TORSDOF 2
ENDMDL
MODEL      108
REMARK 921   NORMALIZED FREE ENERGY PREDICTED BY IDOCK:   -1.64 KCAL/MOL
REMARK 922        TOTAL FREE ENERGY PREDICTED BY IDOCK:   -1.96 KCAL/MOL
REMARK 923 INTER-LIGAND FREE ENERGY PREDICTED BY IDOCK:   -1.95 KCAL/MOL
REMARK 924 INTRA-LIGAND FREE ENERGY PREDICTED BY IDOCK:   -0.02 KCAL/MOL
REMARK 927      BINDING AFFINITY PREDICTED BY RF-SCORE:    0.00 PKD
ROOT
HETATM    1  C   UNL     1     -10.560  15.584  66.464  1.00  0.00    -0.307 C  
HETATM    2  C   UNL     1      -9.983  14.256  65.994  1.00  0.00    -0.319 C  
HETATM    3  H   UNL     1      -9.022  12.762  66.814  1.00  0.00     0.000 HD 
HETATM    4  O   UNL     1      -9.381  13.591  67.107  1.00  0.00    -0.222 OA 
ENDROOT
BRANCH   2   5
HETATM    5  C   UNL     1     -11.057  13.358  65.370  1.00  0.00    -0.301 C  
BRANCH   5   6
HETATM    6  C   UNL     1     -10.484  12.049  64.832  1.00  0.00    -0.285 C  
HETATM    7  O   UNL     1      -9.939  12.221  63.531  1.00  0.00    -0.512 OA 
HETATM    8  H   UNL     1      -9.583  11.407  63.196  1.00  0.00     0.000 HD 
ENDBRANCH   5   6
ENDBRANCH   2   5
TORSDOF 2
ENDMDL
MODEL      109
REMARK 921   NORMALIZED FREE ENERGY PREDICTED BY IDOCK:   -1.64 KCAL/MOL
REMARK 922        TOTAL FREE ENERGY PREDICTED BY IDOCK:   -1.96 KCAL/MOL
REMARK 923 INTER-LIGAND FREE ENERGY PREDICTED BY IDOCK:   -1.92 KCAL/MOL
REMARK 924 INTRA-LIGAND FREE ENERGY PREDICTED BY IDOCK:   -0.04 KCAL/MOL
REMARK 927      BINDING AFFINITY PREDICTED BY RF-SCORE:    0.00 PKD
ROOT
HETATM    1  C   UNL     1     -10.809   6.387  73.194  1.00  0.00    -0.282 C  
HETATM    2  C   UNL     1     -10.176   6.804  71.874  1.00  0.00    -0.189 C  
HETATM    3  H   UNL     1      -8.436   7.480  71.290  1.00  0.00     0.000 HD 
HETATM    4  O   UNL     1      -8.831   7.220  72.114  1.00  0.00    -0.126 OA 
ENDROOT
BRANCH   2   5
HETATM    5  C   UNL     1     -10.193   5.663  70.850  1.00  0.00    -0.286 C  
BRANCH   5   6
HETATM    6  C   UNL     1     -11.025   6.000  69.614  1.00  0.00    -0.400 C  
HETATM    7  O   UNL     1     -12.171   6.767  69.958  1.00  0.00    -0.641 OA 
HETATM    8  H   UNL     1     -12.688   6.977  69.189  1.00  0.00     0.000 HD 
ENDBRANCH   5   6
ENDBRANCH   2   5
TORSDOF 2
ENDMDL
MODEL      110
REMARK 921   NORMALIZED FREE ENERGY PREDICTED BY IDOCK:   -1.64 KCAL/MOL
REMARK 922        TOTAL FREE ENERGY PREDICTED BY IDOCK:   -1.96 KCAL/MOL
REMARK 923 INTER-LIGAND FREE ENERGY PREDICTED BY IDOCK:   -1.92 KCAL/MOL
REMARK 924 INTRA-LIGAND FREE ENERGY PREDICTED BY IDOCK:   -0.04 KCAL/MOL
REMARK 927      BINDING AFFINITY PREDICTED BY RF-SCORE:    0.00 PKD
ROOT
HETATM    1  C   UNL     1     -13.014  13.833  65.338  1.00  0.00    -0.361 C  
HETATM    2  C   UNL     1     -11.731  14.094  66.115  1.00  0.00    -0.393 C  
HETATM    3  H   UNL     1     -10.160  15.242  65.908  1.00  0.00     0.000 HD 
HETATM    4  O   UNL     1     -10.961  15.079  65.423  1.00  0.00    -0.334 OA 
ENDROOT
BRANCH   2   5
HETATM    5  C   UNL     1     -12.018  14.568  67.545  1.00  0.00    -0.358 C  
BRANCH   5   6
HETATM    6  C   UNL     1     -12.128  13.410  68.533  1.00  0.00    -0.248 C  
HETATM    7  O   UNL     1     -11.049  12.499  68.381  1.00  0.00    -0.228 OA 
HETATM    8  H   UNL     1     -11.117  11.778  68.996  1.00  0.00     0.000 HD 
ENDBRANCH   5   6
ENDBRANCH   2   5
TORSDOF 2
ENDMDL
MODEL      111
REMARK 921   NORMALIZED FREE ENERGY PREDICTED BY IDOCK:   -1.64 KCAL/MOL
REMARK 922        TOTAL FREE ENERGY PREDICTED BY IDOCK:   -1.96 KCAL/MOL
REMARK 923 INTER-LIGAND FREE ENERGY PREDICTED BY IDOCK:   -1.79 KCAL/MOL
REMARK 924 INTRA-LIGAND FREE ENERGY PREDICTED BY IDOCK:   -0.17 KCAL/MOL
REMARK 927      BINDING AFFINITY PREDICTED BY RF-SCORE:    0.00 PKD
ROOT
HETATM    1  C   UNL     1     -10.198  15.271  69.540  1.00  0.00    -0.265 C  
HETATM    2  C   UNL     1      -9.875  15.804  68.151  1.00  0.00    -0.209 C  
HETATM    3  H   UNL     1     -10.414  17.337  67.063  1.00  0.00     0.000 HD 
HETATM    4  O   UNL     1     -10.616  17.005  67.930  1.00  0.00    -0.345 OA 
ENDROOT
BRANCH   2   5
HETATM    5  C   UNL     1      -8.376  16.079  67.982  1.00  0.00    -0.162 C  
BRANCH   5   6
HETATM    6  C   UNL     1      -7.979  16.273  66.520  1.00  0.00    -0.291 C  
HETATM    7  O   UNL     1      -9.069  16.763  65.752  1.00  0.00    -0.515 OA 
HETATM    8  H   UNL     1      -8.822  16.884  64.842  1.00  0.00     0.000 HD 
ENDBRANCH   5   6
ENDBRANCH   2   5
TORSDOF 2
ENDMDL
MODEL      112
REMARK 921   NORMALIZED FREE ENERGY PREDICTED BY IDOCK:   -1.63 KCAL/MOL
REMARK 922        TOTAL FREE ENERGY PREDICTED BY IDOCK:   -1.95 KCAL/MOL
REMARK 923 INTER-LIGAND FREE ENERGY PREDICTED BY IDOCK:   -1.94 KCAL/MOL
REMARK 924 INTRA-LIGAND FREE ENERGY PREDICTED BY IDOCK:   -0.01 KCAL/MOL
REMARK 927      BINDING AFFINITY PREDICTED BY RF-SCORE:    0.00 PKD
ROOT
HETATM    1  C   UNL     1      -9.844   4.283  71.649  1.00  0.00    -0.257 C  
HETATM    2  C   UNL     1     -10.909   5.117  72.347  1.00  0.00    -0.203 C  
HETATM    3  H   UNL     1     -11.276   5.697  74.179  1.00  0.00     0.000 HD 
HETATM    4  O   UNL     1     -10.611   5.176  73.743  1.00  0.00    -0.238 OA 
ENDROOT
BRANCH   2   5
HETATM    5  C   UNL     1     -10.989   6.535  71.771  1.00  0.00    -0.287 C  
BRANCH   5   6
HETATM    6  C   UNL     1     -11.657   6.572  70.399  1.00  0.00    -0.407 C  
HETATM    7  O   UNL     1     -12.980   7.084  70.483  1.00  0.00    -0.551 OA 
HETATM    8  H   UNL     1     -13.395   7.106  69.629  1.00  0.00     0.000 HD 
ENDBRANCH   5   6
ENDBRANCH   2   5
TORSDOF 2
ENDMDL
MODEL      113
REMARK 921   NORMALIZED FREE ENERGY PREDICTED BY IDOCK:   -1.61 KCAL/MOL
REMARK 922        TOTAL FREE ENERGY PREDICTED BY IDOCK:   -1.93 KCAL/MOL
REMARK 923 INTER-LIGAND FREE ENERGY PREDICTED BY IDOCK:   -1.92 KCAL/MOL
REMARK 924 INTRA-LIGAND FREE ENERGY PREDICTED BY IDOCK:   -0.01 KCAL/MOL
REMARK 927      BINDING AFFINITY PREDICTED BY RF-SCORE:    0.00 PKD
ROOT
HETATM    1  C   UNL     1     -11.885  11.460  69.824  1.00  0.00    -0.435 C  
HETATM    2  C   UNL     1     -11.887  10.441  70.954  1.00  0.00    -0.377 C  
HETATM    3  H   UNL     1     -13.232   9.391  71.911  1.00  0.00     0.000 HD 
HETATM    4  O   UNL     1     -13.231  10.027  71.205  1.00  0.00    -0.381 OA 
ENDROOT
BRANCH   2   5
HETATM    5  C   UNL     1     -11.020   9.220  70.621  1.00  0.00    -0.336 C  
BRANCH   5   6
HETATM    6  C   UNL     1      -9.619   9.609  70.155  1.00  0.00    -0.254 C  
HETATM    7  O   UNL     1      -8.850   8.461  69.824  1.00  0.00    -0.132 OA 
HETATM    8  H   UNL     1      -7.978   8.703  69.534  1.00  0.00     0.000 HD 
ENDBRANCH   5   6
ENDBRANCH   2   5
TORSDOF 2
ENDMDL
MODEL      114
REMARK 921   NORMALIZED FREE ENERGY PREDICTED BY IDOCK:   -1.61 KCAL/MOL
REMARK 922        TOTAL FREE ENERGY PREDICTED BY IDOCK:   -1.92 KCAL/MOL
REMARK 923 INTER-LIGAND FREE ENERGY PREDICTED BY IDOCK:   -1.91 KCAL/MOL
REMARK 924 INTRA-LIGAND FREE ENERGY PREDICTED BY IDOCK:   -0.01 KCAL/MOL
REMARK 927      BINDING AFFINITY PREDICTED BY RF-SCORE:    0.00 PKD
ROOT
HETATM    1  C   UNL     1     -11.244  13.363  68.982  1.00  0.00    -0.323 C  
HETATM    2  C   UNL     1     -12.283  14.475  68.974  1.00  0.00    -0.180 C  
HETATM    3  H   UNL     1     -13.434  15.345  70.295  1.00  0.00     0.000 HD 
HETATM    4  O   UNL     1     -12.786  14.651  70.300  1.00  0.00    -0.335 OA 
ENDROOT
BRANCH   2   5
HETATM    5  C   UNL     1     -11.700  15.795  68.459  1.00  0.00    -0.328 C  
BRANCH   5   6
HETATM    6  C   UNL     1     -10.627  16.361  69.387  1.00  0.00    -0.317 C  
HETATM    7  O   UNL     1     -10.499  17.767  69.229  1.00  0.00    -0.426 OA 
HETATM    8  H   UNL     1      -9.831  18.119  69.806  1.00  0.00     0.000 HD 
ENDBRANCH   5   6
ENDBRANCH   2   5
TORSDOF 2
ENDMDL
MODEL      115
REMARK 921   NORMALIZED FREE ENERGY PREDICTED BY IDOCK:   -1.59 KCAL/MOL
REMARK 922        TOTAL FREE ENERGY PREDICTED BY IDOCK:   -1.90 KCAL/MOL
REMARK 923 INTER-LIGAND FREE ENERGY PREDICTED BY IDOCK:   -1.89 KCAL/MOL
REMARK 924 INTRA-LIGAND FREE ENERGY PREDICTED BY IDOCK:   -0.01 KCAL/MOL
REMARK 927      BINDING AFFINITY PREDICTED BY RF-SCORE:    0.00 PKD
ROOT
HETATM    1  C   UNL     1      -8.703  15.385  68.249  1.00  0.00    -0.164 C  
HETATM    2  C   UNL     1      -9.838  16.063  67.496  1.00  0.00    -0.235 C  
HETATM    3  H   UNL     1     -11.768  15.802  67.311  1.00  0.00     0.000 HD 
HETATM    4  O   UNL     1     -11.059  15.379  67.781  1.00  0.00    -0.303 OA 
ENDROOT
BRANCH   2   5
HETATM    5  C   UNL     1      -9.970  17.543  67.876  1.00  0.00    -0.312 C  
BRANCH   5   6
HETATM    6  C   UNL     1     -10.367  18.418  66.690  1.00  0.00    -0.396 C  
HETATM    7  O   UNL     1     -10.830  19.690  67.121  1.00  0.00    -0.484 OA 
HETATM    8  H   UNL     1     -11.078  20.235  66.382  1.00  0.00     0.000 HD 
ENDBRANCH   5   6
ENDBRANCH   2   5
TORSDOF 2
ENDMDL
MODEL      116
REMARK 921   NORMALIZED FREE ENERGY PREDICTED BY IDOCK:   -1.58 KCAL/MOL
REMARK 922        TOTAL FREE ENERGY PREDICTED BY IDOCK:   -1.89 KCAL/MOL
REMARK 923 INTER-LIGAND FREE ENERGY PREDICTED BY IDOCK:   -1.86 KCAL/MOL
REMARK 924 INTRA-LIGAND FREE ENERGY PREDICTED BY IDOCK:   -0.03 KCAL/MOL
REMARK 927      BINDING AFFINITY PREDICTED BY RF-SCORE:    0.00 PKD
ROOT
HETATM    1  C   UNL     1     -12.571   7.171  71.407  1.00  0.00    -0.432 C  
HETATM    2  C   UNL     1     -11.431   6.357  70.811  1.00  0.00    -0.353 C  
HETATM    3  H   UNL     1     -10.723   6.012  69.021  1.00  0.00     0.000 HD 
HETATM    4  O   UNL     1     -11.435   6.520  69.392  1.00  0.00    -0.355 OA 
ENDROOT
BRANCH   2   5
HETATM    5  C   UNL     1     -10.072   6.782  71.380  1.00  0.00    -0.198 C  
BRANCH   5   6
HETATM    6  C   UNL     1      -9.600   8.124  70.823  1.00  0.00    -0.166 C  
HETATM    7  O   UNL     1      -9.175   8.992  71.864  1.00  0.00    -0.353 OA 
HETATM    8  H   UNL     1      -8.882   9.827  71.518  1.00  0.00     0.000 HD 
ENDBRANCH   5   6
ENDBRANCH   2   5
TORSDOF 2
ENDMDL
MODEL      117
REMARK 921   NORMALIZED FREE ENERGY PREDICTED BY IDOCK:   -1.58 KCAL/MOL
REMARK 922        TOTAL FREE ENERGY PREDICTED BY IDOCK:   -1.89 KCAL/MOL
REMARK 923 INTER-LIGAND FREE ENERGY PREDICTED BY IDOCK:   -1.85 KCAL/MOL
REMARK 924 INTRA-LIGAND FREE ENERGY PREDICTED BY IDOCK:   -0.03 KCAL/MOL
REMARK 927      BINDING AFFINITY PREDICTED BY RF-SCORE:    0.00 PKD
ROOT
HETATM    1  C   UNL     1     -11.056   6.375  67.798  1.00  0.00    -0.376 C  
HETATM    2  C   UNL     1     -10.048   6.888  68.817  1.00  0.00    -0.166 C  
HETATM    3  H   UNL     1      -8.626   8.231  68.848  1.00  0.00     0.000 HD 
HETATM    4  O   UNL     1      -9.255   7.911  68.211  1.00  0.00    -0.138 OA 
ENDROOT
BRANCH   2   5
HETATM    5  C   UNL     1     -10.737   7.438  70.071  1.00  0.00    -0.258 C  
BRANCH   5   6
HETATM    6  C   UNL     1     -11.877   6.542  70.551  1.00  0.00    -0.328 C  
HETATM    7  O   UNL     1     -13.028   7.306  70.882  1.00  0.00    -0.588 OA 
HETATM    8  H   UNL     1     -13.737   6.748  71.181  1.00  0.00     0.000 HD 
ENDBRANCH   5   6
ENDBRANCH   2   5
TORSDOF 2
ENDMDL
MODEL      118
REMARK 921   NORMALIZED FREE ENERGY PREDICTED BY IDOCK:   -1.54 KCAL/MOL
REMARK 922        TOTAL FREE ENERGY PREDICTED BY IDOCK:   -1.85 KCAL/MOL
REMARK 923 INTER-LIGAND FREE ENERGY PREDICTED BY IDOCK:   -1.84 KCAL/MOL
REMARK 924 INTRA-LIGAND FREE ENERGY PREDICTED BY IDOCK:   -0.02 KCAL/MOL
REMARK 927      BINDING AFFINITY PREDICTED BY RF-SCORE:    0.00 PKD
ROOT
HETATM    1  C   UNL     1      -9.087   8.243  68.780  1.00  0.00    -0.144 C  
HETATM    2  C   UNL     1      -9.424   8.621  67.344  1.00  0.00    -0.150 C  
HETATM    3  H   UNL     1      -9.894   7.667  65.703  1.00  0.00     0.000 HD 
HETATM    4  O   UNL     1      -9.683   7.431  66.598  1.00  0.00    -0.197 OA 
ENDROOT
BRANCH   2   5
HETATM    5  C   UNL     1     -10.639   9.555  67.272  1.00  0.00    -0.317 C  
BRANCH   5   6
HETATM    6  C   UNL     1     -11.040  10.098  68.642  1.00  0.00    -0.205 C  
HETATM    7  O   UNL     1     -12.265  10.813  68.573  1.00  0.00    -0.824 OA 
HETATM    8  H   UNL     1     -12.515  11.151  69.426  1.00  0.00     0.000 HD 
ENDBRANCH   5   6
ENDBRANCH   2   5
TORSDOF 2
ENDMDL
MODEL      119
REMARK 921   NORMALIZED FREE ENERGY PREDICTED BY IDOCK:   -1.54 KCAL/MOL
REMARK 922        TOTAL FREE ENERGY PREDICTED BY IDOCK:   -1.85 KCAL/MOL
REMARK 923 INTER-LIGAND FREE ENERGY PREDICTED BY IDOCK:   -1.84 KCAL/MOL
REMARK 924 INTRA-LIGAND FREE ENERGY PREDICTED BY IDOCK:   -0.01 KCAL/MOL
REMARK 927      BINDING AFFINITY PREDICTED BY RF-SCORE:    0.00 PKD
ROOT
HETATM    1  C   UNL     1      -8.226  14.219  68.642  1.00  0.00    -0.139 C  
HETATM    2  C   UNL     1      -9.610  14.826  68.466  1.00  0.00    -0.218 C  
HETATM    3  H   UNL     1     -11.432  14.152  68.234  1.00  0.00     0.000 HD 
HETATM    4  O   UNL     1     -10.568  13.773  68.343  1.00  0.00    -0.240 OA 
ENDROOT
BRANCH   2   5
HETATM    5  C   UNL     1      -9.985  15.737  69.640  1.00  0.00    -0.284 C  
BRANCH   5   6
HETATM    6  C   UNL     1     -11.479  15.696  69.958  1.00  0.00    -0.344 C  
HETATM    7  O   UNL     1     -11.774  16.424  71.142  1.00  0.00    -0.610 OA 
HETATM    8  H   UNL     1     -12.703  16.398  71.339  1.00  0.00     0.000 HD 
ENDBRANCH   5   6
ENDBRANCH   2   5
TORSDOF 2
ENDMDL
MODEL      120
REMARK 921   NORMALIZED FREE ENERGY PREDICTED BY IDOCK:   -1.54 KCAL/MOL
REMARK 922        TOTAL FREE ENERGY PREDICTED BY IDOCK:   -1.84 KCAL/MOL
REMARK 923 INTER-LIGAND FREE ENERGY PREDICTED BY IDOCK:   -1.63 KCAL/MOL
REMARK 924 INTRA-LIGAND FREE ENERGY PREDICTED BY IDOCK:   -0.22 KCAL/MOL
REMARK 927      BINDING AFFINITY PREDICTED BY RF-SCORE:    0.00 PKD
ROOT
HETATM    1  C   UNL     1      -8.297   5.291  69.723  1.00  0.00    -0.098 C  
HETATM    2  C   UNL     1      -9.225   6.074  70.640  1.00  0.00    -0.150 C  
HETATM    3  H   UNL     1      -9.933   7.897  70.716  1.00  0.00     0.000 HD 
HETATM    4  O   UNL     1      -9.353   7.408  70.144  1.00  0.00    -0.158 OA 
ENDROOT
BRANCH   2   5
HETATM    5  C   UNL     1     -10.609   5.422  70.740  1.00  0.00    -0.293 C  
BRANCH   5   6
HETATM    6  C   UNL     1     -11.649   6.350  71.364  1.00  0.00    -0.311 C  
HETATM    7  O   UNL     1     -12.356   7.075  70.367  1.00  0.00    -0.615 OA 
HETATM    8  H   UNL     1     -13.003   7.652  70.756  1.00  0.00     0.000 HD 
ENDBRANCH   5   6
ENDBRANCH   2   5
TORSDOF 2
ENDMDL
MODEL      121
REMARK 921   NORMALIZED FREE ENERGY PREDICTED BY IDOCK:   -1.53 KCAL/MOL
REMARK 922        TOTAL FREE ENERGY PREDICTED BY IDOCK:   -1.84 KCAL/MOL
REMARK 923 INTER-LIGAND FREE ENERGY PREDICTED BY IDOCK:   -1.58 KCAL/MOL
REMARK 924 INTRA-LIGAND FREE ENERGY PREDICTED BY IDOCK:   -0.26 KCAL/MOL
REMARK 927      BINDING AFFINITY PREDICTED BY RF-SCORE:    0.00 PKD
ROOT
HETATM    1  C   UNL     1     -10.790   6.120  67.006  1.00  0.00    -0.435 C  
HETATM    2  C   UNL     1      -9.357   6.620  67.114  1.00  0.00    -0.134 C  
HETATM    3  H   UNL     1      -7.792   6.694  65.943  1.00  0.00     0.000 HD 
HETATM    4  O   UNL     1      -8.686   6.382  65.876  1.00  0.00    -0.149 OA 
ENDROOT
BRANCH   2   5
HETATM    5  C   UNL     1      -9.300   8.113  67.458  1.00  0.00    -0.165 C  
BRANCH   5   6
HETATM    6  C   UNL     1     -10.118   8.967  66.492  1.00  0.00    -0.286 C  
HETATM    7  O   UNL     1      -9.445   9.126  65.250  1.00  0.00    -0.411 OA 
HETATM    8  H   UNL     1      -9.954   9.658  64.649  1.00  0.00     0.000 HD 
ENDBRANCH   5   6
ENDBRANCH   2   5
TORSDOF 2
ENDMDL
MODEL      122
REMARK 921   NORMALIZED FREE ENERGY PREDICTED BY IDOCK:   -1.53 KCAL/MOL
REMARK 922        TOTAL FREE ENERGY PREDICTED BY IDOCK:   -1.83 KCAL/MOL
REMARK 923 INTER-LIGAND FREE ENERGY PREDICTED BY IDOCK:   -1.57 KCAL/MOL
REMARK 924 INTRA-LIGAND FREE ENERGY PREDICTED BY IDOCK:   -0.26 KCAL/MOL
REMARK 927      BINDING AFFINITY PREDICTED BY RF-SCORE:    0.00 PKD
ROOT
HETATM    1  C   UNL     1      -6.466  17.539  68.874  1.00  0.00    -0.213 C  
HETATM    2  C   UNL     1      -5.929  18.125  67.576  1.00  0.00    -0.157 C  
HETATM    3  H   UNL     1      -5.288  17.424  65.866  1.00  0.00     0.000 HD 
HETATM    4  O   UNL     1      -5.623  17.058  66.676  1.00  0.00    -0.199 OA 
ENDROOT
BRANCH   2   5
HETATM    5  C   UNL     1      -6.935  19.081  66.925  1.00  0.00    -0.209 C  
BRANCH   5   6
HETATM    6  C   UNL     1      -8.320  18.455  66.769  1.00  0.00    -0.259 C  
HETATM    7  O   UNL     1      -8.332  17.487  65.729  1.00  0.00    -0.538 OA 
HETATM    8  H   UNL     1      -9.194  17.097  65.632  1.00  0.00     0.000 HD 
ENDBRANCH   5   6
ENDBRANCH   2   5
TORSDOF 2
ENDMDL
MODEL      123
REMARK 921   NORMALIZED FREE ENERGY PREDICTED BY IDOCK:   -1.53 KCAL/MOL
REMARK 922        TOTAL FREE ENERGY PREDICTED BY IDOCK:   -1.83 KCAL/MOL
REMARK 923 INTER-LIGAND FREE ENERGY PREDICTED BY IDOCK:   -1.80 KCAL/MOL
REMARK 924 INTRA-LIGAND FREE ENERGY PREDICTED BY IDOCK:   -0.03 KCAL/MOL
REMARK 927      BINDING AFFINITY PREDICTED BY RF-SCORE:    0.00 PKD
ROOT
HETATM    1  C   UNL     1      -6.995  19.584  69.329  1.00  0.00    -0.385 C  
HETATM    2  C   UNL     1      -8.185  18.926  68.646  1.00  0.00    -0.345 C  
HETATM    3  H   UNL     1     -10.134  19.043  68.774  1.00  0.00     0.000 HD 
HETATM    4  O   UNL     1      -9.391  19.454  69.201  1.00  0.00    -0.341 OA 
ENDROOT
BRANCH   2   5
HETATM    5  C   UNL     1      -8.167  19.152  67.129  1.00  0.00    -0.290 C  
BRANCH   5   6
HETATM    6  C   UNL     1      -7.613  17.950  66.366  1.00  0.00    -0.273 C  
HETATM    7  O   UNL     1      -6.193  17.975  66.328  1.00  0.00    -0.171 OA 
HETATM    8  H   UNL     1      -5.849  17.227  65.853  1.00  0.00     0.000 HD 
ENDBRANCH   5   6
ENDBRANCH   2   5
TORSDOF 2
ENDMDL
MODEL      124
REMARK 921   NORMALIZED FREE ENERGY PREDICTED BY IDOCK:   -1.52 KCAL/MOL
REMARK 922        TOTAL FREE ENERGY PREDICTED BY IDOCK:   -1.83 KCAL/MOL
REMARK 923 INTER-LIGAND FREE ENERGY PREDICTED BY IDOCK:   -1.80 KCAL/MOL
REMARK 924 INTRA-LIGAND FREE ENERGY PREDICTED BY IDOCK:   -0.03 KCAL/MOL
REMARK 927      BINDING AFFINITY PREDICTED BY RF-SCORE:    0.00 PKD
ROOT
HETATM    1  C   UNL     1      -9.817   5.297  68.151  1.00  0.00    -0.198 C  
HETATM    2  C   UNL     1     -10.975   6.284  68.181  1.00  0.00    -0.323 C  
HETATM    3  H   UNL     1     -12.330   6.836  69.480  1.00  0.00     0.000 HD 
HETATM    4  O   UNL     1     -11.607   6.220  69.461  1.00  0.00    -0.423 OA 
ENDROOT
BRANCH   2   5
HETATM    5  C   UNL     1     -10.509   7.718  67.902  1.00  0.00    -0.263 C  
BRANCH   5   6
HETATM    6  C   UNL     1      -9.287   7.767  66.988  1.00  0.00    -0.157 C  
HETATM    7  O   UNL     1      -9.642   8.175  65.675  1.00  0.00    -0.433 OA 
HETATM    8  H   UNL     1      -8.882   8.206  65.106  1.00  0.00     0.000 HD 
ENDBRANCH   5   6
ENDBRANCH   2   5
TORSDOF 2
ENDMDL
MODEL      125
REMARK 921   NORMALIZED FREE ENERGY PREDICTED BY IDOCK:   -1.51 KCAL/MOL
REMARK 922        TOTAL FREE ENERGY PREDICTED BY IDOCK:   -1.81 KCAL/MOL
REMARK 923 INTER-LIGAND FREE ENERGY PREDICTED BY IDOCK:   -1.79 KCAL/MOL
REMARK 924 INTRA-LIGAND FREE ENERGY PREDICTED BY IDOCK:   -0.02 KCAL/MOL
REMARK 927      BINDING AFFINITY PREDICTED BY RF-SCORE:    0.00 PKD
ROOT
HETATM    1  C   UNL     1      -7.967   7.867  68.633  1.00  0.00    -0.124 C  
HETATM    2  C   UNL     1      -9.374   7.884  69.213  1.00  0.00    -0.148 C  
HETATM    3  H   UNL     1     -10.247   8.646  70.789  1.00  0.00     0.000 HD 
HETATM    4  O   UNL     1      -9.368   8.636  70.428  1.00  0.00    -0.158 OA 
ENDROOT
BRANCH   2   5
HETATM    5  C   UNL     1     -10.386   8.489  68.232  1.00  0.00    -0.246 C  
BRANCH   5   6
HETATM    6  C   UNL     1     -10.554   7.643  66.971  1.00  0.00    -0.336 C  
HETATM    7  O   UNL     1     -11.533   6.630  67.158  1.00  0.00    -0.779 OA 
HETATM    8  H   UNL     1     -11.637   6.104  66.374  1.00  0.00     0.000 HD 
ENDBRANCH   5   6
ENDBRANCH   2   5
TORSDOF 2
ENDMDL
MODEL      126
REMARK 921   NORMALIZED FREE ENERGY PREDICTED BY IDOCK:   -1.50 KCAL/MOL
REMARK 922        TOTAL FREE ENERGY PREDICTED BY IDOCK:   -1.80 KCAL/MOL
REMARK 923 INTER-LIGAND FREE ENERGY PREDICTED BY IDOCK:   -1.56 KCAL/MOL
REMARK 924 INTRA-LIGAND FREE ENERGY PREDICTED BY IDOCK:   -0.24 KCAL/MOL
REMARK 927      BINDING AFFINITY PREDICTED BY RF-SCORE:    0.00 PKD
ROOT
HETATM    1  C   UNL     1     -11.420  14.119  68.626  1.00  0.00    -0.332 C  
HETATM    2  C   UNL     1     -10.787  13.187  67.604  1.00  0.00    -0.254 C  
HETATM    3  H   UNL     1      -8.976  12.799  66.973  1.00  0.00     0.000 HD 
HETATM    4  O   UNL     1      -9.371  13.381  67.611  1.00  0.00    -0.201 OA 
ENDROOT
BRANCH   2   5
HETATM    5  C   UNL     1     -11.112  11.717  67.896  1.00  0.00    -0.302 C  
BRANCH   5   6
HETATM    6  C   UNL     1     -10.779  10.800  66.721  1.00  0.00    -0.231 C  
HETATM    7  O   UNL     1     -10.369  11.548  65.585  1.00  0.00    -0.242 OA 
HETATM    8  H   UNL     1     -10.162  10.978  64.853  1.00  0.00     0.000 HD 
ENDBRANCH   5   6
ENDBRANCH   2   5
TORSDOF 2
ENDMDL
MODEL      127
REMARK 921   NORMALIZED FREE ENERGY PREDICTED BY IDOCK:   -1.47 KCAL/MOL
REMARK 922        TOTAL FREE ENERGY PREDICTED BY IDOCK:   -1.77 KCAL/MOL
REMARK 923 INTER-LIGAND FREE ENERGY PREDICTED BY IDOCK:   -1.54 KCAL/MOL
REMARK 924 INTRA-LIGAND FREE ENERGY PREDICTED BY IDOCK:   -0.22 KCAL/MOL
REMARK 927      BINDING AFFINITY PREDICTED BY RF-SCORE:    0.00 PKD
ROOT
HETATM    1  C   UNL     1      -8.065  10.934  68.423  1.00  0.00    -0.131 C  
HETATM    2  C   UNL     1      -9.350  11.002  67.609  1.00  0.00    -0.157 C  
HETATM    3  H   UNL     1     -11.223  10.508  67.878  1.00  0.00     0.000 HD 
HETATM    4  O   UNL     1     -10.421  10.466  68.386  1.00  0.00    -0.170 OA 
ENDROOT
BRANCH   2   5
HETATM    5  C   UNL     1      -9.680  12.438  67.187  1.00  0.00    -0.207 C  
BRANCH   5   6
HETATM    6  C   UNL     1     -11.104  12.844  67.560  1.00  0.00    -0.269 C  
HETATM    7  O   UNL     1     -12.052  12.278  66.666  1.00  0.00    -0.612 OA 
HETATM    8  H   UNL     1     -12.938  12.530  66.898  1.00  0.00     0.000 HD 
ENDBRANCH   5   6
ENDBRANCH   2   5
TORSDOF 2
ENDMDL
MODEL      128
REMARK 921   NORMALIZED FREE ENERGY PREDICTED BY IDOCK:   -1.45 KCAL/MOL
REMARK 922        TOTAL FREE ENERGY PREDICTED BY IDOCK:   -1.74 KCAL/MOL
REMARK 923 INTER-LIGAND FREE ENERGY PREDICTED BY IDOCK:   -1.73 KCAL/MOL
REMARK 924 INTRA-LIGAND FREE ENERGY PREDICTED BY IDOCK:   -0.02 KCAL/MOL
REMARK 927      BINDING AFFINITY PREDICTED BY RF-SCORE:    0.00 PKD
ROOT
HETATM    1  C   UNL     1      -7.398  14.629  67.822  1.00  0.00    -0.188 C  
HETATM    2  C   UNL     1      -6.748  16.005  67.835  1.00  0.00    -0.141 C  
HETATM    3  H   UNL     1      -5.072  16.784  67.194  1.00  0.00     0.000 HD 
HETATM    4  O   UNL     1      -5.478  15.925  67.186  1.00  0.00    -0.334 OA 
ENDROOT
BRANCH   2   5
HETATM    5  C   UNL     1      -7.622  17.055  67.140  1.00  0.00    -0.205 C  
BRANCH   5   6
HETATM    6  C   UNL     1      -8.705  16.426  66.265  1.00  0.00    -0.334 C  
HETATM    7  O   UNL     1      -9.633  17.402  65.813  1.00  0.00    -0.526 OA 
HETATM    8  H   UNL     1     -10.307  17.011  65.269  1.00  0.00     0.000 HD 
ENDBRANCH   5   6
ENDBRANCH   2   5
TORSDOF 2
ENDMDL
MODEL      129
REMARK 921   NORMALIZED FREE ENERGY PREDICTED BY IDOCK:   -1.44 KCAL/MOL
REMARK 922        TOTAL FREE ENERGY PREDICTED BY IDOCK:   -1.74 KCAL/MOL
REMARK 923 INTER-LIGAND FREE ENERGY PREDICTED BY IDOCK:   -1.49 KCAL/MOL
REMARK 924 INTRA-LIGAND FREE ENERGY PREDICTED BY IDOCK:   -0.25 KCAL/MOL
REMARK 927      BINDING AFFINITY PREDICTED BY RF-SCORE:    0.00 PKD
ROOT
HETATM    1  C   UNL     1     -10.684   8.625  71.777  1.00  0.00    -0.392 C  
HETATM    2  C   UNL     1     -10.045   7.467  72.530  1.00  0.00    -0.192 C  
HETATM    3  H   UNL     1      -8.852   5.980  72.092  1.00  0.00     0.000 HD 
HETATM    4  O   UNL     1      -9.251   6.703  71.622  1.00  0.00    -0.146 OA 
ENDROOT
BRANCH   2   5
HETATM    5  C   UNL     1      -9.178   7.956  73.696  1.00  0.00    -0.320 C  
BRANCH   5   6
HETATM    6  C   UNL     1      -7.684   7.816  73.411  1.00  0.00    -0.130 C  
HETATM    7  O   UNL     1      -7.239   8.807  72.495  1.00  0.00    -0.313 OA 
HETATM    8  H   UNL     1      -6.310   8.720  72.317  1.00  0.00     0.000 HD 
ENDBRANCH   5   6
ENDBRANCH   2   5
TORSDOF 2
ENDMDL
MODEL      130
REMARK 921   NORMALIZED FREE ENERGY PREDICTED BY IDOCK:   -1.40 KCAL/MOL
REMARK 922        TOTAL FREE ENERGY PREDICTED BY IDOCK:   -1.69 KCAL/MOL
REMARK 923 INTER-LIGAND FREE ENERGY PREDICTED BY IDOCK:   -1.45 KCAL/MOL
REMARK 924 INTRA-LIGAND FREE ENERGY PREDICTED BY IDOCK:   -0.25 KCAL/MOL
REMARK 927      BINDING AFFINITY PREDICTED BY RF-SCORE:    0.00 PKD
ROOT
HETATM    1  C   UNL     1     -10.754   7.709  71.062  1.00  0.00    -0.239 C  
HETATM    2  C   UNL     1     -11.155   6.396  70.404  1.00  0.00    -0.339 C  
HETATM    3  H   UNL     1     -11.208   5.684  68.583  1.00  0.00     0.000 HD 
HETATM    4  O   UNL     1     -10.959   6.504  68.993  1.00  0.00    -0.280 OA 
ENDROOT
BRANCH   2   5
HETATM    5  C   UNL     1     -10.346   5.215  70.953  1.00  0.00    -0.282 C  
BRANCH   5   6
HETATM    6  C   UNL     1      -9.745   4.353  69.845  1.00  0.00    -0.221 C  
HETATM    7  O   UNL     1      -8.523   4.902  69.371  1.00  0.00    -0.086 OA 
HETATM    8  H   UNL     1      -8.149   4.365  68.682  1.00  0.00     0.000 HD 
ENDBRANCH   5   6
ENDBRANCH   2   5
TORSDOF 2
ENDMDL
MODEL      131
REMARK 921   NORMALIZED FREE ENERGY PREDICTED BY IDOCK:   -1.39 KCAL/MOL
REMARK 922        TOTAL FREE ENERGY PREDICTED BY IDOCK:   -1.68 KCAL/MOL
REMARK 923 INTER-LIGAND FREE ENERGY PREDICTED BY IDOCK:   -1.66 KCAL/MOL
REMARK 924 INTRA-LIGAND FREE ENERGY PREDICTED BY IDOCK:   -0.02 KCAL/MOL
REMARK 927      BINDING AFFINITY PREDICTED BY RF-SCORE:    0.00 PKD
ROOT
HETATM    1  C   UNL     1      -8.643   5.918  65.238  1.00  0.00    -0.119 C  
HETATM    2  C   UNL     1      -9.244   6.645  66.432  1.00  0.00    -0.151 C  
HETATM    3  H   UNL     1      -9.791   8.477  66.845  1.00  0.00     0.000 HD 
HETATM    4  O   UNL     1      -9.416   8.023  66.099  1.00  0.00    -0.190 OA 
ENDROOT
BRANCH   2   5
HETATM    5  C   UNL     1     -10.589   6.038  66.850  1.00  0.00    -0.384 C  
BRANCH   5   6
HETATM    6  C   UNL     1     -10.682   5.808  68.357  1.00  0.00    -0.209 C  
HETATM    7  O   UNL     1     -11.599   6.710  68.960  1.00  0.00    -0.611 OA 
HETATM    8  H   UNL     1     -11.657   6.567  69.897  1.00  0.00     0.000 HD 
ENDBRANCH   5   6
ENDBRANCH   2   5
TORSDOF 2
ENDMDL
MODEL      132
REMARK 921   NORMALIZED FREE ENERGY PREDICTED BY IDOCK:   -1.39 KCAL/MOL
REMARK 922        TOTAL FREE ENERGY PREDICTED BY IDOCK:   -1.68 KCAL/MOL
REMARK 923 INTER-LIGAND FREE ENERGY PREDICTED BY IDOCK:   -1.63 KCAL/MOL
REMARK 924 INTRA-LIGAND FREE ENERGY PREDICTED BY IDOCK:   -0.05 KCAL/MOL
REMARK 927      BINDING AFFINITY PREDICTED BY RF-SCORE:    0.00 PKD
ROOT
HETATM    1  C   UNL     1      -9.568   8.579  72.139  1.00  0.00    -0.382 C  
HETATM    2  C   UNL     1      -9.231   7.550  73.209  1.00  0.00    -0.205 C  
HETATM    3  H   UNL     1      -8.269   7.543  74.912  1.00  0.00     0.000 HD 
HETATM    4  O   UNL     1      -8.478   8.185  74.244  1.00  0.00    -0.250 OA 
ENDROOT
BRANCH   2   5
HETATM    5  C   UNL     1     -10.493   6.912  73.801  1.00  0.00    -0.390 C  
BRANCH   5   6
HETATM    6  C   UNL     1     -10.409   5.388  73.849  1.00  0.00    -0.259 C  
HETATM    7  O   UNL     1      -9.672   4.878  72.746  1.00  0.00    -0.141 OA 
HETATM    8  H   UNL     1      -9.620   3.930  72.776  1.00  0.00     0.000 HD 
ENDBRANCH   5   6
ENDBRANCH   2   5
TORSDOF 2
ENDMDL
MODEL      133
REMARK 921   NORMALIZED FREE ENERGY PREDICTED BY IDOCK:   -1.38 KCAL/MOL
REMARK 922        TOTAL FREE ENERGY PREDICTED BY IDOCK:   -1.67 KCAL/MOL
REMARK 923 INTER-LIGAND FREE ENERGY PREDICTED BY IDOCK:   -1.45 KCAL/MOL
REMARK 924 INTRA-LIGAND FREE ENERGY PREDICTED BY IDOCK:   -0.22 KCAL/MOL
REMARK 927      BINDING AFFINITY PREDICTED BY RF-SCORE:    0.00 PKD
ROOT
HETATM    1  C   UNL     1     -10.652   2.216  72.700  1.00  0.00    -0.194 C  
HETATM    2  C   UNL     1     -10.068   3.614  72.849  1.00  0.00    -0.154 C  
HETATM    3  H   UNL     1      -9.198   4.915  71.676  1.00  0.00     0.000 HD 
HETATM    4  O   UNL     1      -9.562   4.043  71.584  1.00  0.00    -0.139 OA 
ENDROOT
BRANCH   2   5
HETATM    5  C   UNL     1     -11.111   4.615  73.359  1.00  0.00    -0.418 C  
BRANCH   5   6
HETATM    6  C   UNL     1     -10.872   6.028  72.831  1.00  0.00    -0.258 C  
HETATM    7  O   UNL     1     -11.405   6.185  71.523  1.00  0.00    -0.284 OA 
HETATM    8  H   UNL     1     -11.256   7.064  71.194  1.00  0.00     0.000 HD 
ENDBRANCH   5   6
ENDBRANCH   2   5
TORSDOF 2
ENDMDL
MODEL      134
REMARK 921   NORMALIZED FREE ENERGY PREDICTED BY IDOCK:   -1.37 KCAL/MOL
REMARK 922        TOTAL FREE ENERGY PREDICTED BY IDOCK:   -1.66 KCAL/MOL
REMARK 923 INTER-LIGAND FREE ENERGY PREDICTED BY IDOCK:   -1.65 KCAL/MOL
REMARK 924 INTRA-LIGAND FREE ENERGY PREDICTED BY IDOCK:   -0.01 KCAL/MOL
REMARK 927      BINDING AFFINITY PREDICTED BY RF-SCORE:    0.00 PKD
ROOT
HETATM    1  C   UNL     1      -7.491   2.920  62.854  1.00  0.00    -0.053 C  
HETATM    2  C   UNL     1      -8.186   4.011  63.656  1.00  0.00    -0.092 C  
HETATM    3  H   UNL     1      -8.493   5.933  63.461  1.00  0.00     0.000 HD 
HETATM    4  O   UNL     1      -8.058   5.252  62.960  1.00  0.00    -0.090 OA 
ENDROOT
BRANCH   2   5
HETATM    5  C   UNL     1      -9.667   3.692  63.886  1.00  0.00    -0.161 C  
BRANCH   5   6
HETATM    6  C   UNL     1     -10.210   4.326  65.165  1.00  0.00    -0.211 C  
HETATM    7  O   UNL     1     -11.629   4.392  65.145  1.00  0.00    -1.042 OA 
HETATM    8  H   UNL     1     -11.967   4.787  65.941  1.00  0.00     0.000 HD 
ENDBRANCH   5   6
ENDBRANCH   2   5
TORSDOF 2
ENDMDL
MODEL      135
REMARK 921   NORMALIZED FREE ENERGY PREDICTED BY IDOCK:   -1.36 KCAL/MOL
REMARK 922        TOTAL FREE ENERGY PREDICTED BY IDOCK:   -1.64 KCAL/MOL
REMARK 923 INTER-LIGAND FREE ENERGY PREDICTED BY IDOCK:   -1.39 KCAL/MOL
REMARK 924 INTRA-LIGAND FREE ENERGY PREDICTED BY IDOCK:   -0.25 KCAL/MOL
REMARK 927      BINDING AFFINITY PREDICTED BY RF-SCORE:    0.00 PKD
ROOT
HETATM    1  C   UNL     1     -10.939   6.347  67.785  1.00  0.00    -0.425 C  
HETATM    2  C   UNL     1     -10.659   7.762  67.300  1.00  0.00    -0.306 C  
HETATM    3  H   UNL     1     -10.395   9.515  68.127  1.00  0.00     0.000 HD 
HETATM    4  O   UNL     1     -10.570   8.631  68.430  1.00  0.00    -0.197 OA 
ENDROOT
BRANCH   2   5
HETATM    5  C   UNL     1      -9.365   7.838  66.481  1.00  0.00    -0.243 C  
BRANCH   5   6
HETATM    6  C   UNL     1      -8.238   8.543  67.234  1.00  0.00    -0.108 C  
HETATM    7  O   UNL     1      -7.750   7.740  68.300  1.00  0.00    -0.113 OA 
HETATM    8  H   UNL     1      -7.050   8.179  68.768  1.00  0.00     0.000 HD 
ENDBRANCH   5   6
ENDBRANCH   2   5
TORSDOF 2
ENDMDL
MODEL      136
REMARK 921   NORMALIZED FREE ENERGY PREDICTED BY IDOCK:   -1.35 KCAL/MOL
REMARK 922        TOTAL FREE ENERGY PREDICTED BY IDOCK:   -1.64 KCAL/MOL
REMARK 923 INTER-LIGAND FREE ENERGY PREDICTED BY IDOCK:   -1.58 KCAL/MOL
REMARK 924 INTRA-LIGAND FREE ENERGY PREDICTED BY IDOCK:   -0.06 KCAL/MOL
REMARK 927      BINDING AFFINITY PREDICTED BY RF-SCORE:    0.00 PKD
ROOT
HETATM    1  C   UNL     1     -11.067   9.469  70.243  1.00  0.00    -0.317 C  
HETATM    2  C   UNL     1     -10.094   8.390  69.787  1.00  0.00    -0.197 C  
HETATM    3  H   UNL     1      -8.413   7.633  70.442  1.00  0.00     0.000 HD 
HETATM    4  O   UNL     1      -9.020   8.307  70.726  1.00  0.00    -0.139 OA 
ENDROOT
BRANCH   2   5
HETATM    5  C   UNL     1     -10.779   7.025  69.657  1.00  0.00    -0.265 C  
BRANCH   5   6
HETATM    6  C   UNL     1     -11.846   6.802  70.727  1.00  0.00    -0.392 C  
HETATM    7  O   UNL     1     -11.405   5.873  71.707  1.00  0.00    -0.273 OA 
HETATM    8  H   UNL     1     -12.068   5.734  72.373  1.00  0.00     0.000 HD 
ENDBRANCH   5   6
ENDBRANCH   2   5
TORSDOF 2
ENDMDL
MODEL      137
REMARK 921   NORMALIZED FREE ENERGY PREDICTED BY IDOCK:   -1.34 KCAL/MOL
REMARK 922        TOTAL FREE ENERGY PREDICTED BY IDOCK:   -1.63 KCAL/MOL
REMARK 923 INTER-LIGAND FREE ENERGY PREDICTED BY IDOCK:   -1.40 KCAL/MOL
REMARK 924 INTRA-LIGAND FREE ENERGY PREDICTED BY IDOCK:   -0.23 KCAL/MOL
REMARK 927      BINDING AFFINITY PREDICTED BY RF-SCORE:    0.00 PKD
ROOT
HETATM    1  C   UNL     1      -6.496  14.550  68.680  1.00  0.00    -0.086 C  
HETATM    2  C   UNL     1      -7.315  14.379  67.409  1.00  0.00    -0.142 C  
HETATM    3  H   UNL     1      -8.353  12.946  66.576  1.00  0.00     0.000 HD 
HETATM    4  O   UNL     1      -7.841  13.052  67.370  1.00  0.00    -0.165 OA 
ENDROOT
BRANCH   2   5
HETATM    5  C   UNL     1      -8.460  15.396  67.329  1.00  0.00    -0.214 C  
BRANCH   5   6
HETATM    6  C   UNL     1      -9.736  14.794  66.746  1.00  0.00    -0.254 C  
HETATM    7  O   UNL     1      -9.546  14.394  65.396  1.00  0.00    -0.538 OA 
HETATM    8  H   UNL     1     -10.341  14.019  65.033  1.00  0.00     0.000 HD 
ENDBRANCH   5   6
ENDBRANCH   2   5
TORSDOF 2
ENDMDL
MODEL      138
REMARK 921   NORMALIZED FREE ENERGY PREDICTED BY IDOCK:   -1.32 KCAL/MOL
REMARK 922        TOTAL FREE ENERGY PREDICTED BY IDOCK:   -1.61 KCAL/MOL
REMARK 923 INTER-LIGAND FREE ENERGY PREDICTED BY IDOCK:   -1.57 KCAL/MOL
REMARK 924 INTRA-LIGAND FREE ENERGY PREDICTED BY IDOCK:   -0.04 KCAL/MOL
REMARK 927      BINDING AFFINITY PREDICTED BY RF-SCORE:    0.00 PKD
ROOT
HETATM    1  C   UNL     1     -10.353   8.090  69.620  1.00  0.00    -0.220 C  
HETATM    2  C   UNL     1     -10.474   9.157  70.699  1.00  0.00    -0.245 C  
HETATM    3  H   UNL     1     -11.874  10.357  71.351  1.00  0.00     0.000 HD 
HETATM    4  O   UNL     1     -11.799   9.692  70.678  1.00  0.00    -0.270 OA 
ENDROOT
BRANCH   2   5
HETATM    5  C   UNL     1     -10.161   8.597  72.091  1.00  0.00    -0.388 C  
BRANCH   5   6
HETATM    6  C   UNL     1      -8.673   8.313  72.285  1.00  0.00    -0.200 C  
HETATM    7  O   UNL     1      -7.877   9.387  71.805  1.00  0.00    -0.242 OA 
HETATM    8  H   UNL     1      -6.951   9.209  71.925  1.00  0.00     0.000 HD 
ENDBRANCH   5   6
ENDBRANCH   2   5
TORSDOF 2
ENDMDL
MODEL      139
REMARK 921   NORMALIZED FREE ENERGY PREDICTED BY IDOCK:   -1.32 KCAL/MOL
REMARK 922        TOTAL FREE ENERGY PREDICTED BY IDOCK:   -1.60 KCAL/MOL
REMARK 923 INTER-LIGAND FREE ENERGY PREDICTED BY IDOCK:   -1.38 KCAL/MOL
REMARK 924 INTRA-LIGAND FREE ENERGY PREDICTED BY IDOCK:   -0.23 KCAL/MOL
REMARK 927      BINDING AFFINITY PREDICTED BY RF-SCORE:    0.00 PKD
ROOT
HETATM    1  C   UNL     1     -10.043   8.395  71.937  1.00  0.00    -0.337 C  
HETATM    2  C   UNL     1      -9.609   9.434  70.913  1.00  0.00    -0.231 C  
HETATM    3  H   UNL     1      -8.237   9.565  69.524  1.00  0.00     0.000 HD 
HETATM    4  O   UNL     1      -8.508   8.916  70.164  1.00  0.00    -0.123 OA 
ENDROOT
BRANCH   2   5
HETATM    5  C   UNL     1     -10.753   9.810  69.964  1.00  0.00    -0.326 C  
BRANCH   5   6
HETATM    6  C   UNL     1     -10.264  10.110  68.549  1.00  0.00    -0.174 C  
HETATM    7  O   UNL     1     -10.073   8.914  67.806  1.00  0.00    -0.185 OA 
HETATM    8  H   UNL     1      -9.768   9.101  66.925  1.00  0.00     0.000 HD 
ENDBRANCH   5   6
ENDBRANCH   2   5
TORSDOF 2
ENDMDL
MODEL      140
REMARK 921   NORMALIZED FREE ENERGY PREDICTED BY IDOCK:   -1.30 KCAL/MOL
REMARK 922        TOTAL FREE ENERGY PREDICTED BY IDOCK:   -1.58 KCAL/MOL
REMARK 923 INTER-LIGAND FREE ENERGY PREDICTED BY IDOCK:   -1.36 KCAL/MOL
REMARK 924 INTRA-LIGAND FREE ENERGY PREDICTED BY IDOCK:   -0.22 KCAL/MOL
REMARK 927      BINDING AFFINITY PREDICTED BY RF-SCORE:    0.00 PKD
ROOT
HETATM    1  C   UNL     1     -10.658  11.090  67.894  1.00  0.00    -0.244 C  
HETATM    2  C   UNL     1      -9.358  11.504  67.219  1.00  0.00    -0.166 C  
HETATM    3  H   UNL     1      -8.740  13.021  66.150  1.00  0.00     0.000 HD 
HETATM    4  O   UNL     1      -9.551  12.762  66.571  1.00  0.00    -0.247 OA 
ENDROOT
BRANCH   2   5
HETATM    5  C   UNL     1      -8.204  11.607  68.223  1.00  0.00    -0.156 C  
BRANCH   5   6
HETATM    6  C   UNL     1      -6.851  11.794  67.540  1.00  0.00    -0.113 C  
HETATM    7  O   UNL     1      -6.741  13.085  66.958  1.00  0.00    -0.435 OA 
HETATM    8  H   UNL     1      -5.899  13.201  66.533  1.00  0.00     0.000 HD 
ENDBRANCH   5   6
ENDBRANCH   2   5
TORSDOF 2
ENDMDL
MODEL      141
REMARK 921   NORMALIZED FREE ENERGY PREDICTED BY IDOCK:   -1.28 KCAL/MOL
REMARK 922        TOTAL FREE ENERGY PREDICTED BY IDOCK:   -1.56 KCAL/MOL
REMARK 923 INTER-LIGAND FREE ENERGY PREDICTED BY IDOCK:   -1.53 KCAL/MOL
REMARK 924 INTRA-LIGAND FREE ENERGY PREDICTED BY IDOCK:   -0.03 KCAL/MOL
REMARK 927      BINDING AFFINITY PREDICTED BY RF-SCORE:    0.00 PKD
ROOT
HETATM    1  C   UNL     1     -10.203  14.437  65.516  1.00  0.00    -0.386 C  
HETATM    2  C   UNL     1      -9.736  14.282  66.956  1.00  0.00    -0.253 C  
HETATM    3  H   UNL     1      -9.061  12.826  68.075  1.00  0.00     0.000 HD 
HETATM    4  O   UNL     1      -9.353  12.923  67.176  1.00  0.00    -0.212 OA 
ENDROOT
BRANCH   2   5
HETATM    5  C   UNL     1      -8.560  15.212  67.276  1.00  0.00    -0.218 C  
BRANCH   5   6
HETATM    6  C   UNL     1      -7.396  14.477  67.937  1.00  0.00    -0.156 C  
HETATM    7  O   UNL     1      -6.162  14.800  67.312  1.00  0.00    -0.309 OA 
HETATM    8  H   UNL     1      -5.438  14.342  67.723  1.00  0.00     0.000 HD 
ENDBRANCH   5   6
ENDBRANCH   2   5
TORSDOF 2
ENDMDL
MODEL      142
REMARK 921   NORMALIZED FREE ENERGY PREDICTED BY IDOCK:   -1.28 KCAL/MOL
REMARK 922        TOTAL FREE ENERGY PREDICTED BY IDOCK:   -1.56 KCAL/MOL
REMARK 923 INTER-LIGAND FREE ENERGY PREDICTED BY IDOCK:   -1.30 KCAL/MOL
REMARK 924 INTRA-LIGAND FREE ENERGY PREDICTED BY IDOCK:   -0.26 KCAL/MOL
REMARK 927      BINDING AFFINITY PREDICTED BY RF-SCORE:    0.00 PKD
ROOT
HETATM    1  C   UNL     1      -9.675   7.625  73.531  1.00  0.00    -0.358 C  
HETATM    2  C   UNL     1     -10.325   7.542  72.157  1.00  0.00    -0.210 C  
HETATM    3  H   UNL     1      -9.903   8.169  70.352  1.00  0.00     0.000 HD 
HETATM    4  O   UNL     1      -9.498   8.221  71.210  1.00  0.00    -0.154 OA 
ENDROOT
BRANCH   2   5
HETATM    5  C   UNL     1     -10.537   6.089  71.715  1.00  0.00    -0.277 C  
BRANCH   5   6
HETATM    6  C   UNL     1      -9.811   5.763  70.412  1.00  0.00    -0.186 C  
HETATM    7  O   UNL     1      -8.425   5.544  70.636  1.00  0.00    -0.117 OA 
HETATM    8  H   UNL     1      -7.973   5.341  69.825  1.00  0.00     0.000 HD 
ENDBRANCH   5   6
ENDBRANCH   2   5
TORSDOF 2
ENDMDL
MODEL      143
REMARK 921   NORMALIZED FREE ENERGY PREDICTED BY IDOCK:   -1.28 KCAL/MOL
REMARK 922        TOTAL FREE ENERGY PREDICTED BY IDOCK:   -1.56 KCAL/MOL
REMARK 923 INTER-LIGAND FREE ENERGY PREDICTED BY IDOCK:   -1.55 KCAL/MOL
REMARK 924 INTRA-LIGAND FREE ENERGY PREDICTED BY IDOCK:   -0.01 KCAL/MOL
REMARK 927      BINDING AFFINITY PREDICTED BY RF-SCORE:    0.00 PKD
ROOT
HETATM    1  C   UNL     1      -9.292   7.109  71.897  1.00  0.00    -0.150 C  
HETATM    2  C   UNL     1      -9.186   6.581  70.473  1.00  0.00    -0.155 C  
HETATM    3  H   UNL     1      -8.723   4.880  69.626  1.00  0.00     0.000 HD 
HETATM    4  O   UNL     1      -8.789   5.209  70.515  1.00  0.00    -0.115 OA 
ENDROOT
BRANCH   2   5
HETATM    5  C   UNL     1     -10.512   6.717  69.716  1.00  0.00    -0.248 C  
BRANCH   5   6
HETATM    6  C   UNL     1     -10.330   6.648  68.202  1.00  0.00    -0.190 C  
HETATM    7  O   UNL     1     -11.583   6.582  67.535  1.00  0.00    -0.693 OA 
HETATM    8  H   UNL     1     -11.470   6.539  66.593  1.00  0.00     0.000 HD 
ENDBRANCH   5   6
ENDBRANCH   2   5
TORSDOF 2
ENDMDL
MODEL      144
REMARK 921   NORMALIZED FREE ENERGY PREDICTED BY IDOCK:   -1.27 KCAL/MOL
REMARK 922        TOTAL FREE ENERGY PREDICTED BY IDOCK:   -1.55 KCAL/MOL
REMARK 923 INTER-LIGAND FREE ENERGY PREDICTED BY IDOCK:   -1.54 KCAL/MOL
REMARK 924 INTRA-LIGAND FREE ENERGY PREDICTED BY IDOCK:   -0.01 KCAL/MOL
REMARK 927      BINDING AFFINITY PREDICTED BY RF-SCORE:    0.00 PKD
ROOT
HETATM    1  C   UNL     1     -10.479   7.955  66.966  1.00  0.00    -0.419 C  
HETATM    2  C   UNL     1      -9.740   9.281  66.854  1.00  0.00    -0.190 C  
HETATM    3  H   UNL     1      -8.623  10.381  68.025  1.00  0.00     0.000 HD 
HETATM    4  O   UNL     1      -9.085   9.554  68.094  1.00  0.00    -0.127 OA 
ENDROOT
BRANCH   2   5
HETATM    5  C   UNL     1      -8.714   9.266  65.716  1.00  0.00    -0.182 C  
BRANCH   5   6
HETATM    6  C   UNL     1      -9.185  10.053  64.494  1.00  0.00    -0.262 C  
HETATM    7  O   UNL     1      -8.217  11.014  64.096  1.00  0.00    -0.363 OA 
HETATM    8  H   UNL     1      -8.511  11.503  63.336  1.00  0.00     0.000 HD 
ENDBRANCH   5   6
ENDBRANCH   2   5
TORSDOF 2
ENDMDL
MODEL      145
REMARK 921   NORMALIZED FREE ENERGY PREDICTED BY IDOCK:   -1.25 KCAL/MOL
REMARK 922        TOTAL FREE ENERGY PREDICTED BY IDOCK:   -1.53 KCAL/MOL
REMARK 923 INTER-LIGAND FREE ENERGY PREDICTED BY IDOCK:   -1.52 KCAL/MOL
REMARK 924 INTRA-LIGAND FREE ENERGY PREDICTED BY IDOCK:   -0.01 KCAL/MOL
REMARK 927      BINDING AFFINITY PREDICTED BY RF-SCORE:    0.00 PKD
ROOT
HETATM    1  C   UNL     1     -11.134  16.218  69.262  1.00  0.00    -0.325 C  
HETATM    2  C   UNL     1      -9.628  16.001  69.310  1.00  0.00    -0.255 C  
HETATM    3  H   UNL     1      -8.398  14.524  68.946  1.00  0.00     0.000 HD 
HETATM    4  O   UNL     1      -9.338  14.659  68.916  1.00  0.00    -0.199 OA 
ENDROOT
BRANCH   2   5
HETATM    5  C   UNL     1      -8.882  16.984  68.400  1.00  0.00    -0.247 C  
BRANCH   5   6
HETATM    6  C   UNL     1      -7.379  17.001  68.666  1.00  0.00    -0.229 C  
HETATM    7  O   UNL     1      -6.951  18.278  69.120  1.00  0.00    -0.270 OA 
HETATM    8  H   UNL     1      -6.015  18.289  69.285  1.00  0.00     0.000 HD 
ENDBRANCH   5   6
ENDBRANCH   2   5
TORSDOF 2
ENDMDL
MODEL      146
REMARK 921   NORMALIZED FREE ENERGY PREDICTED BY IDOCK:   -1.25 KCAL/MOL
REMARK 922        TOTAL FREE ENERGY PREDICTED BY IDOCK:   -1.53 KCAL/MOL
REMARK 923 INTER-LIGAND FREE ENERGY PREDICTED BY IDOCK:   -1.50 KCAL/MOL
REMARK 924 INTRA-LIGAND FREE ENERGY PREDICTED BY IDOCK:   -0.03 KCAL/MOL
REMARK 927      BINDING AFFINITY PREDICTED BY RF-SCORE:    0.00 PKD
ROOT
HETATM    1  C   UNL     1      -8.140  12.430  67.430  1.00  0.00    -0.177 C  
HETATM    2  C   UNL     1      -9.499  12.271  66.763  1.00  0.00    -0.222 C  
HETATM    3  H   UNL     1     -10.616  10.780  66.167  1.00  0.00     0.000 HD 
HETATM    4  O   UNL     1      -9.768  10.879  66.583  1.00  0.00    -0.181 OA 
ENDROOT
BRANCH   2   5
HETATM    5  C   UNL     1     -10.617  12.914  67.591  1.00  0.00    -0.232 C  
BRANCH   5   6
HETATM    6  C   UNL     1     -10.093  13.977  68.554  1.00  0.00    -0.236 C  
HETATM    7  O   UNL     1     -10.886  14.040  69.731  1.00  0.00    -0.453 OA 
HETATM    8  H   UNL     1     -10.560  14.702  70.331  1.00  0.00     0.000 HD 
ENDBRANCH   5   6
ENDBRANCH   2   5
TORSDOF 2
ENDMDL
MODEL      147
REMARK 921   NORMALIZED FREE ENERGY PREDICTED BY IDOCK:   -1.24 KCAL/MOL
REMARK 922        TOTAL FREE ENERGY PREDICTED BY IDOCK:   -1.51 KCAL/MOL
REMARK 923 INTER-LIGAND FREE ENERGY PREDICTED BY IDOCK:   -1.48 KCAL/MOL
REMARK 924 INTRA-LIGAND FREE ENERGY PREDICTED BY IDOCK:   -0.03 KCAL/MOL
REMARK 927      BINDING AFFINITY PREDICTED BY RF-SCORE:    0.00 PKD
ROOT
HETATM    1  C   UNL     1     -11.024   6.578  67.056  1.00  0.00    -0.466 C  
HETATM    2  C   UNL     1     -10.294   5.247  67.159  1.00  0.00    -0.216 C  
HETATM    3  H   UNL     1      -9.135   4.175  66.003  1.00  0.00     0.000 HD 
HETATM    4  O   UNL     1      -9.592   5.006  65.939  1.00  0.00    -0.157 OA 
ENDROOT
BRANCH   2   5
HETATM    5  C   UNL     1      -9.313   5.226  68.338  1.00  0.00    -0.146 C  
BRANCH   5   6
HETATM    6  C   UNL     1      -9.908   4.567  69.581  1.00  0.00    -0.218 C  
HETATM    7  O   UNL     1     -10.581   5.517  70.395  1.00  0.00    -0.276 OA 
HETATM    8  H   UNL     1     -10.950   5.107  71.168  1.00  0.00     0.000 HD 
ENDBRANCH   5   6
ENDBRANCH   2   5
TORSDOF 2
ENDMDL
MODEL      148
REMARK 921   NORMALIZED FREE ENERGY PREDICTED BY IDOCK:   -1.23 KCAL/MOL
REMARK 922        TOTAL FREE ENERGY PREDICTED BY IDOCK:   -1.50 KCAL/MOL
REMARK 923 INTER-LIGAND FREE ENERGY PREDICTED BY IDOCK:   -1.28 KCAL/MOL
REMARK 924 INTRA-LIGAND FREE ENERGY PREDICTED BY IDOCK:   -0.22 KCAL/MOL
REMARK 927      BINDING AFFINITY PREDICTED BY RF-SCORE:    0.00 PKD
ROOT
HETATM    1  C   UNL     1     -11.864   6.426  71.951  1.00  0.00    -0.380 C  
HETATM    2  C   UNL     1     -10.925   6.436  73.149  1.00  0.00    -0.220 C  
HETATM    3  H   UNL     1     -10.216   5.111  74.401  1.00  0.00     0.000 HD 
HETATM    4  O   UNL     1     -10.802   5.105  73.653  1.00  0.00    -0.272 OA 
ENDROOT
BRANCH   2   5
HETATM    5  C   UNL     1      -9.541   6.984  72.783  1.00  0.00    -0.172 C  
BRANCH   5   6
HETATM    6  C   UNL     1      -8.509   6.749  73.884  1.00  0.00    -0.134 C  
HETATM    7  O   UNL     1      -8.002   5.423  73.839  1.00  0.00    -0.107 OA 
HETATM    8  H   UNL     1      -7.361   5.276  74.524  1.00  0.00     0.000 HD 
ENDBRANCH   5   6
ENDBRANCH   2   5
TORSDOF 2
ENDMDL
MODEL      149
REMARK 921   NORMALIZED FREE ENERGY PREDICTED BY IDOCK:   -1.22 KCAL/MOL
REMARK 922        TOTAL FREE ENERGY PREDICTED BY IDOCK:   -1.49 KCAL/MOL
REMARK 923 INTER-LIGAND FREE ENERGY PREDICTED BY IDOCK:   -1.50 KCAL/MOL
REMARK 924 INTRA-LIGAND FREE ENERGY PREDICTED BY IDOCK:    0.01 KCAL/MOL
REMARK 927      BINDING AFFINITY PREDICTED BY RF-SCORE:    0.00 PKD
ROOT
HETATM    1  C   UNL     1     -10.525  10.384  66.338  1.00  0.00    -0.246 C  
HETATM    2  C   UNL     1     -10.684  11.231  67.592  1.00  0.00    -0.226 C  
HETATM    3  H   UNL     1     -12.158  12.116  68.525  1.00  0.00     0.000 HD 
HETATM    4  O   UNL     1     -12.059  11.588  67.741  1.00  0.00    -0.626 OA 
ENDROOT
BRANCH   2   5
HETATM    5  C   UNL     1     -10.199  10.490  68.844  1.00  0.00    -0.223 C  
BRANCH   5   6
HETATM    6  C   UNL     1      -8.752  10.826  69.198  1.00  0.00    -0.091 C  
HETATM    7  O   UNL     1      -7.841  10.106  68.380  1.00  0.00    -0.090 OA 
HETATM    8  H   UNL     1      -6.941  10.315  68.601  1.00  0.00     0.000 HD 
ENDBRANCH   5   6
ENDBRANCH   2   5
TORSDOF 2
ENDMDL
MODEL      150
REMARK 921   NORMALIZED FREE ENERGY PREDICTED BY IDOCK:   -1.22 KCAL/MOL
REMARK 922        TOTAL FREE ENERGY PREDICTED BY IDOCK:   -1.49 KCAL/MOL
REMARK 923 INTER-LIGAND FREE ENERGY PREDICTED BY IDOCK:   -1.48 KCAL/MOL
REMARK 924 INTRA-LIGAND FREE ENERGY PREDICTED BY IDOCK:   -0.01 KCAL/MOL
REMARK 927      BINDING AFFINITY PREDICTED BY RF-SCORE:    0.00 PKD
ROOT
HETATM    1  C   UNL     1      -9.192   9.702  68.598  1.00  0.00    -0.136 C  
HETATM    2  C   UNL     1     -10.306  10.207  67.692  1.00  0.00    -0.219 C  
HETATM    3  H   UNL     1     -11.251  11.898  67.418  1.00  0.00     0.000 HD 
HETATM    4  O   UNL     1     -10.555  11.583  67.984  1.00  0.00    -0.179 OA 
ENDROOT
BRANCH   2   5
HETATM    5  C   UNL     1      -9.951  10.046  66.209  1.00  0.00    -0.310 C  
BRANCH   5   6
HETATM    6  C   UNL     1      -9.087   8.814  65.946  1.00  0.00    -0.218 C  
HETATM    7  O   UNL     1      -8.982   8.546  64.555  1.00  0.00    -0.417 OA 
HETATM    8  H   UNL     1      -8.445   7.780  64.392  1.00  0.00     0.000 HD 
ENDBRANCH   5   6
ENDBRANCH   2   5
TORSDOF 2
ENDMDL
MODEL      151
REMARK 921   NORMALIZED FREE ENERGY PREDICTED BY IDOCK:   -1.22 KCAL/MOL
REMARK 922        TOTAL FREE ENERGY PREDICTED BY IDOCK:   -1.49 KCAL/MOL
REMARK 923 INTER-LIGAND FREE ENERGY PREDICTED BY IDOCK:   -1.24 KCAL/MOL
REMARK 924 INTRA-LIGAND FREE ENERGY PREDICTED BY IDOCK:   -0.24 KCAL/MOL
REMARK 927      BINDING AFFINITY PREDICTED BY RF-SCORE:    0.00 PKD
ROOT
HETATM    1  C   UNL     1     -11.873   6.614  71.146  1.00  0.00    -0.414 C  
HETATM    2  C   UNL     1     -10.759   6.567  72.183  1.00  0.00    -0.221 C  
HETATM    3  H   UNL     1      -9.847   5.180  73.217  1.00  0.00     0.000 HD 
HETATM    4  O   UNL     1     -10.542   5.210  72.570  1.00  0.00    -0.206 OA 
ENDROOT
BRANCH   2   5
HETATM    5  C   UNL     1      -9.456   7.170  71.645  1.00  0.00    -0.159 C  
BRANCH   5   6
HETATM    6  C   UNL     1      -8.410   6.106  71.322  1.00  0.00    -0.124 C  
HETATM    7  O   UNL     1      -8.749   5.394  70.140  1.00  0.00    -0.122 OA 
HETATM    8  H   UNL     1      -8.098   4.731  69.939  1.00  0.00     0.000 HD 
ENDBRANCH   5   6
ENDBRANCH   2   5
TORSDOF 2
ENDMDL
MODEL      152
REMARK 921   NORMALIZED FREE ENERGY PREDICTED BY IDOCK:   -1.21 KCAL/MOL
REMARK 922        TOTAL FREE ENERGY PREDICTED BY IDOCK:   -1.48 KCAL/MOL
REMARK 923 INTER-LIGAND FREE ENERGY PREDICTED BY IDOCK:   -1.47 KCAL/MOL
REMARK 924 INTRA-LIGAND FREE ENERGY PREDICTED BY IDOCK:   -0.01 KCAL/MOL
REMARK 927      BINDING AFFINITY PREDICTED BY RF-SCORE:    0.00 PKD
ROOT
HETATM    1  C   UNL     1     -10.869   7.657  70.091  1.00  0.00    -0.255 C  
HETATM    2  C   UNL     1     -10.068   8.504  69.112  1.00  0.00    -0.203 C  
HETATM    3  H   UNL     1     -10.121   8.878  67.193  1.00  0.00     0.000 HD 
HETATM    4  O   UNL     1     -10.621   8.349  67.804  1.00  0.00    -0.229 OA 
ENDROOT
BRANCH   2   5
HETATM    5  C   UNL     1     -10.072   9.985  69.506  1.00  0.00    -0.248 C  
BRANCH   5   6
HETATM    6  C   UNL     1      -9.781  10.905  68.323  1.00  0.00    -0.165 C  
HETATM    7  O   UNL     1      -9.104  12.083  68.740  1.00  0.00    -0.370 OA 
HETATM    8  H   UNL     1      -8.923  12.655  68.004  1.00  0.00     0.000 HD 
ENDBRANCH   5   6
ENDBRANCH   2   5
TORSDOF 2
ENDMDL
MODEL      153
REMARK 921   NORMALIZED FREE ENERGY PREDICTED BY IDOCK:   -1.20 KCAL/MOL
REMARK 922        TOTAL FREE ENERGY PREDICTED BY IDOCK:   -1.47 KCAL/MOL
REMARK 923 INTER-LIGAND FREE ENERGY PREDICTED BY IDOCK:   -1.24 KCAL/MOL
REMARK 924 INTRA-LIGAND FREE ENERGY PREDICTED BY IDOCK:   -0.23 KCAL/MOL
REMARK 927      BINDING AFFINITY PREDICTED BY RF-SCORE:    0.00 PKD
ROOT
HETATM    1  C   UNL     1     -10.624   4.941  66.185  1.00  0.00    -0.322 C  
HETATM    2  C   UNL     1     -10.008   6.187  66.806  1.00  0.00    -0.172 C  
HETATM    3  H   UNL     1     -10.637   7.959  67.345  1.00  0.00     0.000 HD 
HETATM    4  O   UNL     1     -11.021   7.182  66.957  1.00  0.00    -0.369 OA 
ENDROOT
BRANCH   2   5
HETATM    5  C   UNL     1      -9.367   5.886  68.166  1.00  0.00    -0.117 C  
BRANCH   5   6
HETATM    6  C   UNL     1      -8.923   7.153  68.895  1.00  0.00    -0.129 C  
HETATM    7  O   UNL     1      -8.447   8.132  67.983  1.00  0.00    -0.130 OA 
HETATM    8  H   UNL     1      -8.171   8.920  68.436  1.00  0.00     0.000 HD 
ENDBRANCH   5   6
ENDBRANCH   2   5
TORSDOF 2
ENDMDL
MODEL      154
REMARK 921   NORMALIZED FREE ENERGY PREDICTED BY IDOCK:   -1.19 KCAL/MOL
REMARK 922        TOTAL FREE ENERGY PREDICTED BY IDOCK:   -1.46 KCAL/MOL
REMARK 923 INTER-LIGAND FREE ENERGY PREDICTED BY IDOCK:   -1.24 KCAL/MOL
REMARK 924 INTRA-LIGAND FREE ENERGY PREDICTED BY IDOCK:   -0.22 KCAL/MOL
REMARK 927      BINDING AFFINITY PREDICTED BY RF-SCORE:    0.00 PKD
ROOT
HETATM    1  C   UNL     1     -11.015   6.396  67.296  1.00  0.00    -0.474 C  
HETATM    2  C   UNL     1     -10.196   5.151  66.988  1.00  0.00    -0.223 C  
HETATM    3  H   UNL     1      -9.252   4.427  65.436  1.00  0.00     0.000 HD 
HETATM    4  O   UNL     1      -9.763   5.204  65.628  1.00  0.00    -0.143 OA 
ENDROOT
BRANCH   2   5
HETATM    5  C   UNL     1      -8.982   5.025  67.916  1.00  0.00    -0.116 C  
BRANCH   5   6
HETATM    6  C   UNL     1      -8.656   3.573  68.258  1.00  0.00    -0.093 C  
HETATM    7  O   UNL     1      -9.194   2.683  67.290  1.00  0.00    -0.192 OA 
HETATM    8  H   UNL     1      -8.992   1.779  67.503  1.00  0.00     0.000 HD 
ENDBRANCH   5   6
ENDBRANCH   2   5
TORSDOF 2
ENDMDL
MODEL      155
REMARK 921   NORMALIZED FREE ENERGY PREDICTED BY IDOCK:   -1.19 KCAL/MOL
REMARK 922        TOTAL FREE ENERGY PREDICTED BY IDOCK:   -1.46 KCAL/MOL
REMARK 923 INTER-LIGAND FREE ENERGY PREDICTED BY IDOCK:   -1.45 KCAL/MOL
REMARK 924 INTRA-LIGAND FREE ENERGY PREDICTED BY IDOCK:   -0.01 KCAL/MOL
REMARK 927      BINDING AFFINITY PREDICTED BY RF-SCORE:    0.00 PKD
ROOT
HETATM    1  C   UNL     1      -6.875   8.391  67.486  1.00  0.00    -0.070 C  
HETATM    2  C   UNL     1      -8.301   8.458  66.956  1.00  0.00    -0.114 C  
HETATM    3  H   UNL     1      -9.169   9.029  65.298  1.00  0.00     0.000 HD 
HETATM    4  O   UNL     1      -8.279   8.988  65.629  1.00  0.00    -0.109 OA 
ENDROOT
BRANCH   2   5
HETATM    5  C   UNL     1      -8.972   7.079  66.954  1.00  0.00    -0.135 C  
BRANCH   5   6
HETATM    6  C   UNL     1     -10.496   7.171  66.980  1.00  0.00    -0.322 C  
HETATM    7  O   UNL     1     -11.092   5.981  66.485  1.00  0.00    -0.702 OA 
HETATM    8  H   UNL     1     -12.040   6.038  66.500  1.00  0.00     0.000 HD 
ENDBRANCH   5   6
ENDBRANCH   2   5
TORSDOF 2
ENDMDL
MODEL      156
REMARK 921   NORMALIZED FREE ENERGY PREDICTED BY IDOCK:   -1.18 KCAL/MOL
REMARK 922        TOTAL FREE ENERGY PREDICTED BY IDOCK:   -1.45 KCAL/MOL
REMARK 923 INTER-LIGAND FREE ENERGY PREDICTED BY IDOCK:   -1.23 KCAL/MOL
REMARK 924 INTRA-LIGAND FREE ENERGY PREDICTED BY IDOCK:   -0.22 KCAL/MOL
REMARK 927      BINDING AFFINITY PREDICTED BY RF-SCORE:    0.00 PKD
ROOT
HETATM    1  C   UNL     1      -9.781   4.256  69.584  1.00  0.00    -0.284 C  
HETATM    2  C   UNL     1     -10.390   5.290  70.520  1.00  0.00    -0.266 C  
HETATM    3  H   UNL     1     -10.853   5.382  72.418  1.00  0.00     0.000 HD 
HETATM    4  O   UNL     1     -10.473   4.736  71.834  1.00  0.00    -0.192 OA 
ENDROOT
BRANCH   2   5
HETATM    5  C   UNL     1      -9.568   6.584  70.551  1.00  0.00    -0.180 C  
BRANCH   5   6
HETATM    6  C   UNL     1      -8.935   6.841  71.917  1.00  0.00    -0.135 C  
HETATM    7  O   UNL     1      -9.882   7.376  72.831  1.00  0.00    -0.170 OA 
HETATM    8  H   UNL     1      -9.488   7.536  73.681  1.00  0.00     0.000 HD 
ENDBRANCH   5   6
ENDBRANCH   2   5
TORSDOF 2
ENDMDL
MODEL      157
REMARK 921   NORMALIZED FREE ENERGY PREDICTED BY IDOCK:   -1.18 KCAL/MOL
REMARK 922        TOTAL FREE ENERGY PREDICTED BY IDOCK:   -1.45 KCAL/MOL
REMARK 923 INTER-LIGAND FREE ENERGY PREDICTED BY IDOCK:   -1.21 KCAL/MOL
REMARK 924 INTRA-LIGAND FREE ENERGY PREDICTED BY IDOCK:   -0.25 KCAL/MOL
REMARK 927      BINDING AFFINITY PREDICTED BY RF-SCORE:    0.00 PKD
ROOT
HETATM    1  C   UNL     1      -8.537   5.262  68.617  1.00  0.00    -0.087 C  
HETATM    2  C   UNL     1      -8.167   5.683  67.201  1.00  0.00    -0.101 C  
HETATM    3  H   UNL     1      -7.390   4.821  65.627  1.00  0.00     0.000 HD 
HETATM    4  O   UNL     1      -7.620   4.559  66.510  1.00  0.00    -0.088 OA 
ENDROOT
BRANCH   2   5
HETATM    5  C   UNL     1      -9.379   6.226  66.435  1.00  0.00    -0.176 C  
BRANCH   5   6
HETATM    6  C   UNL     1     -10.606   5.328  66.570  1.00  0.00    -0.285 C  
HETATM    7  O   UNL     1     -10.545   4.234  65.666  1.00  0.00    -0.468 OA 
HETATM    8  H   UNL     1     -11.309   3.675  65.750  1.00  0.00     0.000 HD 
ENDBRANCH   5   6
ENDBRANCH   2   5
TORSDOF 2
ENDMDL
MODEL      158
REMARK 921   NORMALIZED FREE ENERGY PREDICTED BY IDOCK:   -1.17 KCAL/MOL
REMARK 922        TOTAL FREE ENERGY PREDICTED BY IDOCK:   -1.44 KCAL/MOL
REMARK 923 INTER-LIGAND FREE ENERGY PREDICTED BY IDOCK:   -1.39 KCAL/MOL
REMARK 924 INTRA-LIGAND FREE ENERGY PREDICTED BY IDOCK:   -0.05 KCAL/MOL
REMARK 927      BINDING AFFINITY PREDICTED BY RF-SCORE:    0.00 PKD
ROOT
HETATM    1  C   UNL     1      -9.983   9.937  66.608  1.00  0.00    -0.277 C  
HETATM    2  C   UNL     1      -9.710  10.623  67.939  1.00  0.00    -0.161 C  
HETATM    3  H   UNL     1     -10.696  11.798  69.153  1.00  0.00     0.000 HD 
HETATM    4  O   UNL     1     -10.866  11.370  68.322  1.00  0.00    -0.186 OA 
ENDROOT
BRANCH   2   5
HETATM    5  C   UNL     1      -9.355   9.613  69.037  1.00  0.00    -0.159 C  
BRANCH   5   6
HETATM    6  C   UNL     1     -10.566   9.216  69.878  1.00  0.00    -0.230 C  
HETATM    7  O   UNL     1     -10.921   7.858  69.661  1.00  0.00    -0.375 OA 
HETATM    8  H   UNL     1     -11.675   7.611  70.185  1.00  0.00     0.000 HD 
ENDBRANCH   5   6
ENDBRANCH   2   5
TORSDOF 2
ENDMDL
MODEL      159
REMARK 921   NORMALIZED FREE ENERGY PREDICTED BY IDOCK:   -1.17 KCAL/MOL
REMARK 922        TOTAL FREE ENERGY PREDICTED BY IDOCK:   -1.43 KCAL/MOL
REMARK 923 INTER-LIGAND FREE ENERGY PREDICTED BY IDOCK:   -1.41 KCAL/MOL
REMARK 924 INTRA-LIGAND FREE ENERGY PREDICTED BY IDOCK:   -0.03 KCAL/MOL
REMARK 927      BINDING AFFINITY PREDICTED BY RF-SCORE:    0.00 PKD
ROOT
HETATM    1  C   UNL     1      -7.857   8.395  71.983  1.00  0.00    -0.171 C  
HETATM    2  C   UNL     1      -8.832   8.033  70.872  1.00  0.00    -0.139 C  
HETATM    3  H   UNL     1      -9.597   6.388  70.141  1.00  0.00     0.000 HD 
HETATM    4  O   UNL     1      -8.988   6.614  70.834  1.00  0.00    -0.146 OA 
ENDROOT
BRANCH   2   5
HETATM    5  C   UNL     1     -10.197   8.702  71.073  1.00  0.00    -0.278 C  
BRANCH   5   6
HETATM    6  C   UNL     1     -10.677   9.439  69.824  1.00  0.00    -0.234 C  
HETATM    7  O   UNL     1     -10.080  10.724  69.724  1.00  0.00    -0.438 OA 
HETATM    8  H   UNL     1     -10.379  11.182  68.947  1.00  0.00     0.000 HD 
ENDBRANCH   5   6
ENDBRANCH   2   5
TORSDOF 2
ENDMDL
MODEL      160
REMARK 921   NORMALIZED FREE ENERGY PREDICTED BY IDOCK:   -1.17 KCAL/MOL
REMARK 922        TOTAL FREE ENERGY PREDICTED BY IDOCK:   -1.43 KCAL/MOL
REMARK 923 INTER-LIGAND FREE ENERGY PREDICTED BY IDOCK:   -1.39 KCAL/MOL
REMARK 924 INTRA-LIGAND FREE ENERGY PREDICTED BY IDOCK:   -0.04 KCAL/MOL
REMARK 927      BINDING AFFINITY PREDICTED BY RF-SCORE:    0.00 PKD
ROOT
HETATM    1  C   UNL     1     -10.531  13.481  68.543  1.00  0.00    -0.250 C  
HETATM    2  C   UNL     1      -9.638  12.278  68.271  1.00  0.00    -0.212 C  
HETATM    3  H   UNL     1      -9.902  10.374  67.907  1.00  0.00     0.000 HD 
HETATM    4  O   UNL     1     -10.459  11.125  68.077  1.00  0.00    -0.176 OA 
ENDROOT
BRANCH   2   5
HETATM    5  C   UNL     1      -8.748  12.497  67.042  1.00  0.00    -0.205 C  
BRANCH   5   6
HETATM    6  C   UNL     1      -8.966  13.865  66.399  1.00  0.00     0.011 C  
HETATM    7  O   UNL     1      -9.579  13.741  65.123  1.00  0.00    -0.556 OA 
HETATM    8  H   UNL     1      -9.714  14.592  64.723  1.00  0.00     0.000 HD 
ENDBRANCH   5   6
ENDBRANCH   2   5
TORSDOF 2
ENDMDL
MODEL      161
REMARK 921   NORMALIZED FREE ENERGY PREDICTED BY IDOCK:   -1.15 KCAL/MOL
REMARK 922        TOTAL FREE ENERGY PREDICTED BY IDOCK:   -1.41 KCAL/MOL
REMARK 923 INTER-LIGAND FREE ENERGY PREDICTED BY IDOCK:   -1.57 KCAL/MOL
REMARK 924 INTRA-LIGAND FREE ENERGY PREDICTED BY IDOCK:    0.16 KCAL/MOL
REMARK 927      BINDING AFFINITY PREDICTED BY RF-SCORE:    0.00 PKD
ROOT
HETATM    1  C   UNL     1      -6.575  20.030  69.359  1.00  0.00    -0.348 C  
HETATM    2  C   UNL     1      -6.806  19.969  67.855  1.00  0.00    -0.271 C  
HETATM    3  H   UNL     1      -7.105  21.260  66.417  1.00  0.00     0.000 HD 
HETATM    4  O   UNL     1      -6.962  21.298  67.355  1.00  0.00    -0.509 OA 
ENDROOT
BRANCH   2   5
HETATM    5  C   UNL     1      -5.649  19.272  67.130  1.00  0.00    -0.171 C  
BRANCH   5   6
HETATM    6  C   UNL     1      -5.700  17.752  67.275  1.00  0.00    -0.138 C  
HETATM    7  O   UNL     1      -5.182  17.337  68.531  1.00  0.00    -0.133 OA 
HETATM    8  H   UNL     1      -5.213  16.392  68.621  1.00  0.00     0.000 HD 
ENDBRANCH   5   6
ENDBRANCH   2   5
TORSDOF 2
ENDMDL
MODEL      162
REMARK 921   NORMALIZED FREE ENERGY PREDICTED BY IDOCK:   -1.14 KCAL/MOL
REMARK 922        TOTAL FREE ENERGY PREDICTED BY IDOCK:   -1.41 KCAL/MOL
REMARK 923 INTER-LIGAND FREE ENERGY PREDICTED BY IDOCK:   -1.40 KCAL/MOL
REMARK 924 INTRA-LIGAND FREE ENERGY PREDICTED BY IDOCK:   -0.01 KCAL/MOL
REMARK 927      BINDING AFFINITY PREDICTED BY RF-SCORE:    0.00 PKD
ROOT
HETATM    1  C   UNL     1      -7.788  12.449  68.762  1.00  0.00     0.020 C  
HETATM    2  C   UNL     1      -9.013  13.151  68.194  1.00  0.00    -0.195 C  
HETATM    3  H   UNL     1      -9.352  14.631  66.962  1.00  0.00     0.000 HD 
HETATM    4  O   UNL     1      -8.587  14.194  67.316  1.00  0.00    -0.196 OA 
ENDROOT
BRANCH   2   5
HETATM    5  C   UNL     1      -9.927  12.177  67.441  1.00  0.00    -0.206 C  
BRANCH   5   6
HETATM    6  C   UNL     1     -11.000  11.568  68.341  1.00  0.00    -0.221 C  
HETATM    7  O   UNL     1     -11.426  10.304  67.851  1.00  0.00    -0.601 OA 
HETATM    8  H   UNL     1     -12.094   9.925  68.411  1.00  0.00     0.000 HD 
ENDBRANCH   5   6
ENDBRANCH   2   5
TORSDOF 2
ENDMDL
MODEL      163
REMARK 921   NORMALIZED FREE ENERGY PREDICTED BY IDOCK:   -1.12 KCAL/MOL
REMARK 922        TOTAL FREE ENERGY PREDICTED BY IDOCK:   -1.38 KCAL/MOL
REMARK 923 INTER-LIGAND FREE ENERGY PREDICTED BY IDOCK:   -1.37 KCAL/MOL
REMARK 924 INTRA-LIGAND FREE ENERGY PREDICTED BY IDOCK:   -0.01 KCAL/MOL
REMARK 927      BINDING AFFINITY PREDICTED BY RF-SCORE:    0.00 PKD
ROOT
HETATM    1  C   UNL     1     -10.984   7.942  70.294  1.00  0.00    -0.249 C  
HETATM    2  C   UNL     1      -9.712   7.519  71.016  1.00  0.00    -0.167 C  
HETATM    3  H   UNL     1      -8.193   6.346  70.635  1.00  0.00     0.000 HD 
HETATM    4  O   UNL     1      -8.987   6.610  70.185  1.00  0.00    -0.150 OA 
ENDROOT
BRANCH   2   5
HETATM    5  C   UNL     1      -8.829   8.722  71.366  1.00  0.00    -0.292 C  
BRANCH   5   6
HETATM    6  C   UNL     1      -8.183   9.351  70.133  1.00  0.00    -0.168 C  
HETATM    7  O   UNL     1      -7.806  10.698  70.380  1.00  0.00    -0.343 OA 
HETATM    8  H   UNL     1      -7.404  11.089  69.613  1.00  0.00     0.000 HD 
ENDBRANCH   5   6
ENDBRANCH   2   5
TORSDOF 2
ENDMDL
MODEL      164
REMARK 921   NORMALIZED FREE ENERGY PREDICTED BY IDOCK:   -1.12 KCAL/MOL
REMARK 922        TOTAL FREE ENERGY PREDICTED BY IDOCK:   -1.38 KCAL/MOL
REMARK 923 INTER-LIGAND FREE ENERGY PREDICTED BY IDOCK:   -1.35 KCAL/MOL
REMARK 924 INTRA-LIGAND FREE ENERGY PREDICTED BY IDOCK:   -0.03 KCAL/MOL
REMARK 927      BINDING AFFINITY PREDICTED BY RF-SCORE:    0.00 PKD
ROOT
HETATM    1  C   UNL     1      -9.070   7.632  68.289  1.00  0.00    -0.136 C  
HETATM    2  C   UNL     1     -10.196   6.771  68.844  1.00  0.00    -0.175 C  
HETATM    3  H   UNL     1     -11.633   6.994  70.153  1.00  0.00     0.000 HD 
HETATM    4  O   UNL     1     -10.930   7.531  69.806  1.00  0.00    -0.244 OA 
ENDROOT
BRANCH   2   5
HETATM    5  C   UNL     1     -11.139   6.285  67.737  1.00  0.00    -0.361 C  
BRANCH   5   6
HETATM    6  C   UNL     1     -10.442   5.357  66.743  1.00  0.00    -0.289 C  
HETATM    7  O   UNL     1     -10.182   4.086  67.321  1.00  0.00    -0.144 OA 
HETATM    8  H   UNL     1      -9.749   3.509  66.703  1.00  0.00     0.000 HD 
ENDBRANCH   5   6
ENDBRANCH   2   5
TORSDOF 2
ENDMDL
MODEL      165
REMARK 921   NORMALIZED FREE ENERGY PREDICTED BY IDOCK:   -1.11 KCAL/MOL
REMARK 922        TOTAL FREE ENERGY PREDICTED BY IDOCK:   -1.37 KCAL/MOL
REMARK 923 INTER-LIGAND FREE ENERGY PREDICTED BY IDOCK:   -1.11 KCAL/MOL
REMARK 924 INTRA-LIGAND FREE ENERGY PREDICTED BY IDOCK:   -0.26 KCAL/MOL
REMARK 927      BINDING AFFINITY PREDICTED BY RF-SCORE:    0.00 PKD
ROOT
HETATM    1  C   UNL     1      -9.671   2.934  71.551  1.00  0.00    -0.224 C  
HETATM    2  C   UNL     1     -10.068   4.371  71.855  1.00  0.00    -0.174 C  
HETATM    3  H   UNL     1      -9.298   5.872  72.845  1.00  0.00     0.000 HD 
HETATM    4  O   UNL     1      -9.051   4.975  72.656  1.00  0.00    -0.130 OA 
ENDROOT
BRANCH   2   5
HETATM    5  C   UNL     1     -10.275   5.187  70.574  1.00  0.00    -0.330 C  
BRANCH   5   6
HETATM    6  C   UNL     1      -9.286   6.344  70.452  1.00  0.00    -0.155 C  
HETATM    7  O   UNL     1      -7.995   5.881  70.082  1.00  0.00    -0.097 OA 
HETATM    8  H   UNL     1      -7.379   6.601  70.006  1.00  0.00     0.000 HD 
ENDBRANCH   5   6
ENDBRANCH   2   5
TORSDOF 2
ENDMDL
MODEL      166
REMARK 921   NORMALIZED FREE ENERGY PREDICTED BY IDOCK:   -1.10 KCAL/MOL
REMARK 922        TOTAL FREE ENERGY PREDICTED BY IDOCK:   -1.36 KCAL/MOL
REMARK 923 INTER-LIGAND FREE ENERGY PREDICTED BY IDOCK:   -1.32 KCAL/MOL
REMARK 924 INTRA-LIGAND FREE ENERGY PREDICTED BY IDOCK:   -0.04 KCAL/MOL
REMARK 927      BINDING AFFINITY PREDICTED BY RF-SCORE:    0.00 PKD
ROOT
HETATM    1  C   UNL     1     -11.164  13.164  67.666  1.00  0.00    -0.313 C  
HETATM    2  C   UNL     1     -10.489  12.295  66.615  1.00  0.00    -0.222 C  
HETATM    3  H   UNL     1     -10.298  12.320  64.668  1.00  0.00     0.000 HD 
HETATM    4  O   UNL     1     -10.719  12.863  65.325  1.00  0.00    -0.284 OA 
ENDROOT
BRANCH   2   5
HETATM    5  C   UNL     1      -8.982  12.165  66.866  1.00  0.00    -0.201 C  
BRANCH   5   6
HETATM    6  C   UNL     1      -8.651  11.962  68.343  1.00  0.00    -0.152 C  
HETATM    7  O   UNL     1      -8.790  10.599  68.719  1.00  0.00    -0.146 OA 
HETATM    8  H   UNL     1      -8.584  10.473  69.638  1.00  0.00     0.000 HD 
ENDBRANCH   5   6
ENDBRANCH   2   5
TORSDOF 2
ENDMDL
MODEL      167
REMARK 921   NORMALIZED FREE ENERGY PREDICTED BY IDOCK:   -1.08 KCAL/MOL
REMARK 922        TOTAL FREE ENERGY PREDICTED BY IDOCK:   -1.33 KCAL/MOL
REMARK 923 INTER-LIGAND FREE ENERGY PREDICTED BY IDOCK:   -1.33 KCAL/MOL
REMARK 924 INTRA-LIGAND FREE ENERGY PREDICTED BY IDOCK:   -0.01 KCAL/MOL
REMARK 927      BINDING AFFINITY PREDICTED BY RF-SCORE:    0.00 PKD
ROOT
HETATM    1  C   UNL     1     -10.877   6.172  67.006  1.00  0.00    -0.435 C  
HETATM    2  C   UNL     1      -9.525   6.857  67.150  1.00  0.00    -0.140 C  
HETATM    3  H   UNL     1      -7.945   7.120  66.026  1.00  0.00     0.000 HD 
HETATM    4  O   UNL     1      -8.789   6.692  65.936  1.00  0.00    -0.154 OA 
ENDROOT
BRANCH   2   5
HETATM    5  C   UNL     1      -9.674   8.349  67.470  1.00  0.00    -0.209 C  
BRANCH   5   6
HETATM    6  C   UNL     1     -10.370   8.592  68.808  1.00  0.00    -0.208 C  
HETATM    7  O   UNL     1      -9.890   9.776  69.429  1.00  0.00    -0.181 OA 
HETATM    8  H   UNL     1     -10.323   9.928  70.262  1.00  0.00     0.000 HD 
ENDBRANCH   5   6
ENDBRANCH   2   5
TORSDOF 2
ENDMDL
MODEL      168
REMARK 921   NORMALIZED FREE ENERGY PREDICTED BY IDOCK:   -1.06 KCAL/MOL
REMARK 922        TOTAL FREE ENERGY PREDICTED BY IDOCK:   -1.31 KCAL/MOL
REMARK 923 INTER-LIGAND FREE ENERGY PREDICTED BY IDOCK:   -1.28 KCAL/MOL
REMARK 924 INTRA-LIGAND FREE ENERGY PREDICTED BY IDOCK:   -0.03 KCAL/MOL
REMARK 927      BINDING AFFINITY PREDICTED BY RF-SCORE:    0.00 PKD
ROOT
HETATM    1  C   UNL     1      -8.726   9.410  67.516  1.00  0.00    -0.123 C  
HETATM    2  C   UNL     1     -10.139   8.997  67.902  1.00  0.00    -0.197 C  
HETATM    3  H   UNL     1     -11.914   9.818  67.861  1.00  0.00     0.000 HD 
HETATM    4  O   UNL     1     -11.032  10.076  67.620  1.00  0.00    -0.290 OA 
ENDROOT
BRANCH   2   5
HETATM    5  C   UNL     1     -10.590   7.738  67.151  1.00  0.00    -0.401 C  
BRANCH   5   6
HETATM    6  C   UNL     1      -9.765   6.509  67.525  1.00  0.00    -0.122 C  
HETATM    7  O   UNL     1      -9.272   5.848  66.367  1.00  0.00    -0.143 OA 
HETATM    8  H   UNL     1      -8.759   5.083  66.600  1.00  0.00     0.000 HD 
ENDBRANCH   5   6
ENDBRANCH   2   5
TORSDOF 2
ENDMDL
MODEL      169
REMARK 921   NORMALIZED FREE ENERGY PREDICTED BY IDOCK:   -1.04 KCAL/MOL
REMARK 922        TOTAL FREE ENERGY PREDICTED BY IDOCK:   -1.29 KCAL/MOL
REMARK 923 INTER-LIGAND FREE ENERGY PREDICTED BY IDOCK:   -1.27 KCAL/MOL
REMARK 924 INTRA-LIGAND FREE ENERGY PREDICTED BY IDOCK:   -0.02 KCAL/MOL
REMARK 927      BINDING AFFINITY PREDICTED BY RF-SCORE:    0.00 PKD
ROOT
HETATM    1  C   UNL     1      -8.393  11.727  67.901  1.00  0.00    -0.149 C  
HETATM    2  C   UNL     1      -8.259  10.324  68.476  1.00  0.00    -0.111 C  
HETATM    3  H   UNL     1      -7.487   9.523  70.085  1.00  0.00     0.000 HD 
HETATM    4  O   UNL     1      -7.570  10.398  69.726  1.00  0.00    -0.155 OA 
ENDROOT
BRANCH   2   5
HETATM    5  C   UNL     1      -9.625   9.658  68.674  1.00  0.00    -0.154 C  
BRANCH   5   6
HETATM    6  C   UNL     1     -10.779  10.656  68.593  1.00  0.00    -0.207 C  
HETATM    7  O   UNL     1     -11.972  10.109  69.138  1.00  0.00    -0.499 OA 
HETATM    8  H   UNL     1     -12.689  10.730  69.087  1.00  0.00     0.000 HD 
ENDBRANCH   5   6
ENDBRANCH   2   5
TORSDOF 2
ENDMDL
MODEL      170
REMARK 921   NORMALIZED FREE ENERGY PREDICTED BY IDOCK:   -1.03 KCAL/MOL
REMARK 922        TOTAL FREE ENERGY PREDICTED BY IDOCK:   -1.28 KCAL/MOL
REMARK 923 INTER-LIGAND FREE ENERGY PREDICTED BY IDOCK:   -1.06 KCAL/MOL
REMARK 924 INTRA-LIGAND FREE ENERGY PREDICTED BY IDOCK:   -0.22 KCAL/MOL
REMARK 927      BINDING AFFINITY PREDICTED BY RF-SCORE:    0.00 PKD
ROOT
HETATM    1  C   UNL     1     -11.071   5.970  70.231  1.00  0.00    -0.415 C  
HETATM    2  C   UNL     1      -9.776   5.181  70.355  1.00  0.00    -0.202 C  
HETATM    3  H   UNL     1      -8.986   3.612  69.494  1.00  0.00     0.000 HD 
HETATM    4  O   UNL     1      -9.795   4.105  69.416  1.00  0.00    -0.197 OA 
ENDROOT
BRANCH   2   5
HETATM    5  C   UNL     1      -8.546   6.064  70.110  1.00  0.00    -0.135 C  
BRANCH   5   6
HETATM    6  C   UNL     1      -7.239   5.352  70.450  1.00  0.00    -0.063 C  
HETATM    7  O   UNL     1      -6.936   4.347  69.492  1.00  0.00    -0.047 OA 
HETATM    8  H   UNL     1      -6.122   3.904  69.703  1.00  0.00     0.000 HD 
ENDBRANCH   5   6
ENDBRANCH   2   5
TORSDOF 2
ENDMDL
MODEL      171
REMARK 921   NORMALIZED FREE ENERGY PREDICTED BY IDOCK:   -1.03 KCAL/MOL
REMARK 922        TOTAL FREE ENERGY PREDICTED BY IDOCK:   -1.28 KCAL/MOL
REMARK 923 INTER-LIGAND FREE ENERGY PREDICTED BY IDOCK:   -1.27 KCAL/MOL
REMARK 924 INTRA-LIGAND FREE ENERGY PREDICTED BY IDOCK:   -0.01 KCAL/MOL
REMARK 927      BINDING AFFINITY PREDICTED BY RF-SCORE:    0.00 PKD
ROOT
HETATM    1  C   UNL     1      -7.487   7.308  63.466  1.00  0.00    -0.100 C  
HETATM    2  C   UNL     1      -8.038   8.602  64.047  1.00  0.00    -0.163 C  
HETATM    3  H   UNL     1      -7.577   9.800  65.524  1.00  0.00     0.000 HD 
HETATM    4  O   UNL     1      -7.233   8.991  65.162  1.00  0.00    -0.086 OA 
ENDROOT
BRANCH   2   5
HETATM    5  C   UNL     1      -8.063   9.727  63.006  1.00  0.00    -0.146 C  
BRANCH   5   6
HETATM    6  C   UNL     1      -9.477  10.232  62.725  1.00  0.00    -0.290 C  
HETATM    7  O   UNL     1      -9.546  11.648  62.820  1.00  0.00    -0.487 OA 
HETATM    8  H   UNL     1     -10.426  11.962  62.646  1.00  0.00     0.000 HD 
ENDBRANCH   5   6
ENDBRANCH   2   5
TORSDOF 2
ENDMDL
MODEL      172
REMARK 921   NORMALIZED FREE ENERGY PREDICTED BY IDOCK:   -0.98 KCAL/MOL
REMARK 922        TOTAL FREE ENERGY PREDICTED BY IDOCK:   -1.23 KCAL/MOL
REMARK 923 INTER-LIGAND FREE ENERGY PREDICTED BY IDOCK:   -0.99 KCAL/MOL
REMARK 924 INTRA-LIGAND FREE ENERGY PREDICTED BY IDOCK:   -0.23 KCAL/MOL
REMARK 927      BINDING AFFINITY PREDICTED BY RF-SCORE:    0.00 PKD
ROOT
HETATM    1  C   UNL     1      -6.012   8.704  74.487  1.00  0.00    -0.141 C  
HETATM    2  C   UNL     1      -7.413   8.112  74.431  1.00  0.00    -0.206 C  
HETATM    3  H   UNL     1      -9.048   8.439  73.408  1.00  0.00     0.000 HD 
HETATM    4  O   UNL     1      -8.173   8.808  73.442  1.00  0.00    -0.389 OA 
ENDROOT
BRANCH   2   5
HETATM    5  C   UNL     1      -7.385   6.614  74.107  1.00  0.00    -0.094 C  
BRANCH   5   6
HETATM    6  C   UNL     1      -6.767   6.324  72.740  1.00  0.00    -0.066 C  
HETATM    7  O   UNL     1      -7.752   6.335  71.717  1.00  0.00    -0.098 OA 
HETATM    8  H   UNL     1      -7.367   6.154  70.867  1.00  0.00     0.000 HD 
ENDBRANCH   5   6
ENDBRANCH   2   5
TORSDOF 2
ENDMDL
MODEL      173
REMARK 921   NORMALIZED FREE ENERGY PREDICTED BY IDOCK:   -0.97 KCAL/MOL
REMARK 922        TOTAL FREE ENERGY PREDICTED BY IDOCK:   -1.21 KCAL/MOL
REMARK 923 INTER-LIGAND FREE ENERGY PREDICTED BY IDOCK:   -0.96 KCAL/MOL
REMARK 924 INTRA-LIGAND FREE ENERGY PREDICTED BY IDOCK:   -0.26 KCAL/MOL
REMARK 927      BINDING AFFINITY PREDICTED BY RF-SCORE:    0.00 PKD
ROOT
HETATM    1  C   UNL     1      -7.914   8.361  68.861  1.00  0.00    -0.115 C  
HETATM    2  C   UNL     1      -9.206   8.179  69.645  1.00  0.00    -0.155 C  
HETATM    3  H   UNL     1     -11.075   8.716  69.436  1.00  0.00     0.000 HD 
HETATM    4  O   UNL     1     -10.269   8.830  68.947  1.00  0.00    -0.197 OA 
ENDROOT
BRANCH   2   5
HETATM    5  C   UNL     1      -9.545   6.698  69.846  1.00  0.00    -0.161 C  
BRANCH   5   6
HETATM    6  C   UNL     1      -9.488   5.903  68.543  1.00  0.00    -0.121 C  
HETATM    7  O   UNL     1     -10.651   6.121  67.756  1.00  0.00    -0.208 OA 
HETATM    8  H   UNL     1     -10.616   5.626  66.946  1.00  0.00     0.000 HD 
ENDBRANCH   5   6
ENDBRANCH   2   5
TORSDOF 2
ENDMDL
MODEL      174
REMARK 921   NORMALIZED FREE ENERGY PREDICTED BY IDOCK:   -0.95 KCAL/MOL
REMARK 922        TOTAL FREE ENERGY PREDICTED BY IDOCK:   -1.19 KCAL/MOL
REMARK 923 INTER-LIGAND FREE ENERGY PREDICTED BY IDOCK:   -0.99 KCAL/MOL
REMARK 924 INTRA-LIGAND FREE ENERGY PREDICTED BY IDOCK:   -0.20 KCAL/MOL
REMARK 927      BINDING AFFINITY PREDICTED BY RF-SCORE:    0.00 PKD
ROOT
HETATM    1  C   UNL     1     -11.023   6.393  67.051  1.00  0.00    -0.463 C  
HETATM    2  C   UNL     1      -9.634   5.774  67.125  1.00  0.00    -0.127 C  
HETATM    3  H   UNL     1      -8.241   5.269  65.849  1.00  0.00     0.000 HD 
HETATM    4  O   UNL     1      -9.108   5.654  65.802  1.00  0.00    -0.159 OA 
ENDROOT
BRANCH   2   5
HETATM    5  C   UNL     1      -8.684   6.612  67.989  1.00  0.00    -0.117 C  
BRANCH   5   6
HETATM    6  C   UNL     1      -7.384   5.877  68.307  1.00  0.00    -0.081 C  
HETATM    7  O   UNL     1      -6.414   6.085  67.290  1.00  0.00    -0.043 OA 
HETATM    8  H   UNL     1      -5.604   5.628  67.487  1.00  0.00     0.000 HD 
ENDBRANCH   5   6
ENDBRANCH   2   5
TORSDOF 2
ENDMDL
MODEL      175
REMARK 921   NORMALIZED FREE ENERGY PREDICTED BY IDOCK:   -0.95 KCAL/MOL
REMARK 922        TOTAL FREE ENERGY PREDICTED BY IDOCK:   -1.19 KCAL/MOL
REMARK 923 INTER-LIGAND FREE ENERGY PREDICTED BY IDOCK:   -0.95 KCAL/MOL
REMARK 924 INTRA-LIGAND FREE ENERGY PREDICTED BY IDOCK:   -0.24 KCAL/MOL
REMARK 927      BINDING AFFINITY PREDICTED BY RF-SCORE:    0.00 PKD
ROOT
HETATM    1  C   UNL     1      -5.741  10.317  67.656  1.00  0.00    -0.045 C  
HETATM    2  C   UNL     1      -7.178  10.810  67.562  1.00  0.00    -0.090 C  
HETATM    3  H   UNL     1      -8.074  12.463  67.026  1.00  0.00     0.000 HD 
HETATM    4  O   UNL     1      -7.177  12.156  67.085  1.00  0.00    -0.143 OA 
ENDROOT
BRANCH   2   5
HETATM    5  C   UNL     1      -8.022   9.928  66.634  1.00  0.00    -0.113 C  
BRANCH   5   6
HETATM    6  C   UNL     1      -8.886  10.747  65.678  1.00  0.00    -0.190 C  
HETATM    7  O   UNL     1      -8.177  11.064  64.488  1.00  0.00    -0.370 OA 
HETATM    8  H   UNL     1      -8.715  11.574  63.892  1.00  0.00     0.000 HD 
ENDBRANCH   5   6
ENDBRANCH   2   5
TORSDOF 2
ENDMDL
MODEL      176
REMARK 921   NORMALIZED FREE ENERGY PREDICTED BY IDOCK:   -0.91 KCAL/MOL
REMARK 922        TOTAL FREE ENERGY PREDICTED BY IDOCK:   -1.15 KCAL/MOL
REMARK 923 INTER-LIGAND FREE ENERGY PREDICTED BY IDOCK:   -0.95 KCAL/MOL
REMARK 924 INTRA-LIGAND FREE ENERGY PREDICTED BY IDOCK:   -0.20 KCAL/MOL
REMARK 927      BINDING AFFINITY PREDICTED BY RF-SCORE:    0.00 PKD
ROOT
HETATM    1  C   UNL     1      -5.806  10.013  67.867  1.00  0.00    -0.038 C  
HETATM    2  C   UNL     1      -7.232   9.841  67.365  1.00  0.00    -0.086 C  
HETATM    3  H   UNL     1      -8.410  10.764  66.106  1.00  0.00     0.000 HD 
HETATM    4  O   UNL     1      -7.520  10.872  66.419  1.00  0.00    -0.139 OA 
ENDROOT
BRANCH   2   5
HETATM    5  C   UNL     1      -7.446   8.467  66.719  1.00  0.00    -0.083 C  
BRANCH   5   6
HETATM    6  C   UNL     1      -8.917   8.185  66.419  1.00  0.00    -0.171 C  
HETATM    7  O   UNL     1      -9.277   8.653  65.127  1.00  0.00    -0.427 OA 
HETATM    8  H   UNL     1     -10.192   8.478  64.940  1.00  0.00     0.000 HD 
ENDBRANCH   5   6
ENDBRANCH   2   5
TORSDOF 2
ENDMDL
MODEL      177
REMARK 921   NORMALIZED FREE ENERGY PREDICTED BY IDOCK:   -0.89 KCAL/MOL
REMARK 922        TOTAL FREE ENERGY PREDICTED BY IDOCK:   -1.13 KCAL/MOL
REMARK 923 INTER-LIGAND FREE ENERGY PREDICTED BY IDOCK:   -0.91 KCAL/MOL
REMARK 924 INTRA-LIGAND FREE ENERGY PREDICTED BY IDOCK:   -0.22 KCAL/MOL
REMARK 927      BINDING AFFINITY PREDICTED BY RF-SCORE:    0.00 PKD
ROOT
HETATM    1  C   UNL     1      -8.384   3.732  64.117  1.00  0.00    -0.091 C  
HETATM    2  C   UNL     1      -8.083   4.272  65.508  1.00  0.00    -0.101 C  
HETATM    3  H   UNL     1      -8.167   6.011  66.399  1.00  0.00     0.000 HD 
HETATM    4  O   UNL     1      -8.355   5.674  65.531  1.00  0.00    -0.126 OA 
ENDROOT
BRANCH   2   5
HETATM    5  C   UNL     1      -8.913   3.563  66.585  1.00  0.00    -0.158 C  
BRANCH   5   6
HETATM    6  C   UNL     1     -10.086   4.412  67.071  1.00  0.00    -0.096 C  
HETATM    7  O   UNL     1     -11.146   4.415  66.124  1.00  0.00    -0.337 OA 
HETATM    8  H   UNL     1     -11.876   4.943  66.427  1.00  0.00     0.000 HD 
ENDBRANCH   5   6
ENDBRANCH   2   5
TORSDOF 2
ENDMDL
MODEL      178
REMARK 921   NORMALIZED FREE ENERGY PREDICTED BY IDOCK:   -0.89 KCAL/MOL
REMARK 922        TOTAL FREE ENERGY PREDICTED BY IDOCK:   -1.12 KCAL/MOL
REMARK 923 INTER-LIGAND FREE ENERGY PREDICTED BY IDOCK:   -1.11 KCAL/MOL
REMARK 924 INTRA-LIGAND FREE ENERGY PREDICTED BY IDOCK:   -0.01 KCAL/MOL
REMARK 927      BINDING AFFINITY PREDICTED BY RF-SCORE:    0.00 PKD
ROOT
HETATM    1  C   UNL     1      -9.904   4.019  72.046  1.00  0.00    -0.242 C  
HETATM    2  C   UNL     1      -8.831   5.043  71.707  1.00  0.00    -0.133 C  
HETATM    3  H   UNL     1      -7.635   5.393  70.199  1.00  0.00     0.000 HD 
HETATM    4  O   UNL     1      -8.304   4.753  70.411  1.00  0.00    -0.084 OA 
ENDROOT
BRANCH   2   5
HETATM    5  C   UNL     1      -9.381   6.474  71.737  1.00  0.00    -0.149 C  
BRANCH   5   6
HETATM    6  C   UNL     1     -10.895   6.522  71.545  1.00  0.00    -0.246 C  
HETATM    7  O   UNL     1     -11.342   7.849  71.303  1.00  0.00    -0.252 OA 
HETATM    8  H   UNL     1     -12.284   7.878  71.184  1.00  0.00     0.000 HD 
ENDBRANCH   5   6
ENDBRANCH   2   5
TORSDOF 2
ENDMDL
MODEL      179
REMARK 921   NORMALIZED FREE ENERGY PREDICTED BY IDOCK:   -0.88 KCAL/MOL
REMARK 922        TOTAL FREE ENERGY PREDICTED BY IDOCK:   -1.12 KCAL/MOL
REMARK 923 INTER-LIGAND FREE ENERGY PREDICTED BY IDOCK:   -0.86 KCAL/MOL
REMARK 924 INTRA-LIGAND FREE ENERGY PREDICTED BY IDOCK:   -0.26 KCAL/MOL
REMARK 927      BINDING AFFINITY PREDICTED BY RF-SCORE:    0.00 PKD
ROOT
HETATM    1  C   UNL     1      -9.029   6.970  70.804  1.00  0.00    -0.150 C  
HETATM    2  C   UNL     1      -8.661   6.007  69.684  1.00  0.00    -0.133 C  
HETATM    3  H   UNL     1      -7.406   4.525  69.447  1.00  0.00     0.000 HD 
HETATM    4  O   UNL     1      -7.635   5.127  70.146  1.00  0.00    -0.067 OA 
ENDROOT
BRANCH   2   5
HETATM    5  C   UNL     1      -9.873   5.192  69.214  1.00  0.00    -0.260 C  
BRANCH   5   6
HETATM    6  C   UNL     1      -9.776   3.721  69.610  1.00  0.00    -0.107 C  
HETATM    7  O   UNL     1      -9.930   3.554  71.012  1.00  0.00    -0.143 OA 
HETATM    8  H   UNL     1      -9.870   2.638  71.259  1.00  0.00     0.000 HD 
ENDBRANCH   5   6
ENDBRANCH   2   5
TORSDOF 2
ENDMDL
MODEL      180
REMARK 921   NORMALIZED FREE ENERGY PREDICTED BY IDOCK:   -0.88 KCAL/MOL
REMARK 922        TOTAL FREE ENERGY PREDICTED BY IDOCK:   -1.11 KCAL/MOL
REMARK 923 INTER-LIGAND FREE ENERGY PREDICTED BY IDOCK:   -1.10 KCAL/MOL
REMARK 924 INTRA-LIGAND FREE ENERGY PREDICTED BY IDOCK:   -0.01 KCAL/MOL
REMARK 927      BINDING AFFINITY PREDICTED BY RF-SCORE:    0.00 PKD
ROOT
HETATM    1  C   UNL     1      -9.082   7.724  70.005  1.00  0.00    -0.150 C  
HETATM    2  C   UNL     1      -7.862   8.564  69.654  1.00  0.00    -0.095 C  
HETATM    3  H   UNL     1      -6.704   8.794  68.095  1.00  0.00     0.000 HD 
HETATM    4  O   UNL     1      -7.465   8.270  68.314  1.00  0.00    -0.093 OA 
ENDROOT
BRANCH   2   5
HETATM    5  C   UNL     1      -8.143  10.064  69.797  1.00  0.00    -0.188 C  
BRANCH   5   6
HETATM    6  C   UNL     1      -9.192  10.558  68.804  1.00  0.00    -0.177 C  
HETATM    7  O   UNL     1      -9.318  11.973  68.849  1.00  0.00    -0.397 OA 
HETATM    8  H   UNL     1      -9.971  12.281  68.231  1.00  0.00     0.000 HD 
ENDBRANCH   5   6
ENDBRANCH   2   5
TORSDOF 2
ENDMDL
MODEL      181
REMARK 921   NORMALIZED FREE ENERGY PREDICTED BY IDOCK:   -0.87 KCAL/MOL
REMARK 922        TOTAL FREE ENERGY PREDICTED BY IDOCK:   -1.11 KCAL/MOL
REMARK 923 INTER-LIGAND FREE ENERGY PREDICTED BY IDOCK:   -0.89 KCAL/MOL
REMARK 924 INTRA-LIGAND FREE ENERGY PREDICTED BY IDOCK:   -0.21 KCAL/MOL
REMARK 927      BINDING AFFINITY PREDICTED BY RF-SCORE:    0.00 PKD
ROOT
HETATM    1  C   UNL     1      -8.606   7.447  73.365  1.00  0.00    -0.193 C  
HETATM    2  C   UNL     1      -8.036   6.141  72.831  1.00  0.00    -0.105 C  
HETATM    3  H   UNL     1      -8.021   4.268  73.396  1.00  0.00     0.000 HD 
HETATM    4  O   UNL     1      -8.377   5.084  73.729  1.00  0.00    -0.105 OA 
ENDROOT
BRANCH   2   5
HETATM    5  C   UNL     1      -8.562   5.822  71.427  1.00  0.00    -0.129 C  
BRANCH   5   6
HETATM    6  C   UNL     1      -9.967   5.225  71.452  1.00  0.00    -0.185 C  
HETATM    7  O   UNL     1      -9.925   3.806  71.406  1.00  0.00    -0.174 OA 
HETATM    8  H   UNL     1     -10.799   3.434  71.421  1.00  0.00     0.000 HD 
ENDBRANCH   5   6
ENDBRANCH   2   5
TORSDOF 2
ENDMDL
MODEL      182
REMARK 921   NORMALIZED FREE ENERGY PREDICTED BY IDOCK:   -0.83 KCAL/MOL
REMARK 922        TOTAL FREE ENERGY PREDICTED BY IDOCK:   -1.06 KCAL/MOL
REMARK 923 INTER-LIGAND FREE ENERGY PREDICTED BY IDOCK:   -1.05 KCAL/MOL
REMARK 924 INTRA-LIGAND FREE ENERGY PREDICTED BY IDOCK:   -0.01 KCAL/MOL
REMARK 927      BINDING AFFINITY PREDICTED BY RF-SCORE:    0.00 PKD
ROOT
HETATM    1  C   UNL     1      -9.713   4.858  70.686  1.00  0.00    -0.271 C  
HETATM    2  C   UNL     1      -8.865   6.007  70.161  1.00  0.00    -0.143 C  
HETATM    3  H   UNL     1      -8.086   6.520  68.441  1.00  0.00     0.000 HD 
HETATM    4  O   UNL     1      -8.615   5.803  68.769  1.00  0.00    -0.109 OA 
ENDROOT
BRANCH   2   5
HETATM    5  C   UNL     1      -9.548   7.363  70.373  1.00  0.00    -0.165 C  
BRANCH   5   6
HETATM    6  C   UNL     1      -8.898   8.479  69.559  1.00  0.00    -0.141 C  
HETATM    7  O   UNL     1      -9.376   9.755  69.961  1.00  0.00    -0.225 OA 
HETATM    8  H   UNL     1      -8.971  10.450  69.454  1.00  0.00     0.000 HD 
ENDBRANCH   5   6
ENDBRANCH   2   5
TORSDOF 2
ENDMDL
MODEL      183
REMARK 921   NORMALIZED FREE ENERGY PREDICTED BY IDOCK:   -0.79 KCAL/MOL
REMARK 922        TOTAL FREE ENERGY PREDICTED BY IDOCK:   -1.01 KCAL/MOL
REMARK 923 INTER-LIGAND FREE ENERGY PREDICTED BY IDOCK:   -0.98 KCAL/MOL
REMARK 924 INTRA-LIGAND FREE ENERGY PREDICTED BY IDOCK:   -0.03 KCAL/MOL
REMARK 927      BINDING AFFINITY PREDICTED BY RF-SCORE:    0.00 PKD
ROOT
HETATM    1  C   UNL     1     -11.592  12.913  67.833  1.00  0.00    -0.391 C  
HETATM    2  C   UNL     1     -11.073  12.451  66.478  1.00  0.00    -0.301 C  
HETATM    3  H   UNL     1     -11.852  12.010  64.739  1.00  0.00     0.000 HD 
HETATM    4  O   UNL     1     -12.177  12.297  65.585  1.00  0.00    -0.605 OA 
ENDROOT
BRANCH   2   5
HETATM    5  C   UNL     1     -10.061  13.441  65.890  1.00  0.00    -0.300 C  
BRANCH   5   6
HETATM    6  C   UNL     1      -8.710  12.791  65.598  1.00  0.00     1.018 C  
HETATM    7  O   UNL     1      -7.891  12.761  66.758  1.00  0.00    -0.399 OA 
HETATM    8  H   UNL     1      -7.051  12.356  66.577  1.00  0.00     0.000 HD 
ENDBRANCH   5   6
ENDBRANCH   2   5
TORSDOF 2
ENDMDL
MODEL      184
REMARK 921   NORMALIZED FREE ENERGY PREDICTED BY IDOCK:   -0.77 KCAL/MOL
REMARK 922        TOTAL FREE ENERGY PREDICTED BY IDOCK:   -0.98 KCAL/MOL
REMARK 923 INTER-LIGAND FREE ENERGY PREDICTED BY IDOCK:   -0.77 KCAL/MOL
REMARK 924 INTRA-LIGAND FREE ENERGY PREDICTED BY IDOCK:   -0.21 KCAL/MOL
REMARK 927      BINDING AFFINITY PREDICTED BY RF-SCORE:    0.00 PKD
ROOT
HETATM    1  C   UNL     1      -9.987   6.033  66.708  1.00  0.00    -0.215 C  
HETATM    2  C   UNL     1      -8.773   5.481  65.975  1.00  0.00    -0.141 C  
HETATM    3  H   UNL     1      -8.455   4.408  64.371  1.00  0.00     0.000 HD 
HETATM    4  O   UNL     1      -9.213   4.751  64.829  1.00  0.00    -0.154 OA 
ENDROOT
BRANCH   2   5
HETATM    5  C   UNL     1      -7.813   6.597  65.544  1.00  0.00    -0.108 C  
BRANCH   5   6
HETATM    6  C   UNL     1      -7.752   6.762  64.027  1.00  0.00    -0.112 C  
HETATM    7  O   UNL     1      -6.985   5.727  63.428  1.00  0.00    -0.039 OA 
HETATM    8  H   UNL     1      -6.947   5.829  62.484  1.00  0.00     0.000 HD 
ENDBRANCH   5   6
ENDBRANCH   2   5
TORSDOF 2
ENDMDL
MODEL      185
REMARK 921   NORMALIZED FREE ENERGY PREDICTED BY IDOCK:   -0.74 KCAL/MOL
REMARK 922        TOTAL FREE ENERGY PREDICTED BY IDOCK:   -0.96 KCAL/MOL
REMARK 923 INTER-LIGAND FREE ENERGY PREDICTED BY IDOCK:   -0.73 KCAL/MOL
REMARK 924 INTRA-LIGAND FREE ENERGY PREDICTED BY IDOCK:   -0.22 KCAL/MOL
REMARK 927      BINDING AFFINITY PREDICTED BY RF-SCORE:    0.00 PKD
ROOT
HETATM    1  C   UNL     1      -8.542   5.016  62.974  1.00  0.00    -0.109 C  
HETATM    2  C   UNL     1      -7.875   5.753  64.126  1.00  0.00    -0.118 C  
HETATM    3  H   UNL     1      -7.699   7.614  64.704  1.00  0.00     0.000 HD 
HETATM    4  O   UNL     1      -8.116   7.154  63.984  1.00  0.00    -0.110 OA 
ENDROOT
BRANCH   2   5
HETATM    5  C   UNL     1      -8.393   5.271  65.486  1.00  0.00    -0.130 C  
BRANCH   5   6
HETATM    6  C   UNL     1      -9.050   6.390  66.291  1.00  0.00    -0.151 C  
HETATM    7  O   UNL     1      -8.076   7.250  66.866  1.00  0.00    -0.116 OA 
HETATM    8  H   UNL     1      -8.485   7.946  67.367  1.00  0.00     0.000 HD 
ENDBRANCH   5   6
ENDBRANCH   2   5
TORSDOF 2
ENDMDL
MODEL      186
REMARK 921   NORMALIZED FREE ENERGY PREDICTED BY IDOCK:   -0.73 KCAL/MOL
REMARK 922        TOTAL FREE ENERGY PREDICTED BY IDOCK:   -0.95 KCAL/MOL
REMARK 923 INTER-LIGAND FREE ENERGY PREDICTED BY IDOCK:   -0.73 KCAL/MOL
REMARK 924 INTRA-LIGAND FREE ENERGY PREDICTED BY IDOCK:   -0.22 KCAL/MOL
REMARK 927      BINDING AFFINITY PREDICTED BY RF-SCORE:    0.00 PKD
ROOT
HETATM    1  C   UNL     1      -8.102   4.820  66.376  1.00  0.00    -0.107 C  
HETATM    2  C   UNL     1      -7.777   5.178  67.819  1.00  0.00    -0.088 C  
HETATM    3  H   UNL     1      -7.341   6.809  68.808  1.00  0.00     0.000 HD 
HETATM    4  O   UNL     1      -7.543   6.585  67.907  1.00  0.00    -0.099 OA 
ENDROOT
BRANCH   2   5
HETATM    5  C   UNL     1      -8.908   4.778  68.773  1.00  0.00    -0.122 C  
BRANCH   5   6
HETATM    6  C   UNL     1      -9.886   5.922  69.032  1.00  0.00    -0.152 C  
HETATM    7  O   UNL     1      -9.416   6.778  70.064  1.00  0.00    -0.158 OA 
HETATM    8  H   UNL     1     -10.025   7.489  70.225  1.00  0.00     0.000 HD 
ENDBRANCH   5   6
ENDBRANCH   2   5
TORSDOF 2
ENDMDL
MODEL      187
REMARK 921   NORMALIZED FREE ENERGY PREDICTED BY IDOCK:   -0.73 KCAL/MOL
REMARK 922        TOTAL FREE ENERGY PREDICTED BY IDOCK:   -0.94 KCAL/MOL
REMARK 923 INTER-LIGAND FREE ENERGY PREDICTED BY IDOCK:   -0.94 KCAL/MOL
REMARK 924 INTRA-LIGAND FREE ENERGY PREDICTED BY IDOCK:   -0.01 KCAL/MOL
REMARK 927      BINDING AFFINITY PREDICTED BY RF-SCORE:    0.00 PKD
ROOT
HETATM    1  C   UNL     1      -9.584   8.608  69.264  1.00  0.00    -0.166 C  
HETATM    2  C   UNL     1      -9.851   7.220  69.828  1.00  0.00    -0.177 C  
HETATM    3  H   UNL     1     -11.169   5.804  69.538  1.00  0.00     0.000 HD 
HETATM    4  O   UNL     1     -11.003   6.671  69.187  1.00  0.00    -0.263 OA 
ENDROOT
BRANCH   2   5
HETATM    5  C   UNL     1      -8.651   6.286  69.631  1.00  0.00    -0.133 C  
BRANCH   5   6
HETATM    6  C   UNL     1      -7.548   6.528  70.659  1.00  0.00    -0.102 C  
HETATM    7  O   UNL     1      -7.433   5.434  71.558  1.00  0.00    -0.094 OA 
HETATM    8  H   UNL     1      -6.747   5.584  72.198  1.00  0.00     0.000 HD 
ENDBRANCH   5   6
ENDBRANCH   2   5
TORSDOF 2
ENDMDL
MODEL      188
REMARK 921   NORMALIZED FREE ENERGY PREDICTED BY IDOCK:   -0.71 KCAL/MOL
REMARK 922        TOTAL FREE ENERGY PREDICTED BY IDOCK:   -0.92 KCAL/MOL
REMARK 923 INTER-LIGAND FREE ENERGY PREDICTED BY IDOCK:   -0.69 KCAL/MOL
REMARK 924 INTRA-LIGAND FREE ENERGY PREDICTED BY IDOCK:   -0.23 KCAL/MOL
REMARK 927      BINDING AFFINITY PREDICTED BY RF-SCORE:    0.00 PKD
ROOT
HETATM    1  C   UNL     1     -10.263   6.898  69.001  1.00  0.00    -0.189 C  
HETATM    2  C   UNL     1      -8.852   7.436  68.809  1.00  0.00    -0.130 C  
HETATM    3  H   UNL     1      -7.522   7.438  67.375  1.00  0.00     0.000 HD 
HETATM    4  O   UNL     1      -8.403   7.102  67.495  1.00  0.00    -0.115 OA 
ENDROOT
BRANCH   2   5
HETATM    5  C   UNL     1      -8.790   8.954  69.011  1.00  0.00    -0.136 C  
BRANCH   5   6
HETATM    6  C   UNL     1      -7.379   9.510  68.829  1.00  0.00    -0.074 C  
HETATM    7  O   UNL     1      -6.399   8.496  69.008  1.00  0.00    -0.043 OA 
HETATM    8  H   UNL     1      -5.522   8.842  68.894  1.00  0.00     0.000 HD 
ENDBRANCH   5   6
ENDBRANCH   2   5
TORSDOF 2
ENDMDL
MODEL      189
REMARK 921   NORMALIZED FREE ENERGY PREDICTED BY IDOCK:   -0.66 KCAL/MOL
REMARK 922        TOTAL FREE ENERGY PREDICTED BY IDOCK:   -0.87 KCAL/MOL
REMARK 923 INTER-LIGAND FREE ENERGY PREDICTED BY IDOCK:   -0.64 KCAL/MOL
REMARK 924 INTRA-LIGAND FREE ENERGY PREDICTED BY IDOCK:   -0.23 KCAL/MOL
REMARK 927      BINDING AFFINITY PREDICTED BY RF-SCORE:    0.00 PKD
ROOT
HETATM    1  C   UNL     1      -8.240   8.354  72.714  1.00  0.00    -0.186 C  
HETATM    2  C   UNL     1      -7.605   7.118  73.335  1.00  0.00    -0.081 C  
HETATM    3  H   UNL     1      -6.361   6.749  74.799  1.00  0.00     0.000 HD 
HETATM    4  O   UNL     1      -6.757   7.521  74.411  1.00  0.00    -0.093 OA 
ENDROOT
BRANCH   2   5
HETATM    5  C   UNL     1      -8.662   6.132  73.846  1.00  0.00    -0.124 C  
BRANCH   5   6
HETATM    6  C   UNL     1      -8.044   4.921  74.541  1.00  0.00    -0.098 C  
HETATM    7  O   UNL     1      -6.712   4.698  74.099  1.00  0.00    -0.061 OA 
HETATM    8  H   UNL     1      -6.327   3.944  74.531  1.00  0.00     0.000 HD 
ENDBRANCH   5   6
ENDBRANCH   2   5
TORSDOF 2
ENDMDL
MODEL      190
REMARK 921   NORMALIZED FREE ENERGY PREDICTED BY IDOCK:   -0.63 KCAL/MOL
REMARK 922        TOTAL FREE ENERGY PREDICTED BY IDOCK:   -0.84 KCAL/MOL
REMARK 923 INTER-LIGAND FREE ENERGY PREDICTED BY IDOCK:   -0.82 KCAL/MOL
REMARK 924 INTRA-LIGAND FREE ENERGY PREDICTED BY IDOCK:   -0.01 KCAL/MOL
REMARK 927      BINDING AFFINITY PREDICTED BY RF-SCORE:    0.00 PKD
ROOT
HETATM    1  C   UNL     1      -8.256  11.662  67.842  1.00  0.00    -0.141 C  
HETATM    2  C   UNL     1      -7.738  10.349  68.411  1.00  0.00    -0.098 C  
HETATM    3  H   UNL     1      -6.401   9.810  69.734  1.00  0.00     0.000 HD 
HETATM    4  O   UNL     1      -6.724  10.629  69.378  1.00  0.00    -0.061 OA 
ENDROOT
BRANCH   2   5
HETATM    5  C   UNL     1      -8.860   9.528  69.057  1.00  0.00    -0.143 C  
BRANCH   5   6
HETATM    6  C   UNL     1      -8.677   9.373  70.565  1.00  0.00    -0.231 C  
HETATM    7  O   UNL     1      -9.488   8.325  71.078  1.00  0.00    -0.151 OA 
HETATM    8  H   UNL     1      -9.374   8.229  72.016  1.00  0.00     0.000 HD 
ENDBRANCH   5   6
ENDBRANCH   2   5
TORSDOF 2
ENDMDL
MODEL      191
REMARK 921   NORMALIZED FREE ENERGY PREDICTED BY IDOCK:   -0.58 KCAL/MOL
REMARK 922        TOTAL FREE ENERGY PREDICTED BY IDOCK:   -0.77 KCAL/MOL
REMARK 923 INTER-LIGAND FREE ENERGY PREDICTED BY IDOCK:   -0.56 KCAL/MOL
REMARK 924 INTRA-LIGAND FREE ENERGY PREDICTED BY IDOCK:   -0.21 KCAL/MOL
REMARK 927      BINDING AFFINITY PREDICTED BY RF-SCORE:    0.00 PKD
ROOT
HETATM    1  C   UNL     1      -8.020   3.344  65.369  1.00  0.00    -0.089 C  
HETATM    2  C   UNL     1      -7.679   3.521  66.842  1.00  0.00    -0.080 C  
HETATM    3  H   UNL     1      -6.285   4.427  67.872  1.00  0.00     0.000 HD 
HETATM    4  O   UNL     1      -6.498   4.317  66.953  1.00  0.00    -0.039 OA 
ENDROOT
BRANCH   2   5
HETATM    5  C   UNL     1      -8.826   4.182  67.616  1.00  0.00    -0.128 C  
BRANCH   5   6
HETATM    6  C   UNL     1      -9.059   5.631  67.192  1.00  0.00    -0.111 C  
HETATM    7  O   UNL     1      -8.003   6.472  67.635  1.00  0.00    -0.111 OA 
HETATM    8  H   UNL     1      -8.148   7.374  67.371  1.00  0.00     0.000 HD 
ENDBRANCH   5   6
ENDBRANCH   2   5
TORSDOF 2
ENDMDL
MODEL      192
REMARK 921   NORMALIZED FREE ENERGY PREDICTED BY IDOCK:   -0.46 KCAL/MOL
REMARK 922        TOTAL FREE ENERGY PREDICTED BY IDOCK:   -0.64 KCAL/MOL
REMARK 923 INTER-LIGAND FREE ENERGY PREDICTED BY IDOCK:   -0.49 KCAL/MOL
REMARK 924 INTRA-LIGAND FREE ENERGY PREDICTED BY IDOCK:   -0.15 KCAL/MOL
REMARK 927      BINDING AFFINITY PREDICTED BY RF-SCORE:    0.00 PKD
ROOT
HETATM    1  C   UNL     1      -6.586   8.379  71.114  1.00  0.00    -0.050 C  
HETATM    2  C   UNL     1      -6.913   8.433  69.629  1.00  0.00    -0.048 C  
HETATM    3  H   UNL     1      -7.608   7.191  68.287  1.00  0.00     0.000 HD 
HETATM    4  O   UNL     1      -7.404   7.157  69.214  1.00  0.00    -0.086 OA 
ENDROOT
BRANCH   2   5
HETATM    5  C   UNL     1      -7.950   9.517  69.314  1.00  0.00    -0.094 C  
BRANCH   5   6
HETATM    6  C   UNL     1      -7.885   9.984  67.861  1.00  0.00    -0.090 C  
HETATM    7  O   UNL     1      -8.678   9.160  67.019  1.00  0.00    -0.122 OA 
HETATM    8  H   UNL     1      -8.637   9.450  66.116  1.00  0.00     0.000 HD 
ENDBRANCH   5   6
ENDBRANCH   2   5
TORSDOF 2
ENDMDL
MODEL      193
REMARK 921   NORMALIZED FREE ENERGY PREDICTED BY IDOCK:   -0.39 KCAL/MOL
REMARK 922        TOTAL FREE ENERGY PREDICTED BY IDOCK:   -0.57 KCAL/MOL
REMARK 923 INTER-LIGAND FREE ENERGY PREDICTED BY IDOCK:   -0.52 KCAL/MOL
REMARK 924 INTRA-LIGAND FREE ENERGY PREDICTED BY IDOCK:   -0.05 KCAL/MOL
REMARK 927      BINDING AFFINITY PREDICTED BY RF-SCORE:    0.00 PKD
ROOT
HETATM    1  C   UNL     1      -5.832   8.029  71.977  1.00  0.00    -0.037 C  
HETATM    2  C   UNL     1      -6.159   8.083  70.491  1.00  0.00    -0.033 C  
HETATM    3  H   UNL     1      -6.854   6.841  69.149  1.00  0.00     0.000 HD 
HETATM    4  O   UNL     1      -6.650   6.807  70.076  1.00  0.00    -0.042 OA 
ENDROOT
BRANCH   2   5
HETATM    5  C   UNL     1      -7.196   9.167  70.177  1.00  0.00    -0.070 C  
BRANCH   5   6
HETATM    6  C   UNL     1      -8.625   8.629  70.187  1.00  0.00    -0.138 C  
HETATM    7  O   UNL     1      -9.177   8.659  71.495  1.00  0.00    -0.200 OA 
HETATM    8  H   UNL     1     -10.066   8.324  71.502  1.00  0.00     0.000 HD 
ENDBRANCH   5   6
ENDBRANCH   2   5
TORSDOF 2
ENDMDL
MODEL      194
REMARK 921   NORMALIZED FREE ENERGY PREDICTED BY IDOCK:   -0.39 KCAL/MOL
REMARK 922        TOTAL FREE ENERGY PREDICTED BY IDOCK:   -0.56 KCAL/MOL
REMARK 923 INTER-LIGAND FREE ENERGY PREDICTED BY IDOCK:   -0.54 KCAL/MOL
REMARK 924 INTRA-LIGAND FREE ENERGY PREDICTED BY IDOCK:   -0.03 KCAL/MOL
REMARK 927      BINDING AFFINITY PREDICTED BY RF-SCORE:    0.00 PKD
ROOT
HETATM    1  C   UNL     1      -7.457   8.007  68.187  1.00  0.00    -0.101 C  
HETATM    2  C   UNL     1      -8.334   6.791  68.446  1.00  0.00    -0.123 C  
HETATM    3  H   UNL     1      -9.868   5.941  67.579  1.00  0.00     0.000 HD 
HETATM    4  O   UNL     1      -9.321   6.701  67.417  1.00  0.00    -0.127 OA 
ENDROOT
BRANCH   2   5
HETATM    5  C   UNL     1      -7.513   5.497  68.494  1.00  0.00    -0.076 C  
BRANCH   5   6
HETATM    6  C   UNL     1      -7.775   4.685  69.760  1.00  0.00    -0.058 C  
HETATM    7  O   UNL     1      -6.947   5.119  70.830  1.00  0.00    -0.051 OA 
HETATM    8  H   UNL     1      -7.110   4.613  71.618  1.00  0.00     0.000 HD 
ENDBRANCH   5   6
ENDBRANCH   2   5
TORSDOF 2
ENDMDL
