MODEL        1
REMARK 921   NORMALIZED FREE ENERGY PREDICTED BY IDOCK:   -5.28 KCAL/MOL
REMARK 922        TOTAL FREE ENERGY PREDICTED BY IDOCK:   -7.12 KCAL/MOL
REMARK 923 INTER-LIGAND FREE ENERGY PREDICTED BY IDOCK:   -6.82 KCAL/MOL
REMARK 924 INTRA-LIGAND FREE ENERGY PREDICTED BY IDOCK:   -0.30 KCAL/MOL
REMARK 927      BINDING AFFINITY PREDICTED BY RF-SCORE:    0.00 PKD
ROOT
HETATM    1  C   UNL     1     -13.524  15.273  71.282  1.00  0.00    -0.591 C  
HETATM    2  C   UNL     1     -12.354  14.310  71.230  1.00  0.00    -0.439 C  
ENDROOT
BRANCH   2   3
HETATM    3  C   UNL     1     -12.799  12.855  71.090  1.00  0.00    -0.326 C  
BRANCH   3   4
HETATM    4  C   UNL     1     -12.013  12.195  69.968  1.00  0.00    -0.315 C  
BRANCH   4   5
HETATM    5  O   UNL     1     -11.854  13.064  68.844  1.00  0.00    -0.302 OA 
BRANCH   5   6
HETATM    6  C   UNL     1     -11.757  12.426  67.654  1.00  0.00    -0.346 C  
HETATM    7  O   UNL     1     -11.935  11.232  67.460  1.00  0.00    -0.612 OA 
BRANCH   6   8
HETATM    8  C   UNL     1     -11.592  13.435  66.572  1.00  0.00    -0.394 A  
HETATM    9  C   UNL     1     -12.473  13.391  65.484  1.00  0.00    -0.534 A  
HETATM   10  C   UNL     1     -12.441  14.395  64.513  1.00  0.00    -0.362 A  
HETATM   11  C   UNL     1     -11.526  15.438  64.635  1.00  0.00    -0.337 A  
HETATM   12  C   UNL     1     -10.643  15.492  65.707  1.00  0.00    -0.370 A  
HETATM   13  O   UNL     1     -11.467  16.445  63.719  1.00  0.00    -1.590 OA 
HETATM   14  C   UNL     1     -10.669  14.488  66.676  1.00  0.00    -0.305 A  
HETATM   15  H   UNL     1     -10.843  17.156  63.803  1.00  0.00     0.000 HD 
ENDBRANCH   6   8
ENDBRANCH   5   6
ENDBRANCH   4   5
ENDBRANCH   3   4
ENDBRANCH   2   3
TORSDOF 5
ENDMDL
MODEL        2
REMARK 921   NORMALIZED FREE ENERGY PREDICTED BY IDOCK:   -5.19 KCAL/MOL
REMARK 922        TOTAL FREE ENERGY PREDICTED BY IDOCK:   -7.01 KCAL/MOL
REMARK 923 INTER-LIGAND FREE ENERGY PREDICTED BY IDOCK:   -6.77 KCAL/MOL
REMARK 924 INTRA-LIGAND FREE ENERGY PREDICTED BY IDOCK:   -0.24 KCAL/MOL
REMARK 927      BINDING AFFINITY PREDICTED BY RF-SCORE:    0.00 PKD
ROOT
HETATM    1  C   UNL     1     -12.423   9.604  71.632  1.00  0.00    -0.494 C  
HETATM    2  C   UNL     1     -12.875  11.046  71.511  1.00  0.00    -0.555 C  
ENDROOT
BRANCH   2   3
HETATM    3  C   UNL     1     -12.087  11.821  70.456  1.00  0.00    -0.439 C  
BRANCH   3   4
HETATM    4  C   UNL     1     -11.884  10.939  69.234  1.00  0.00    -0.324 C  
BRANCH   4   5
HETATM    5  O   UNL     1     -12.169  11.635  68.019  1.00  0.00    -0.551 OA 
BRANCH   5   6
HETATM    6  C   UNL     1     -11.102  11.793  67.200  1.00  0.00    -0.296 C  
HETATM    7  O   UNL     1     -10.210  10.978  67.015  1.00  0.00    -0.196 OA 
BRANCH   6   8
HETATM    8  C   UNL     1     -11.280  13.037  66.402  1.00  0.00    -0.332 A  
HETATM    9  C   UNL     1     -10.297  14.030  66.493  1.00  0.00    -0.285 A  
HETATM   10  C   UNL     1     -10.354  15.154  65.664  1.00  0.00    -0.379 A  
HETATM   11  C   UNL     1     -11.398  15.279  64.750  1.00  0.00    -0.391 A  
HETATM   12  C   UNL     1     -12.382  14.304  64.652  1.00  0.00    -0.433 A  
HETATM   13  O   UNL     1     -11.488  16.351  63.914  1.00  0.00    -1.569 OA 
HETATM   14  C   UNL     1     -12.330  13.182  65.481  1.00  0.00    -0.529 A  
HETATM   15  H   UNL     1     -12.199  16.436  63.290  1.00  0.00     0.000 HD 
ENDBRANCH   6   8
ENDBRANCH   5   6
ENDBRANCH   4   5
ENDBRANCH   3   4
ENDBRANCH   2   3
TORSDOF 5
ENDMDL
MODEL        3
REMARK 921   NORMALIZED FREE ENERGY PREDICTED BY IDOCK:   -5.17 KCAL/MOL
REMARK 922        TOTAL FREE ENERGY PREDICTED BY IDOCK:   -6.99 KCAL/MOL
REMARK 923 INTER-LIGAND FREE ENERGY PREDICTED BY IDOCK:   -6.27 KCAL/MOL
REMARK 924 INTRA-LIGAND FREE ENERGY PREDICTED BY IDOCK:   -0.72 KCAL/MOL
REMARK 927      BINDING AFFINITY PREDICTED BY RF-SCORE:    0.00 PKD
ROOT
HETATM    1  C   UNL     1      -9.821  10.996  63.373  1.00  0.00    -0.404 C  
HETATM    2  C   UNL     1      -9.569  11.335  64.829  1.00  0.00    -0.269 C  
ENDROOT
BRANCH   2   3
HETATM    3  C   UNL     1     -10.153  10.294  65.783  1.00  0.00    -0.325 C  
BRANCH   3   4
HETATM    4  C   UNL     1     -10.365  10.928  67.149  1.00  0.00    -0.220 C  
BRANCH   4   5
HETATM    5  O   UNL     1     -11.713  11.370  67.330  1.00  0.00    -0.577 OA 
BRANCH   5   6
HETATM    6  C   UNL     1     -11.830  12.576  67.934  1.00  0.00    -0.323 C  
HETATM    7  O   UNL     1     -11.806  12.784  69.138  1.00  0.00    -0.298 OA 
BRANCH   6   8
HETATM    8  C   UNL     1     -11.794  13.645  66.898  1.00  0.00    -0.451 A  
HETATM    9  C   UNL     1     -10.987  14.766  67.129  1.00  0.00    -0.320 A  
HETATM   10  C   UNL     1     -10.820  15.729  66.130  1.00  0.00    -0.240 A  
HETATM   11  C   UNL     1     -11.463  15.566  64.906  1.00  0.00    -0.279 A  
HETATM   12  C   UNL     1     -12.270  14.461  64.664  1.00  0.00    -0.479 A  
HETATM   13  O   UNL     1     -11.320  16.473  63.899  1.00  0.00    -1.557 OA 
HETATM   14  C   UNL     1     -12.443  13.499  65.661  1.00  0.00    -0.528 A  
HETATM   15  H   UNL     1     -11.759  16.361  63.064  1.00  0.00     0.000 HD 
ENDBRANCH   6   8
ENDBRANCH   5   6
ENDBRANCH   4   5
ENDBRANCH   3   4
ENDBRANCH   2   3
TORSDOF 5
ENDMDL
MODEL        4
REMARK 921   NORMALIZED FREE ENERGY PREDICTED BY IDOCK:   -5.15 KCAL/MOL
REMARK 922        TOTAL FREE ENERGY PREDICTED BY IDOCK:   -6.96 KCAL/MOL
REMARK 923 INTER-LIGAND FREE ENERGY PREDICTED BY IDOCK:   -6.61 KCAL/MOL
REMARK 924 INTRA-LIGAND FREE ENERGY PREDICTED BY IDOCK:   -0.34 KCAL/MOL
REMARK 927      BINDING AFFINITY PREDICTED BY RF-SCORE:    0.00 PKD
ROOT
HETATM    1  C   UNL     1      -9.452  20.379  67.064  1.00  0.00    -0.544 C  
HETATM    2  C   UNL     1     -10.002  19.479  68.152  1.00  0.00    -0.522 C  
ENDROOT
BRANCH   2   3
HETATM    3  C   UNL     1     -10.594  18.184  67.598  1.00  0.00    -0.424 C  
BRANCH   3   4
HETATM    4  C   UNL     1     -10.495  18.196  66.081  1.00  0.00    -0.364 C  
BRANCH   4   5
HETATM    5  O   UNL     1     -10.025  16.948  65.566  1.00  0.00    -0.572 OA 
BRANCH   5   6
HETATM    6  C   UNL     1     -10.963  16.223  64.912  1.00  0.00    -0.307 C  
HETATM    7  O   UNL     1     -11.547  16.555  63.890  1.00  0.00    -1.175 OA 
BRANCH   6   8
HETATM    8  C   UNL     1     -11.039  14.865  65.517  1.00  0.00    -0.353 A  
HETATM    9  C   UNL     1     -11.631  14.733  66.780  1.00  0.00    -0.333 A  
HETATM   10  C   UNL     1     -11.842  13.465  67.328  1.00  0.00    -0.422 A  
HETATM   11  C   UNL     1     -11.457  12.336  66.610  1.00  0.00    -0.373 A  
HETATM   12  C   UNL     1     -10.865  12.452  65.359  1.00  0.00    -0.320 A  
HETATM   13  O   UNL     1     -11.654  11.080  67.100  1.00  0.00    -0.469 OA 
HETATM   14  C   UNL     1     -10.648  13.717  64.810  1.00  0.00    -0.436 A  
HETATM   15  H   UNL     1     -11.392  10.309  66.610  1.00  0.00     0.000 HD 
ENDBRANCH   6   8
ENDBRANCH   5   6
ENDBRANCH   4   5
ENDBRANCH   3   4
ENDBRANCH   2   3
TORSDOF 5
ENDMDL
MODEL        5
REMARK 921   NORMALIZED FREE ENERGY PREDICTED BY IDOCK:   -5.13 KCAL/MOL
REMARK 922        TOTAL FREE ENERGY PREDICTED BY IDOCK:   -6.94 KCAL/MOL
REMARK 923 INTER-LIGAND FREE ENERGY PREDICTED BY IDOCK:   -6.68 KCAL/MOL
REMARK 924 INTRA-LIGAND FREE ENERGY PREDICTED BY IDOCK:   -0.26 KCAL/MOL
REMARK 927      BINDING AFFINITY PREDICTED BY RF-SCORE:    0.00 PKD
ROOT
HETATM    1  C   UNL     1     -12.800  15.845  73.331  1.00  0.00    -0.688 C  
HETATM    2  C   UNL     1     -13.806  15.334  72.318  1.00  0.00    -0.632 C  
ENDROOT
BRANCH   2   3
HETATM    3  C   UNL     1     -13.274  15.388  70.887  1.00  0.00    -0.512 C  
BRANCH   3   4
HETATM    4  C   UNL     1     -12.386  14.180  70.636  1.00  0.00    -0.365 C  
BRANCH   4   5
HETATM    5  O   UNL     1     -12.306  13.854  69.246  1.00  0.00    -0.323 OA 
BRANCH   5   6
HETATM    6  C   UNL     1     -11.250  14.404  68.602  1.00  0.00    -0.259 C  
HETATM    7  O   UNL     1     -10.232  14.834  69.124  1.00  0.00    -0.233 OA 
BRANCH   6   8
HETATM    8  C   UNL     1     -11.428  14.227  67.134  1.00  0.00    -0.377 A  
HETATM    9  C   UNL     1     -12.127  13.100  66.682  1.00  0.00    -0.409 A  
HETATM   10  C   UNL     1     -12.433  12.961  65.326  1.00  0.00    -0.552 A  
HETATM   11  C   UNL     1     -12.035  13.949  64.429  1.00  0.00    -0.450 A  
HETATM   12  C   UNL     1     -11.338  15.069  64.862  1.00  0.00    -0.419 A  
HETATM   13  O   UNL     1     -12.321  13.860  63.099  1.00  0.00    -1.122 OA 
HETATM   14  C   UNL     1     -11.027  15.210  66.216  1.00  0.00    -0.335 A  
HETATM   15  H   UNL     1     -12.051  14.534  62.487  1.00  0.00     0.000 HD 
ENDBRANCH   6   8
ENDBRANCH   5   6
ENDBRANCH   4   5
ENDBRANCH   3   4
ENDBRANCH   2   3
TORSDOF 5
ENDMDL
MODEL        6
REMARK 921   NORMALIZED FREE ENERGY PREDICTED BY IDOCK:   -5.12 KCAL/MOL
REMARK 922        TOTAL FREE ENERGY PREDICTED BY IDOCK:   -6.92 KCAL/MOL
REMARK 923 INTER-LIGAND FREE ENERGY PREDICTED BY IDOCK:   -6.64 KCAL/MOL
REMARK 924 INTRA-LIGAND FREE ENERGY PREDICTED BY IDOCK:   -0.27 KCAL/MOL
REMARK 927      BINDING AFFINITY PREDICTED BY RF-SCORE:    0.00 PKD
ROOT
HETATM    1  C   UNL     1     -12.383  12.601  63.745  1.00  0.00    -0.568 C  
HETATM    2  C   UNL     1     -12.241  12.583  65.255  1.00  0.00    -0.493 C  
ENDROOT
BRANCH   2   3
HETATM    3  C   UNL     1     -12.459  13.960  65.880  1.00  0.00    -0.519 C  
BRANCH   3   4
HETATM    4  C   UNL     1     -11.540  14.117  67.081  1.00  0.00    -0.377 C  
BRANCH   4   5
HETATM    5  O   UNL     1     -12.273  14.317  68.292  1.00  0.00    -0.292 OA 
BRANCH   5   6
HETATM    6  C   UNL     1     -12.010  13.407  69.261  1.00  0.00    -0.317 C  
HETATM    7  O   UNL     1     -11.505  12.307  69.098  1.00  0.00    -0.258 OA 
BRANCH   6   8
HETATM    8  C   UNL     1     -12.250  14.031  70.592  1.00  0.00    -0.442 A  
HETATM    9  C   UNL     1     -11.842  15.356  70.787  1.00  0.00    -0.394 A  
HETATM   10  C   UNL     1     -12.163  16.024  71.971  1.00  0.00    -0.582 A  
HETATM   11  C   UNL     1     -12.890  15.360  72.956  1.00  0.00    -0.463 A  
HETATM   12  C   UNL     1     -13.298  14.043  72.778  1.00  0.00    -0.603 A  
HETATM   13  O   UNL     1     -13.236  15.974  74.122  1.00  0.00    -0.892 OA 
HETATM   14  C   UNL     1     -12.975  13.372  71.598  1.00  0.00    -0.445 A  
HETATM   15  H   UNL     1     -13.733  15.521  74.794  1.00  0.00     0.000 HD 
ENDBRANCH   6   8
ENDBRANCH   5   6
ENDBRANCH   4   5
ENDBRANCH   3   4
ENDBRANCH   2   3
TORSDOF 5
ENDMDL
MODEL        7
REMARK 921   NORMALIZED FREE ENERGY PREDICTED BY IDOCK:   -5.09 KCAL/MOL
REMARK 922        TOTAL FREE ENERGY PREDICTED BY IDOCK:   -6.87 KCAL/MOL
REMARK 923 INTER-LIGAND FREE ENERGY PREDICTED BY IDOCK:   -6.63 KCAL/MOL
REMARK 924 INTRA-LIGAND FREE ENERGY PREDICTED BY IDOCK:   -0.25 KCAL/MOL
REMARK 927      BINDING AFFINITY PREDICTED BY RF-SCORE:    0.00 PKD
ROOT
HETATM    1  C   UNL     1     -13.387   9.782  71.667  1.00  0.00    -0.487 C  
HETATM    2  C   UNL     1     -12.625  10.965  71.103  1.00  0.00    -0.532 C  
ENDROOT
BRANCH   2   3
HETATM    3  C   UNL     1     -11.821  10.604  69.855  1.00  0.00    -0.392 C  
BRANCH   3   4
HETATM    4  C   UNL     1     -11.567  11.861  69.040  1.00  0.00    -0.317 C  
BRANCH   4   5
HETATM    5  O   UNL     1     -12.186  11.799  67.753  1.00  0.00    -0.536 OA 
BRANCH   5   6
HETATM    6  C   UNL     1     -11.322  11.631  66.724  1.00  0.00    -0.286 C  
HETATM    7  O   UNL     1     -10.758  10.590  66.420  1.00  0.00    -0.191 OA 
BRANCH   6   8
HETATM    8  C   UNL     1     -11.311  12.864  65.890  1.00  0.00    -0.348 A  
HETATM    9  C   UNL     1     -12.438  13.145  65.107  1.00  0.00    -0.539 A  
HETATM   10  C   UNL     1     -12.527  14.354  64.412  1.00  0.00    -0.339 A  
HETATM   11  C   UNL     1     -11.486  15.275  64.503  1.00  0.00    -0.315 A  
HETATM   12  C   UNL     1     -10.361  15.008  65.273  1.00  0.00    -0.424 A  
HETATM   13  O   UNL     1     -11.535  16.471  63.852  1.00  0.00    -1.608 OA 
HETATM   14  C   UNL     1     -10.267  13.799  65.964  1.00  0.00    -0.315 A  
HETATM   15  H   UNL     1     -10.825  17.099  63.915  1.00  0.00     0.000 HD 
ENDBRANCH   6   8
ENDBRANCH   5   6
ENDBRANCH   4   5
ENDBRANCH   3   4
ENDBRANCH   2   3
TORSDOF 5
ENDMDL
MODEL        8
REMARK 921   NORMALIZED FREE ENERGY PREDICTED BY IDOCK:   -5.04 KCAL/MOL
REMARK 922        TOTAL FREE ENERGY PREDICTED BY IDOCK:   -6.81 KCAL/MOL
REMARK 923 INTER-LIGAND FREE ENERGY PREDICTED BY IDOCK:   -6.34 KCAL/MOL
REMARK 924 INTRA-LIGAND FREE ENERGY PREDICTED BY IDOCK:   -0.48 KCAL/MOL
REMARK 927      BINDING AFFINITY PREDICTED BY RF-SCORE:    0.00 PKD
ROOT
HETATM    1  C   UNL     1     -12.089   8.978  71.944  1.00  0.00    -0.448 C  
HETATM    2  C   UNL     1     -12.162  10.200  71.050  1.00  0.00    -0.474 C  
ENDROOT
BRANCH   2   3
HETATM    3  C   UNL     1     -10.929  10.350  70.161  1.00  0.00    -0.365 C  
BRANCH   3   4
HETATM    4  C   UNL     1     -11.183  11.436  69.127  1.00  0.00    -0.272 C  
BRANCH   4   5
HETATM    5  O   UNL     1     -12.138  12.396  69.585  1.00  0.00    -0.276 OA 
BRANCH   5   6
HETATM    6  C   UNL     1     -11.741  13.684  69.459  1.00  0.00    -0.322 C  
HETATM    7  O   UNL     1     -11.269  14.197  68.455  1.00  0.00    -0.238 OA 
BRANCH   6   8
HETATM    8  C   UNL     1     -12.149  14.441  70.674  1.00  0.00    -0.404 A  
HETATM    9  C   UNL     1     -13.143  13.892  71.495  1.00  0.00    -0.441 A  
HETATM   10  C   UNL     1     -13.464  14.500  72.711  1.00  0.00    -0.575 A  
HETATM   11  C   UNL     1     -12.790  15.655  73.100  1.00  0.00    -0.509 A  
HETATM   12  C   UNL     1     -11.805  16.213  72.294  1.00  0.00    -0.631 A  
HETATM   13  O   UNL     1     -13.062  16.275  74.282  1.00  0.00    -0.944 OA 
HETATM   14  C   UNL     1     -11.485  15.611  71.076  1.00  0.00    -0.439 A  
HETATM   15  H   UNL     1     -12.602  17.062  74.548  1.00  0.00     0.000 HD 
ENDBRANCH   6   8
ENDBRANCH   5   6
ENDBRANCH   4   5
ENDBRANCH   3   4
ENDBRANCH   2   3
TORSDOF 5
ENDMDL
MODEL        9
REMARK 921   NORMALIZED FREE ENERGY PREDICTED BY IDOCK:   -4.98 KCAL/MOL
REMARK 922        TOTAL FREE ENERGY PREDICTED BY IDOCK:   -6.73 KCAL/MOL
REMARK 923 INTER-LIGAND FREE ENERGY PREDICTED BY IDOCK:   -6.51 KCAL/MOL
REMARK 924 INTRA-LIGAND FREE ENERGY PREDICTED BY IDOCK:   -0.22 KCAL/MOL
REMARK 927      BINDING AFFINITY PREDICTED BY RF-SCORE:    0.00 PKD
ROOT
HETATM    1  C   UNL     1     -13.196  11.526  71.879  1.00  0.00    -0.479 C  
HETATM    2  C   UNL     1     -12.705  10.112  71.637  1.00  0.00    -0.549 C  
ENDROOT
BRANCH   2   3
HETATM    3  C   UNL     1     -11.725  10.024  70.468  1.00  0.00    -0.400 C  
BRANCH   3   4
HETATM    4  C   UNL     1     -11.843  11.279  69.618  1.00  0.00    -0.360 C  
BRANCH   4   5
HETATM    5  O   UNL     1     -12.081  10.973  68.243  1.00  0.00    -0.604 OA 
BRANCH   5   6
HETATM    6  C   UNL     1     -10.990  11.086  67.448  1.00  0.00    -0.291 C  
HETATM    7  O   UNL     1      -9.956  10.443  67.550  1.00  0.00    -0.171 OA 
BRANCH   6   8
HETATM    8  C   UNL     1     -11.313  11.977  66.300  1.00  0.00    -0.415 A  
HETATM    9  C   UNL     1     -11.010  11.530  65.007  1.00  0.00    -0.305 A  
HETATM   10  C   UNL     1     -11.415  12.272  63.895  1.00  0.00    -0.512 A  
HETATM   11  C   UNL     1     -12.118  13.459  64.082  1.00  0.00    -0.433 A  
HETATM   12  C   UNL     1     -12.421  13.917  65.358  1.00  0.00    -0.528 A  
HETATM   13  O   UNL     1     -12.542  14.210  63.026  1.00  0.00    -1.002 OA 
HETATM   14  C   UNL     1     -12.015  13.180  66.472  1.00  0.00    -0.459 A  
HETATM   15  H   UNL     1     -13.022  15.020  63.154  1.00  0.00     0.000 HD 
ENDBRANCH   6   8
ENDBRANCH   5   6
ENDBRANCH   4   5
ENDBRANCH   3   4
ENDBRANCH   2   3
TORSDOF 5
ENDMDL
MODEL       10
REMARK 921   NORMALIZED FREE ENERGY PREDICTED BY IDOCK:   -4.96 KCAL/MOL
REMARK 922        TOTAL FREE ENERGY PREDICTED BY IDOCK:   -6.71 KCAL/MOL
REMARK 923 INTER-LIGAND FREE ENERGY PREDICTED BY IDOCK:   -6.04 KCAL/MOL
REMARK 924 INTRA-LIGAND FREE ENERGY PREDICTED BY IDOCK:   -0.67 KCAL/MOL
REMARK 927      BINDING AFFINITY PREDICTED BY RF-SCORE:    0.00 PKD
ROOT
HETATM    1  C   UNL     1      -9.050  11.016  65.217  1.00  0.00    -0.207 C  
HETATM    2  C   UNL     1     -10.457  10.875  64.669  1.00  0.00    -0.384 C  
ENDROOT
BRANCH   2   3
HETATM    3  C   UNL     1     -10.764  11.895  63.574  1.00  0.00    -0.504 C  
BRANCH   3   4
HETATM    4  C   UNL     1     -12.269  12.084  63.472  1.00  0.00    -0.547 C  
BRANCH   4   5
HETATM    5  O   UNL     1     -12.801  12.769  64.608  1.00  0.00    -0.705 OA 
BRANCH   5   6
HETATM    6  C   UNL     1     -12.343  14.034  64.763  1.00  0.00    -0.413 C  
HETATM    7  O   UNL     1     -12.537  14.968  63.999  1.00  0.00    -0.817 OA 
BRANCH   6   8
HETATM    8  C   UNL     1     -11.730  14.168  66.113  1.00  0.00    -0.402 A  
HETATM    9  C   UNL     1     -10.927  15.288  66.369  1.00  0.00    -0.299 A  
HETATM   10  C   UNL     1     -10.440  15.523  67.657  1.00  0.00    -0.279 A  
HETATM   11  C   UNL     1     -10.757  14.636  68.682  1.00  0.00    -0.250 A  
HETATM   12  C   UNL     1     -11.548  13.519  68.442  1.00  0.00    -0.378 A  
HETATM   13  O   UNL     1     -10.313  14.831  69.956  1.00  0.00    -0.454 OA 
HETATM   14  C   UNL     1     -12.033  13.278  67.156  1.00  0.00    -0.400 A  
HETATM   15  H   UNL     1     -10.530  14.226  70.655  1.00  0.00     0.000 HD 
ENDBRANCH   6   8
ENDBRANCH   5   6
ENDBRANCH   4   5
ENDBRANCH   3   4
ENDBRANCH   2   3
TORSDOF 5
ENDMDL
MODEL       11
REMARK 921   NORMALIZED FREE ENERGY PREDICTED BY IDOCK:   -4.95 KCAL/MOL
REMARK 922        TOTAL FREE ENERGY PREDICTED BY IDOCK:   -6.70 KCAL/MOL
REMARK 923 INTER-LIGAND FREE ENERGY PREDICTED BY IDOCK:   -6.33 KCAL/MOL
REMARK 924 INTRA-LIGAND FREE ENERGY PREDICTED BY IDOCK:   -0.37 KCAL/MOL
REMARK 927      BINDING AFFINITY PREDICTED BY RF-SCORE:    0.00 PKD
ROOT
HETATM    1  C   UNL     1      -9.586  19.616  66.233  1.00  0.00    -0.488 C  
HETATM    2  C   UNL     1      -9.426  20.244  67.604  1.00  0.00    -0.507 C  
ENDROOT
BRANCH   2   3
HETATM    3  C   UNL     1     -10.160  19.465  68.694  1.00  0.00    -0.515 C  
BRANCH   3   4
HETATM    4  C   UNL     1      -9.767  17.998  68.615  1.00  0.00    -0.350 C  
BRANCH   4   5
HETATM    5  O   UNL     1     -10.897  17.153  68.387  1.00  0.00    -0.367 OA 
BRANCH   5   6
HETATM    6  C   UNL     1     -10.607  15.831  68.345  1.00  0.00    -0.264 C  
HETATM    7  O   UNL     1     -10.223  15.148  69.284  1.00  0.00    -0.232 OA 
BRANCH   6   8
HETATM    8  C   UNL     1     -11.016  15.283  67.023  1.00  0.00    -0.324 A  
HETATM    9  C   UNL     1     -11.936  14.228  66.998  1.00  0.00    -0.463 A  
HETATM   10  C   UNL     1     -12.449  13.771  65.780  1.00  0.00    -0.527 A  
HETATM   11  C   UNL     1     -12.035  14.372  64.594  1.00  0.00    -0.464 A  
HETATM   12  C   UNL     1     -11.120  15.417  64.604  1.00  0.00    -0.361 A  
HETATM   13  O   UNL     1     -12.517  13.968  63.385  1.00  0.00    -1.108 OA 
HETATM   14  C   UNL     1     -10.602  15.873  65.818  1.00  0.00    -0.368 A  
HETATM   15  H   UNL     1     -12.235  14.378  62.576  1.00  0.00     0.000 HD 
ENDBRANCH   6   8
ENDBRANCH   5   6
ENDBRANCH   4   5
ENDBRANCH   3   4
ENDBRANCH   2   3
TORSDOF 5
ENDMDL
MODEL       12
REMARK 921   NORMALIZED FREE ENERGY PREDICTED BY IDOCK:   -4.93 KCAL/MOL
REMARK 922        TOTAL FREE ENERGY PREDICTED BY IDOCK:   -6.67 KCAL/MOL
REMARK 923 INTER-LIGAND FREE ENERGY PREDICTED BY IDOCK:   -6.10 KCAL/MOL
REMARK 924 INTRA-LIGAND FREE ENERGY PREDICTED BY IDOCK:   -0.57 KCAL/MOL
REMARK 927      BINDING AFFINITY PREDICTED BY RF-SCORE:    0.00 PKD
ROOT
HETATM    1  C   UNL     1     -11.077  14.666  66.662  1.00  0.00    -0.334 C  
HETATM    2  C   UNL     1     -12.314  13.952  66.154  1.00  0.00    -0.504 C  
ENDROOT
BRANCH   2   3
HETATM    3  C   UNL     1     -11.992  12.595  65.530  1.00  0.00    -0.509 C  
BRANCH   3   4
HETATM    4  C   UNL     1     -11.169  11.774  66.510  1.00  0.00    -0.321 C  
BRANCH   4   5
HETATM    5  O   UNL     1     -11.954  11.311  67.611  1.00  0.00    -0.634 OA 
BRANCH   5   6
HETATM    6  C   UNL     1     -11.244  11.058  68.736  1.00  0.00    -0.266 C  
HETATM    7  O   UNL     1     -10.173  10.472  68.795  1.00  0.00    -0.172 OA 
BRANCH   6   8
HETATM    8  C   UNL     1     -11.870  11.776  69.880  1.00  0.00    -0.423 A  
HETATM    9  C   UNL     1     -11.913  13.176  69.841  1.00  0.00    -0.387 A  
HETATM   10  C   UNL     1     -12.605  13.886  70.825  1.00  0.00    -0.424 A  
HETATM   11  C   UNL     1     -13.251  13.191  71.845  1.00  0.00    -0.431 A  
HETATM   12  C   UNL     1     -13.213  11.803  71.899  1.00  0.00    -0.468 A  
HETATM   13  O   UNL     1     -13.948  13.841  72.819  1.00  0.00    -0.714 OA 
HETATM   14  C   UNL     1     -12.518  11.091  70.920  1.00  0.00    -0.509 A  
HETATM   15  H   UNL     1     -14.388  13.367  73.514  1.00  0.00     0.000 HD 
ENDBRANCH   6   8
ENDBRANCH   5   6
ENDBRANCH   4   5
ENDBRANCH   3   4
ENDBRANCH   2   3
TORSDOF 5
ENDMDL
MODEL       13
REMARK 921   NORMALIZED FREE ENERGY PREDICTED BY IDOCK:   -4.92 KCAL/MOL
REMARK 922        TOTAL FREE ENERGY PREDICTED BY IDOCK:   -6.66 KCAL/MOL
REMARK 923 INTER-LIGAND FREE ENERGY PREDICTED BY IDOCK:   -6.31 KCAL/MOL
REMARK 924 INTRA-LIGAND FREE ENERGY PREDICTED BY IDOCK:   -0.36 KCAL/MOL
REMARK 927      BINDING AFFINITY PREDICTED BY RF-SCORE:    0.00 PKD
ROOT
HETATM    1  C   UNL     1     -13.713  15.702  72.594  1.00  0.00    -0.666 C  
HETATM    2  C   UNL     1     -13.246  15.453  71.173  1.00  0.00    -0.583 C  
ENDROOT
BRANCH   2   3
HETATM    3  C   UNL     1     -12.371  14.206  71.054  1.00  0.00    -0.438 C  
BRANCH   3   4
HETATM    4  C   UNL     1     -12.229  13.831  69.587  1.00  0.00    -0.305 C  
BRANCH   4   5
HETATM    5  O   UNL     1     -11.255  12.803  69.390  1.00  0.00    -0.215 OA 
BRANCH   5   6
HETATM    6  C   UNL     1     -11.771  11.610  69.009  1.00  0.00    -0.324 C  
HETATM    7  O   UNL     1     -12.092  11.293  67.873  1.00  0.00    -0.634 OA 
BRANCH   6   8
HETATM    8  C   UNL     1     -11.704  10.663  70.156  1.00  0.00    -0.417 A  
HETATM    9  C   UNL     1     -12.858  10.471  70.926  1.00  0.00    -0.485 A  
HETATM   10  C   UNL     1     -12.880   9.497  71.928  1.00  0.00    -0.508 A  
HETATM   11  C   UNL     1     -11.747   8.721  72.154  1.00  0.00    -0.363 A  
HETATM   12  C   UNL     1     -10.593   8.903  71.401  1.00  0.00    -0.374 A  
HETATM   13  O   UNL     1     -11.727   7.752  73.112  1.00  0.00    -0.631 OA 
HETATM   14  C   UNL     1     -10.566   9.878  70.403  1.00  0.00    -0.364 A  
HETATM   15  H   UNL     1     -10.953   7.222  73.267  1.00  0.00     0.000 HD 
ENDBRANCH   6   8
ENDBRANCH   5   6
ENDBRANCH   4   5
ENDBRANCH   3   4
ENDBRANCH   2   3
TORSDOF 5
ENDMDL
MODEL       14
REMARK 921   NORMALIZED FREE ENERGY PREDICTED BY IDOCK:   -4.90 KCAL/MOL
REMARK 922        TOTAL FREE ENERGY PREDICTED BY IDOCK:   -6.63 KCAL/MOL
REMARK 923 INTER-LIGAND FREE ENERGY PREDICTED BY IDOCK:   -5.60 KCAL/MOL
REMARK 924 INTRA-LIGAND FREE ENERGY PREDICTED BY IDOCK:   -1.04 KCAL/MOL
REMARK 927      BINDING AFFINITY PREDICTED BY RF-SCORE:    0.00 PKD
ROOT
HETATM    1  C   UNL     1     -10.464  10.969  66.002  1.00  0.00    -0.304 C  
HETATM    2  C   UNL     1     -10.297  11.590  64.630  1.00  0.00    -0.349 C  
ENDROOT
BRANCH   2   3
HETATM    3  C   UNL     1     -11.586  11.554  63.809  1.00  0.00    -0.329 C  
BRANCH   3   4
HETATM    4  C   UNL     1     -11.862  12.939  63.246  1.00  0.00    -0.398 C  
BRANCH   4   5
HETATM    5  O   UNL     1     -12.678  13.719  64.122  1.00  0.00    -0.664 OA 
BRANCH   5   6
HETATM    6  C   UNL     1     -12.159  14.928  64.442  1.00  0.00    -0.401 C  
HETATM    7  O   UNL     1     -12.382  15.983  63.866  1.00  0.00    -0.855 OA 
BRANCH   6   8
HETATM    8  C   UNL     1     -11.425  14.817  65.732  1.00  0.00    -0.322 A  
HETATM    9  C   UNL     1     -12.093  14.262  66.831  1.00  0.00    -0.440 A  
HETATM   10  C   UNL     1     -11.405  14.016  68.022  1.00  0.00    -0.320 A  
HETATM   11  C   UNL     1     -10.051  14.330  68.108  1.00  0.00    -0.232 A  
HETATM   12  C   UNL     1      -9.376  14.886  67.028  1.00  0.00    -0.240 A  
HETATM   13  O   UNL     1      -9.337  14.098  69.245  1.00  0.00    -0.393 OA 
HETATM   14  C   UNL     1     -10.062  15.137  65.838  1.00  0.00    -0.349 A  
HETATM   15  H   UNL     1      -8.414  14.312  69.304  1.00  0.00     0.000 HD 
ENDBRANCH   6   8
ENDBRANCH   5   6
ENDBRANCH   4   5
ENDBRANCH   3   4
ENDBRANCH   2   3
TORSDOF 5
ENDMDL
MODEL       15
REMARK 921   NORMALIZED FREE ENERGY PREDICTED BY IDOCK:   -4.89 KCAL/MOL
REMARK 922        TOTAL FREE ENERGY PREDICTED BY IDOCK:   -6.62 KCAL/MOL
REMARK 923 INTER-LIGAND FREE ENERGY PREDICTED BY IDOCK:   -5.92 KCAL/MOL
REMARK 924 INTRA-LIGAND FREE ENERGY PREDICTED BY IDOCK:   -0.71 KCAL/MOL
REMARK 927      BINDING AFFINITY PREDICTED BY RF-SCORE:    0.00 PKD
ROOT
HETATM    1  C   UNL     1      -8.490  11.893  66.887  1.00  0.00    -0.174 C  
HETATM    2  C   UNL     1      -8.782  10.422  66.664  1.00  0.00    -0.141 C  
ENDROOT
BRANCH   2   3
HETATM    3  C   UNL     1     -10.269  10.147  66.447  1.00  0.00    -0.288 C  
BRANCH   3   4
HETATM    4  C   UNL     1     -11.029  10.455  67.727  1.00  0.00    -0.309 C  
BRANCH   4   5
HETATM    5  O   UNL     1     -12.104  11.371  67.503  1.00  0.00    -0.592 OA 
BRANCH   5   6
HETATM    6  C   UNL     1     -11.882  12.620  67.976  1.00  0.00    -0.323 C  
HETATM    7  O   UNL     1     -11.714  12.927  69.147  1.00  0.00    -0.290 OA 
BRANCH   6   8
HETATM    8  C   UNL     1     -11.676  13.546  66.828  1.00  0.00    -0.430 A  
HETATM    9  C   UNL     1     -12.335  13.268  65.624  1.00  0.00    -0.521 A  
HETATM   10  C   UNL     1     -12.276  14.176  64.565  1.00  0.00    -0.468 A  
HETATM   11  C   UNL     1     -11.556  15.359  64.715  1.00  0.00    -0.286 A  
HETATM   12  C   UNL     1     -10.893  15.646  65.902  1.00  0.00    -0.297 A  
HETATM   13  O   UNL     1     -11.480  16.279  63.713  1.00  0.00    -1.475 OA 
HETATM   14  C   UNL     1     -10.946  14.738  66.961  1.00  0.00    -0.324 A  
HETATM   15  H   UNL     1     -10.989  17.086  63.815  1.00  0.00     0.000 HD 
ENDBRANCH   6   8
ENDBRANCH   5   6
ENDBRANCH   4   5
ENDBRANCH   3   4
ENDBRANCH   2   3
TORSDOF 5
ENDMDL
MODEL       16
REMARK 921   NORMALIZED FREE ENERGY PREDICTED BY IDOCK:   -4.86 KCAL/MOL
REMARK 922        TOTAL FREE ENERGY PREDICTED BY IDOCK:   -6.58 KCAL/MOL
REMARK 923 INTER-LIGAND FREE ENERGY PREDICTED BY IDOCK:   -6.22 KCAL/MOL
REMARK 924 INTRA-LIGAND FREE ENERGY PREDICTED BY IDOCK:   -0.36 KCAL/MOL
REMARK 927      BINDING AFFINITY PREDICTED BY RF-SCORE:    0.00 PKD
ROOT
HETATM    1  C   UNL     1      -9.987  19.802  68.064  1.00  0.00    -0.553 C  
HETATM    2  C   UNL     1     -10.449  18.502  67.437  1.00  0.00    -0.455 C  
ENDROOT
BRANCH   2   3
HETATM    3  C   UNL     1      -9.481  17.349  67.697  1.00  0.00    -0.251 C  
BRANCH   3   4
HETATM    4  C   UNL     1     -10.256  16.041  67.734  1.00  0.00    -0.260 C  
BRANCH   4   5
HETATM    5  O   UNL     1     -11.483  16.167  68.456  1.00  0.00    -0.376 OA 
BRANCH   5   6
HETATM    6  C   UNL     1     -11.942  15.008  68.986  1.00  0.00    -0.264 C  
HETATM    7  O   UNL     1     -11.909  13.909  68.451  1.00  0.00    -0.340 OA 
BRANCH   6   8
HETATM    8  C   UNL     1     -12.316  15.237  70.409  1.00  0.00    -0.422 A  
HETATM    9  C   UNL     1     -11.483  16.047  71.191  1.00  0.00    -0.470 A  
HETATM   10  C   UNL     1     -11.862  16.396  72.490  1.00  0.00    -0.547 A  
HETATM   11  C   UNL     1     -13.072  15.932  72.999  1.00  0.00    -0.541 A  
HETATM   12  C   UNL     1     -13.906  15.124  72.236  1.00  0.00    -0.618 A  
HETATM   13  O   UNL     1     -13.487  16.257  74.256  1.00  0.00    -0.796 OA 
HETATM   14  C   UNL     1     -13.528  14.769  70.940  1.00  0.00    -0.325 A  
HETATM   15  H   UNL     1     -14.313  15.940  74.603  1.00  0.00     0.000 HD 
ENDBRANCH   6   8
ENDBRANCH   5   6
ENDBRANCH   4   5
ENDBRANCH   3   4
ENDBRANCH   2   3
TORSDOF 5
ENDMDL
MODEL       17
REMARK 921   NORMALIZED FREE ENERGY PREDICTED BY IDOCK:   -4.84 KCAL/MOL
REMARK 922        TOTAL FREE ENERGY PREDICTED BY IDOCK:   -6.55 KCAL/MOL
REMARK 923 INTER-LIGAND FREE ENERGY PREDICTED BY IDOCK:   -6.26 KCAL/MOL
REMARK 924 INTRA-LIGAND FREE ENERGY PREDICTED BY IDOCK:   -0.29 KCAL/MOL
REMARK 927      BINDING AFFINITY PREDICTED BY RF-SCORE:    0.00 PKD
ROOT
HETATM    1  C   UNL     1     -10.605   6.815  67.022  1.00  0.00    -0.405 C  
HETATM    2  C   UNL     1     -10.425   8.255  67.461  1.00  0.00    -0.325 C  
ENDROOT
BRANCH   2   3
HETATM    3  C   UNL     1      -9.494   9.037  66.536  1.00  0.00    -0.266 C  
BRANCH   3   4
HETATM    4  C   UNL     1     -10.244  10.227  65.959  1.00  0.00    -0.228 C  
BRANCH   4   5
HETATM    5  O   UNL     1     -10.133  11.384  66.790  1.00  0.00    -0.207 OA 
BRANCH   5   6
HETATM    6  C   UNL     1     -11.316  11.973  67.089  1.00  0.00    -0.333 C  
HETATM    7  O   UNL     1     -12.067  11.657  68.000  1.00  0.00    -0.597 OA 
BRANCH   6   8
HETATM    8  C   UNL     1     -11.472  13.200  66.260  1.00  0.00    -0.372 A  
HETATM    9  C   UNL     1     -10.682  14.314  66.568  1.00  0.00    -0.297 A  
HETATM   10  C   UNL     1     -10.699  15.439  65.739  1.00  0.00    -0.360 A  
HETATM   11  C   UNL     1     -11.509  15.442  64.606  1.00  0.00    -0.337 A  
HETATM   12  C   UNL     1     -12.302  14.346  64.291  1.00  0.00    -0.402 A  
HETATM   13  O   UNL     1     -11.550  16.512  63.763  1.00  0.00    -1.617 OA 
HETATM   14  C   UNL     1     -12.291  13.223  65.120  1.00  0.00    -0.516 A  
HETATM   15  H   UNL     1     -12.102  16.515  62.990  1.00  0.00     0.000 HD 
ENDBRANCH   6   8
ENDBRANCH   5   6
ENDBRANCH   4   5
ENDBRANCH   3   4
ENDBRANCH   2   3
TORSDOF 5
ENDMDL
MODEL       18
REMARK 921   NORMALIZED FREE ENERGY PREDICTED BY IDOCK:   -4.84 KCAL/MOL
REMARK 922        TOTAL FREE ENERGY PREDICTED BY IDOCK:   -6.55 KCAL/MOL
REMARK 923 INTER-LIGAND FREE ENERGY PREDICTED BY IDOCK:   -6.19 KCAL/MOL
REMARK 924 INTRA-LIGAND FREE ENERGY PREDICTED BY IDOCK:   -0.36 KCAL/MOL
REMARK 927      BINDING AFFINITY PREDICTED BY RF-SCORE:    0.00 PKD
ROOT
HETATM    1  C   UNL     1     -11.785  11.905  68.410  1.00  0.00    -0.387 C  
HETATM    2  C   UNL     1     -11.569  12.264  66.953  1.00  0.00    -0.427 C  
ENDROOT
BRANCH   2   3
HETATM    3  C   UNL     1     -12.185  13.612  66.583  1.00  0.00    -0.437 C  
BRANCH   3   4
HETATM    4  C   UNL     1     -11.679  14.037  65.213  1.00  0.00    -0.346 C  
BRANCH   4   5
HETATM    5  O   UNL     1     -10.597  14.965  65.308  1.00  0.00    -0.341 OA 
BRANCH   5   6
HETATM    6  C   UNL     1     -10.923  16.240  64.985  1.00  0.00    -0.298 C  
HETATM    7  O   UNL     1     -11.541  16.595  63.993  1.00  0.00    -1.197 OA 
BRANCH   6   8
HETATM    8  C   UNL     1     -10.586  17.133  66.128  1.00  0.00    -0.201 A  
HETATM    9  C   UNL     1     -10.557  18.515  65.903  1.00  0.00    -0.336 A  
HETATM   10  C   UNL     1     -10.376  19.397  66.971  1.00  0.00    -0.547 A  
HETATM   11  C   UNL     1     -10.224  18.891  68.260  1.00  0.00    -0.380 A  
HETATM   12  C   UNL     1     -10.246  17.522  68.497  1.00  0.00    -0.378 A  
HETATM   13  O   UNL     1     -10.056  19.713  69.333  1.00  0.00    -0.603 OA 
HETATM   14  C   UNL     1     -10.422  16.638  67.431  1.00  0.00    -0.314 A  
HETATM   15  H   UNL     1      -9.953  19.368  70.212  1.00  0.00     0.000 HD 
ENDBRANCH   6   8
ENDBRANCH   5   6
ENDBRANCH   4   5
ENDBRANCH   3   4
ENDBRANCH   2   3
TORSDOF 5
ENDMDL
MODEL       19
REMARK 921   NORMALIZED FREE ENERGY PREDICTED BY IDOCK:   -4.82 KCAL/MOL
REMARK 922        TOTAL FREE ENERGY PREDICTED BY IDOCK:   -6.53 KCAL/MOL
REMARK 923 INTER-LIGAND FREE ENERGY PREDICTED BY IDOCK:   -6.25 KCAL/MOL
REMARK 924 INTRA-LIGAND FREE ENERGY PREDICTED BY IDOCK:   -0.27 KCAL/MOL
REMARK 927      BINDING AFFINITY PREDICTED BY RF-SCORE:    0.00 PKD
ROOT
HETATM    1  C   UNL     1     -13.726  14.088  72.147  1.00  0.00    -0.603 C  
HETATM    2  C   UNL     1     -12.913  15.312  71.774  1.00  0.00    -0.475 C  
ENDROOT
BRANCH   2   3
HETATM    3  C   UNL     1     -12.229  15.169  70.415  1.00  0.00    -0.391 C  
BRANCH   3   4
HETATM    4  C   UNL     1     -12.133  13.696  70.053  1.00  0.00    -0.348 C  
BRANCH   4   5
HETATM    5  O   UNL     1     -11.345  13.483  68.880  1.00  0.00    -0.255 OA 
BRANCH   5   6
HETATM    6  C   UNL     1     -11.705  12.398  68.154  1.00  0.00    -0.353 C  
HETATM    7  O   UNL     1     -12.042  11.312  68.602  1.00  0.00    -0.543 OA 
BRANCH   6   8
HETATM    8  C   UNL     1     -11.818  12.786  66.721  1.00  0.00    -0.452 A  
HETATM    9  C   UNL     1     -11.439  11.851  65.749  1.00  0.00    -0.326 A  
HETATM   10  C   UNL     1     -11.652  12.121  64.395  1.00  0.00    -0.422 A  
HETATM   11  C   UNL     1     -12.240  13.326  64.020  1.00  0.00    -0.410 A  
HETATM   12  C   UNL     1     -12.616  14.265  64.973  1.00  0.00    -0.360 A  
HETATM   13  O   UNL     1     -12.476  13.627  62.712  1.00  0.00    -0.836 OA 
HETATM   14  C   UNL     1     -12.401  14.000  66.327  1.00  0.00    -0.482 A  
HETATM   15  H   UNL     1     -12.878  14.449  62.457  1.00  0.00     0.000 HD 
ENDBRANCH   6   8
ENDBRANCH   5   6
ENDBRANCH   4   5
ENDBRANCH   3   4
ENDBRANCH   2   3
TORSDOF 5
ENDMDL
MODEL       20
REMARK 921   NORMALIZED FREE ENERGY PREDICTED BY IDOCK:   -4.81 KCAL/MOL
REMARK 922        TOTAL FREE ENERGY PREDICTED BY IDOCK:   -6.52 KCAL/MOL
REMARK 923 INTER-LIGAND FREE ENERGY PREDICTED BY IDOCK:   -6.31 KCAL/MOL
REMARK 924 INTRA-LIGAND FREE ENERGY PREDICTED BY IDOCK:   -0.21 KCAL/MOL
REMARK 927      BINDING AFFINITY PREDICTED BY RF-SCORE:    0.00 PKD
ROOT
HETATM    1  C   UNL     1     -12.438  11.995  63.513  1.00  0.00    -0.654 C  
HETATM    2  C   UNL     1     -11.920  13.163  64.329  1.00  0.00    -0.470 C  
ENDROOT
BRANCH   2   3
HETATM    3  C   UNL     1     -12.383  13.111  65.785  1.00  0.00    -0.496 C  
BRANCH   3   4
HETATM    4  C   UNL     1     -11.417  12.256  66.589  1.00  0.00    -0.373 C  
BRANCH   4   5
HETATM    5  O   UNL     1     -12.036  11.696  67.749  1.00  0.00    -0.613 OA 
BRANCH   5   6
HETATM    6  C   UNL     1     -11.573  12.188  68.923  1.00  0.00    -0.324 C  
HETATM    7  O   UNL     1     -11.223  13.340  69.132  1.00  0.00    -0.262 OA 
BRANCH   6   8
HETATM    8  C   UNL     1     -11.739  11.156  69.983  1.00  0.00    -0.438 A  
HETATM    9  C   UNL     1     -12.762  11.331  70.924  1.00  0.00    -0.412 A  
HETATM   10  C   UNL     1     -13.040  10.326  71.855  1.00  0.00    -0.568 A  
HETATM   11  C   UNL     1     -12.291   9.152  71.840  1.00  0.00    -0.385 A  
HETATM   12  C   UNL     1     -11.271   8.967  70.915  1.00  0.00    -0.348 A  
HETATM   13  O   UNL     1     -12.534   8.142  72.721  1.00  0.00    -0.612 OA 
HETATM   14  C   UNL     1     -10.987   9.970  69.987  1.00  0.00    -0.352 A  
HETATM   15  H   UNL     1     -12.023   7.340  72.710  1.00  0.00     0.000 HD 
ENDBRANCH   6   8
ENDBRANCH   5   6
ENDBRANCH   4   5
ENDBRANCH   3   4
ENDBRANCH   2   3
TORSDOF 5
ENDMDL
MODEL       21
REMARK 921   NORMALIZED FREE ENERGY PREDICTED BY IDOCK:   -4.80 KCAL/MOL
REMARK 922        TOTAL FREE ENERGY PREDICTED BY IDOCK:   -6.51 KCAL/MOL
REMARK 923 INTER-LIGAND FREE ENERGY PREDICTED BY IDOCK:   -6.20 KCAL/MOL
REMARK 924 INTRA-LIGAND FREE ENERGY PREDICTED BY IDOCK:   -0.31 KCAL/MOL
REMARK 927      BINDING AFFINITY PREDICTED BY RF-SCORE:    0.00 PKD
ROOT
HETATM    1  C   UNL     1     -12.131  12.483  63.498  1.00  0.00    -0.653 C  
HETATM    2  C   UNL     1     -12.004  13.645  64.464  1.00  0.00    -0.454 C  
ENDROOT
BRANCH   2   3
HETATM    3  C   UNL     1     -12.077  13.203  65.924  1.00  0.00    -0.501 C  
BRANCH   3   4
HETATM    4  C   UNL     1     -11.939  14.421  66.824  1.00  0.00    -0.399 C  
BRANCH   4   5
HETATM    5  O   UNL     1     -11.228  14.119  68.027  1.00  0.00    -0.261 OA 
BRANCH   5   6
HETATM    6  C   UNL     1     -11.783  14.634  69.150  1.00  0.00    -0.309 C  
HETATM    7  O   UNL     1     -12.102  15.801  69.324  1.00  0.00    -0.350 OA 
BRANCH   6   8
HETATM    8  C   UNL     1     -12.132  13.522  70.075  1.00  0.00    -0.411 A  
HETATM    9  C   UNL     1     -12.870  13.824  71.227  1.00  0.00    -0.434 A  
HETATM   10  C   UNL     1     -13.332  12.797  72.054  1.00  0.00    -0.565 A  
HETATM   11  C   UNL     1     -13.051  11.473  71.726  1.00  0.00    -0.398 A  
HETATM   12  C   UNL     1     -12.316  11.159  70.590  1.00  0.00    -0.482 A  
HETATM   13  O   UNL     1     -13.490  10.440  72.498  1.00  0.00    -0.585 OA 
HETATM   14  C   UNL     1     -11.849  12.183  69.764  1.00  0.00    -0.397 A  
HETATM   15  H   UNL     1     -13.299   9.536  72.273  1.00  0.00     0.000 HD 
ENDBRANCH   6   8
ENDBRANCH   5   6
ENDBRANCH   4   5
ENDBRANCH   3   4
ENDBRANCH   2   3
TORSDOF 5
ENDMDL
MODEL       22
REMARK 921   NORMALIZED FREE ENERGY PREDICTED BY IDOCK:   -4.80 KCAL/MOL
REMARK 922        TOTAL FREE ENERGY PREDICTED BY IDOCK:   -6.51 KCAL/MOL
REMARK 923 INTER-LIGAND FREE ENERGY PREDICTED BY IDOCK:   -6.12 KCAL/MOL
REMARK 924 INTRA-LIGAND FREE ENERGY PREDICTED BY IDOCK:   -0.38 KCAL/MOL
REMARK 927      BINDING AFFINITY PREDICTED BY RF-SCORE:    0.00 PKD
ROOT
HETATM    1  C   UNL     1     -12.163  12.569  63.542  1.00  0.00    -0.652 C  
HETATM    2  C   UNL     1     -12.227  12.592  65.057  1.00  0.00    -0.519 C  
ENDROOT
BRANCH   2   3
HETATM    3  C   UNL     1     -12.699  13.938  65.604  1.00  0.00    -0.534 C  
BRANCH   3   4
HETATM    4  C   UNL     1     -11.491  14.760  66.025  1.00  0.00    -0.316 C  
BRANCH   4   5
HETATM    5  O   UNL     1     -11.050  14.426  67.343  1.00  0.00    -0.290 OA 
BRANCH   5   6
HETATM    6  C   UNL     1     -11.318  15.369  68.278  1.00  0.00    -0.348 C  
HETATM    7  O   UNL     1     -11.246  16.579  68.121  1.00  0.00    -0.341 OA 
BRANCH   6   8
HETATM    8  C   UNL     1     -11.908  14.713  69.476  1.00  0.00    -0.374 A  
HETATM    9  C   UNL     1     -12.649  15.501  70.367  1.00  0.00    -0.421 A  
HETATM   10  C   UNL     1     -13.330  14.905  71.432  1.00  0.00    -0.487 A  
HETATM   11  C   UNL     1     -13.264  13.525  71.602  1.00  0.00    -0.366 A  
HETATM   12  C   UNL     1     -12.529  12.732  70.729  1.00  0.00    -0.357 A  
HETATM   13  O   UNL     1     -13.921  12.900  72.619  1.00  0.00    -0.727 OA 
HETATM   14  C   UNL     1     -11.844  13.324  69.667  1.00  0.00    -0.391 A  
HETATM   15  H   UNL     1     -13.876  11.958  72.735  1.00  0.00     0.000 HD 
ENDBRANCH   6   8
ENDBRANCH   5   6
ENDBRANCH   4   5
ENDBRANCH   3   4
ENDBRANCH   2   3
TORSDOF 5
ENDMDL
MODEL       23
REMARK 921   NORMALIZED FREE ENERGY PREDICTED BY IDOCK:   -4.79 KCAL/MOL
REMARK 922        TOTAL FREE ENERGY PREDICTED BY IDOCK:   -6.49 KCAL/MOL
REMARK 923 INTER-LIGAND FREE ENERGY PREDICTED BY IDOCK:   -6.28 KCAL/MOL
REMARK 924 INTRA-LIGAND FREE ENERGY PREDICTED BY IDOCK:   -0.21 KCAL/MOL
REMARK 927      BINDING AFFINITY PREDICTED BY RF-SCORE:    0.00 PKD
ROOT
HETATM    1  C   UNL     1     -13.170   9.984  71.678  1.00  0.00    -0.518 C  
HETATM    2  C   UNL     1     -11.898   9.507  71.006  1.00  0.00    -0.408 C  
ENDROOT
BRANCH   2   3
HETATM    3  C   UNL     1     -11.156  10.633  70.288  1.00  0.00    -0.310 C  
BRANCH   3   4
HETATM    4  C   UNL     1     -12.009  11.142  69.137  1.00  0.00    -0.343 C  
BRANCH   4   5
HETATM    5  O   UNL     1     -11.321  12.119  68.353  1.00  0.00    -0.239 OA 
BRANCH   5   6
HETATM    6  C   UNL     1     -11.793  13.381  68.492  1.00  0.00    -0.366 C  
HETATM    7  O   UNL     1     -12.164  13.900  69.534  1.00  0.00    -0.336 OA 
BRANCH   6   8
HETATM    8  C   UNL     1     -11.606  14.115  67.210  1.00  0.00    -0.399 A  
HETATM    9  C   UNL     1     -12.357  13.712  66.099  1.00  0.00    -0.476 A  
HETATM   10  C   UNL     1     -12.313  14.452  64.915  1.00  0.00    -0.414 A  
HETATM   11  C   UNL     1     -11.515  15.591  64.848  1.00  0.00    -0.279 A  
HETATM   12  C   UNL     1     -10.761  16.001  65.941  1.00  0.00    -0.287 A  
HETATM   13  O   UNL     1     -11.450  16.350  63.718  1.00  0.00    -1.590 OA 
HETATM   14  C   UNL     1     -10.799  15.261  67.124  1.00  0.00    -0.322 A  
HETATM   15  H   UNL     1     -10.906  17.127  63.673  1.00  0.00     0.000 HD 
ENDBRANCH   6   8
ENDBRANCH   5   6
ENDBRANCH   4   5
ENDBRANCH   3   4
ENDBRANCH   2   3
TORSDOF 5
ENDMDL
MODEL       24
REMARK 921   NORMALIZED FREE ENERGY PREDICTED BY IDOCK:   -4.76 KCAL/MOL
REMARK 922        TOTAL FREE ENERGY PREDICTED BY IDOCK:   -6.46 KCAL/MOL
REMARK 923 INTER-LIGAND FREE ENERGY PREDICTED BY IDOCK:   -5.88 KCAL/MOL
REMARK 924 INTRA-LIGAND FREE ENERGY PREDICTED BY IDOCK:   -0.57 KCAL/MOL
REMARK 927      BINDING AFFINITY PREDICTED BY RF-SCORE:    0.00 PKD
ROOT
HETATM    1  C   UNL     1      -9.870  10.487  64.373  1.00  0.00    -0.405 C  
HETATM    2  C   UNL     1     -10.278  11.762  63.661  1.00  0.00    -0.461 C  
ENDROOT
BRANCH   2   3
HETATM    3  C   UNL     1     -11.789  11.865  63.464  1.00  0.00    -0.560 C  
BRANCH   3   4
HETATM    4  C   UNL     1     -12.200  13.329  63.490  1.00  0.00    -0.441 C  
BRANCH   4   5
HETATM    5  O   UNL     1     -12.626  13.741  64.791  1.00  0.00    -0.594 OA 
BRANCH   5   6
HETATM    6  C   UNL     1     -11.689  14.412  65.501  1.00  0.00    -0.352 C  
HETATM    7  O   UNL     1     -11.060  15.389  65.121  1.00  0.00    -0.375 OA 
BRANCH   6   8
HETATM    8  C   UNL     1     -11.677  13.900  66.899  1.00  0.00    -0.425 A  
HETATM    9  C   UNL     1     -11.874  14.814  67.942  1.00  0.00    -0.327 A  
HETATM   10  C   UNL     1     -12.002  14.361  69.258  1.00  0.00    -0.362 A  
HETATM   11  C   UNL     1     -11.930  12.995  69.523  1.00  0.00    -0.289 A  
HETATM   12  C   UNL     1     -11.730  12.078  68.498  1.00  0.00    -0.387 A  
HETATM   13  O   UNL     1     -12.061  12.508  70.788  1.00  0.00    -0.465 OA 
HETATM   14  C   UNL     1     -11.597  12.527  67.184  1.00  0.00    -0.437 A  
HETATM   15  H   UNL     1     -12.012  11.576  70.969  1.00  0.00     0.000 HD 
ENDBRANCH   6   8
ENDBRANCH   5   6
ENDBRANCH   4   5
ENDBRANCH   3   4
ENDBRANCH   2   3
TORSDOF 5
ENDMDL
MODEL       25
REMARK 921   NORMALIZED FREE ENERGY PREDICTED BY IDOCK:   -4.75 KCAL/MOL
REMARK 922        TOTAL FREE ENERGY PREDICTED BY IDOCK:   -6.44 KCAL/MOL
REMARK 923 INTER-LIGAND FREE ENERGY PREDICTED BY IDOCK:   -5.87 KCAL/MOL
REMARK 924 INTRA-LIGAND FREE ENERGY PREDICTED BY IDOCK:   -0.57 KCAL/MOL
REMARK 927      BINDING AFFINITY PREDICTED BY RF-SCORE:    0.00 PKD
ROOT
HETATM    1  C   UNL     1     -10.450  16.606  67.584  1.00  0.00    -0.320 C  
HETATM    2  C   UNL     1     -10.515  15.439  66.618  1.00  0.00    -0.293 C  
ENDROOT
BRANCH   2   3
HETATM    3  C   UNL     1     -11.764  14.582  66.818  1.00  0.00    -0.393 C  
BRANCH   3   4
HETATM    4  C   UNL     1     -11.355  13.209  67.328  1.00  0.00    -0.306 C  
BRANCH   4   5
HETATM    5  O   UNL     1     -10.957  13.245  68.701  1.00  0.00    -0.248 OA 
BRANCH   5   6
HETATM    6  C   UNL     1     -11.795  12.595  69.543  1.00  0.00    -0.312 C  
HETATM    7  O   UNL     1     -11.984  11.388  69.580  1.00  0.00    -0.308 OA 
BRANCH   6   8
HETATM    8  C   UNL     1     -12.308  13.555  70.558  1.00  0.00    -0.412 A  
HETATM    9  C   UNL     1     -13.070  13.054  71.621  1.00  0.00    -0.440 A  
HETATM   10  C   UNL     1     -13.459  13.896  72.665  1.00  0.00    -0.652 A  
HETATM   11  C   UNL     1     -13.087  15.238  72.639  1.00  0.00    -0.427 A  
HETATM   12  C   UNL     1     -12.335  15.750  71.589  1.00  0.00    -0.521 A  
HETATM   13  O   UNL     1     -13.435  16.094  73.641  1.00  0.00    -0.875 OA 
HETATM   14  C   UNL     1     -11.948  14.912  70.542  1.00  0.00    -0.365 A  
HETATM   15  H   UNL     1     -13.180  17.009  73.623  1.00  0.00     0.000 HD 
ENDBRANCH   6   8
ENDBRANCH   5   6
ENDBRANCH   4   5
ENDBRANCH   3   4
ENDBRANCH   2   3
TORSDOF 5
ENDMDL
MODEL       26
REMARK 921   NORMALIZED FREE ENERGY PREDICTED BY IDOCK:   -4.72 KCAL/MOL
REMARK 922        TOTAL FREE ENERGY PREDICTED BY IDOCK:   -6.40 KCAL/MOL
REMARK 923 INTER-LIGAND FREE ENERGY PREDICTED BY IDOCK:   -6.19 KCAL/MOL
REMARK 924 INTRA-LIGAND FREE ENERGY PREDICTED BY IDOCK:   -0.22 KCAL/MOL
REMARK 927      BINDING AFFINITY PREDICTED BY RF-SCORE:    0.00 PKD
ROOT
HETATM    1  C   UNL     1     -10.602  19.560  66.245  1.00  0.00    -0.580 C  
HETATM    2  C   UNL     1     -10.002  20.010  67.562  1.00  0.00    -0.565 C  
ENDROOT
BRANCH   2   3
HETATM    3  C   UNL     1      -9.925  18.880  68.587  1.00  0.00    -0.470 C  
BRANCH   3   4
HETATM    4  C   UNL     1     -10.605  17.643  68.022  1.00  0.00    -0.376 C  
BRANCH   4   5
HETATM    5  O   UNL     1     -11.110  16.791  69.053  1.00  0.00    -0.277 OA 
BRANCH   5   6
HETATM    6  C   UNL     1     -11.587  15.602  68.614  1.00  0.00    -0.382 C  
HETATM    7  O   UNL     1     -11.475  15.156  67.482  1.00  0.00    -0.337 OA 
BRANCH   6   8
HETATM    8  C   UNL     1     -12.101  14.825  69.774  1.00  0.00    -0.364 A  
HETATM    9  C   UNL     1     -12.862  15.498  70.739  1.00  0.00    -0.513 A  
HETATM   10  C   UNL     1     -13.474  14.785  71.773  1.00  0.00    -0.470 A  
HETATM   11  C   UNL     1     -13.321  13.402  71.838  1.00  0.00    -0.451 A  
HETATM   12  C   UNL     1     -12.565  12.722  70.891  1.00  0.00    -0.342 A  
HETATM   13  O   UNL     1     -13.909  12.666  72.822  1.00  0.00    -0.653 OA 
HETATM   14  C   UNL     1     -11.948  13.432  69.859  1.00  0.00    -0.408 A  
HETATM   15  H   UNL     1     -13.804  11.722  72.865  1.00  0.00     0.000 HD 
ENDBRANCH   6   8
ENDBRANCH   5   6
ENDBRANCH   4   5
ENDBRANCH   3   4
ENDBRANCH   2   3
TORSDOF 5
ENDMDL
MODEL       27
REMARK 921   NORMALIZED FREE ENERGY PREDICTED BY IDOCK:   -4.72 KCAL/MOL
REMARK 922        TOTAL FREE ENERGY PREDICTED BY IDOCK:   -6.40 KCAL/MOL
REMARK 923 INTER-LIGAND FREE ENERGY PREDICTED BY IDOCK:   -6.06 KCAL/MOL
REMARK 924 INTRA-LIGAND FREE ENERGY PREDICTED BY IDOCK:   -0.35 KCAL/MOL
REMARK 927      BINDING AFFINITY PREDICTED BY RF-SCORE:    0.00 PKD
ROOT
HETATM    1  C   UNL     1     -10.365  10.940  63.709  1.00  0.00    -0.384 C  
HETATM    2  C   UNL     1     -10.603  12.432  63.835  1.00  0.00    -0.470 C  
ENDROOT
BRANCH   2   3
HETATM    3  C   UNL     1     -12.066  12.814  63.615  1.00  0.00    -0.624 C  
BRANCH   3   4
HETATM    4  C   UNL     1     -12.734  13.038  64.963  1.00  0.00    -0.410 C  
BRANCH   4   5
HETATM    5  O   UNL     1     -11.800  13.461  65.959  1.00  0.00    -0.346 OA 
BRANCH   5   6
HETATM    6  C   UNL     1     -11.854  12.754  67.112  1.00  0.00    -0.350 C  
HETATM    7  O   UNL     1     -11.804  11.537  67.213  1.00  0.00    -0.609 OA 
BRANCH   6   8
HETATM    8  C   UNL     1     -11.783  13.694  68.264  1.00  0.00    -0.398 A  
HETATM    9  C   UNL     1     -11.628  15.061  67.997  1.00  0.00    -0.356 A  
HETATM   10  C   UNL     1     -11.689  15.991  69.037  1.00  0.00    -0.322 A  
HETATM   11  C   UNL     1     -11.902  15.550  70.341  1.00  0.00    -0.351 A  
HETATM   12  C   UNL     1     -12.053  14.197  70.621  1.00  0.00    -0.421 A  
HETATM   13  O   UNL     1     -11.980  16.422  71.385  1.00  0.00    -0.638 OA 
HETATM   14  C   UNL     1     -11.988  13.264  69.585  1.00  0.00    -0.376 A  
HETATM   15  H   UNL     1     -12.126  16.120  72.274  1.00  0.00     0.000 HD 
ENDBRANCH   6   8
ENDBRANCH   5   6
ENDBRANCH   4   5
ENDBRANCH   3   4
ENDBRANCH   2   3
TORSDOF 5
ENDMDL
MODEL       28
REMARK 921   NORMALIZED FREE ENERGY PREDICTED BY IDOCK:   -4.72 KCAL/MOL
REMARK 922        TOTAL FREE ENERGY PREDICTED BY IDOCK:   -6.40 KCAL/MOL
REMARK 923 INTER-LIGAND FREE ENERGY PREDICTED BY IDOCK:   -6.24 KCAL/MOL
REMARK 924 INTRA-LIGAND FREE ENERGY PREDICTED BY IDOCK:   -0.16 KCAL/MOL
REMARK 927      BINDING AFFINITY PREDICTED BY RF-SCORE:    0.00 PKD
ROOT
HETATM    1  C   UNL     1     -12.098  12.451  64.006  1.00  0.00    -0.563 C  
HETATM    2  C   UNL     1     -12.198  12.466  65.519  1.00  0.00    -0.356 C  
ENDROOT
BRANCH   2   3
HETATM    3  C   UNL     1     -12.025  13.868  66.103  1.00  0.00    -0.449 C  
BRANCH   3   4
HETATM    4  C   UNL     1     -11.246  13.776  67.406  1.00  0.00    -0.310 C  
BRANCH   4   5
HETATM    5  O   UNL     1     -12.056  14.101  68.538  1.00  0.00    -0.342 OA 
BRANCH   5   6
HETATM    6  C   UNL     1     -11.884  15.361  69.005  1.00  0.00    -0.335 C  
HETATM    7  O   UNL     1     -11.632  16.350  68.333  1.00  0.00    -0.286 OA 
BRANCH   6   8
HETATM    8  C   UNL     1     -12.245  15.398  70.449  1.00  0.00    -0.430 A  
HETATM    9  C   UNL     1     -11.455  16.170  71.311  1.00  0.00    -0.433 A  
HETATM   10  C   UNL     1     -11.832  16.341  72.645  1.00  0.00    -0.596 A  
HETATM   11  C   UNL     1     -12.996  15.735  73.112  1.00  0.00    -0.544 A  
HETATM   12  C   UNL     1     -13.786  14.962  72.270  1.00  0.00    -0.564 A  
HETATM   13  O   UNL     1     -13.408  15.882  74.402  1.00  0.00    -0.661 OA 
HETATM   14  C   UNL     1     -13.410  14.786  70.937  1.00  0.00    -0.372 A  
HETATM   15  H   UNL     1     -14.202  15.469  74.720  1.00  0.00     0.000 HD 
ENDBRANCH   6   8
ENDBRANCH   5   6
ENDBRANCH   4   5
ENDBRANCH   3   4
ENDBRANCH   2   3
TORSDOF 5
ENDMDL
MODEL       29
REMARK 921   NORMALIZED FREE ENERGY PREDICTED BY IDOCK:   -4.71 KCAL/MOL
REMARK 922        TOTAL FREE ENERGY PREDICTED BY IDOCK:   -6.39 KCAL/MOL
REMARK 923 INTER-LIGAND FREE ENERGY PREDICTED BY IDOCK:   -5.61 KCAL/MOL
REMARK 924 INTRA-LIGAND FREE ENERGY PREDICTED BY IDOCK:   -0.77 KCAL/MOL
REMARK 927      BINDING AFFINITY PREDICTED BY RF-SCORE:    0.00 PKD
ROOT
HETATM    1  C   UNL     1     -11.068  10.644  67.726  1.00  0.00    -0.385 C  
HETATM    2  C   UNL     1     -11.237  10.790  69.226  1.00  0.00    -0.333 C  
ENDROOT
BRANCH   2   3
HETATM    3  C   UNL     1     -11.993  12.061  69.609  1.00  0.00    -0.360 C  
BRANCH   3   4
HETATM    4  C   UNL     1     -11.272  13.268  69.028  1.00  0.00    -0.270 C  
BRANCH   4   5
HETATM    5  O   UNL     1     -12.149  14.097  68.262  1.00  0.00    -0.340 OA 
BRANCH   5   6
HETATM    6  C   UNL     1     -11.544  14.771  67.255  1.00  0.00    -0.369 C  
HETATM    7  O   UNL     1     -10.935  15.825  67.359  1.00  0.00    -0.320 OA 
BRANCH   6   8
HETATM    8  C   UNL     1     -11.563  13.930  66.027  1.00  0.00    -0.359 A  
HETATM    9  C   UNL     1     -10.337  13.537  65.474  1.00  0.00    -0.309 A  
HETATM   10  C   UNL     1     -10.306  12.642  64.401  1.00  0.00    -0.386 A  
HETATM   11  C   UNL     1     -11.501  12.147  63.886  1.00  0.00    -0.440 A  
HETATM   12  C   UNL     1     -12.724  12.532  64.421  1.00  0.00    -0.447 A  
HETATM   13  O   UNL     1     -11.518  11.264  62.848  1.00  0.00    -0.829 OA 
HETATM   14  C   UNL     1     -12.759  13.430  65.490  1.00  0.00    -0.469 A  
HETATM   15  H   UNL     1     -12.334  10.926  62.497  1.00  0.00     0.000 HD 
ENDBRANCH   6   8
ENDBRANCH   5   6
ENDBRANCH   4   5
ENDBRANCH   3   4
ENDBRANCH   2   3
TORSDOF 5
ENDMDL
MODEL       30
REMARK 921   NORMALIZED FREE ENERGY PREDICTED BY IDOCK:   -4.70 KCAL/MOL
REMARK 922        TOTAL FREE ENERGY PREDICTED BY IDOCK:   -6.38 KCAL/MOL
REMARK 923 INTER-LIGAND FREE ENERGY PREDICTED BY IDOCK:   -6.07 KCAL/MOL
REMARK 924 INTRA-LIGAND FREE ENERGY PREDICTED BY IDOCK:   -0.31 KCAL/MOL
REMARK 927      BINDING AFFINITY PREDICTED BY RF-SCORE:    0.00 PKD
ROOT
HETATM    1  C   UNL     1     -12.968  10.122  71.705  1.00  0.00    -0.567 C  
HETATM    2  C   UNL     1     -12.422  11.239  70.837  1.00  0.00    -0.493 C  
ENDROOT
BRANCH   2   3
HETATM    3  C   UNL     1     -12.962  12.610  71.239  1.00  0.00    -0.306 C  
BRANCH   3   4
HETATM    4  C   UNL     1     -12.227  13.688  70.457  1.00  0.00    -0.368 C  
BRANCH   4   5
HETATM    5  O   UNL     1     -11.676  13.182  69.239  1.00  0.00    -0.286 OA 
BRANCH   5   6
HETATM    6  C   UNL     1     -10.997  14.099  68.509  1.00  0.00    -0.254 C  
HETATM    7  O   UNL     1     -10.053  14.771  68.896  1.00  0.00    -0.228 OA 
BRANCH   6   8
HETATM    8  C   UNL     1     -11.450  14.025  67.092  1.00  0.00    -0.373 A  
HETATM    9  C   UNL     1     -11.127  15.087  66.237  1.00  0.00    -0.334 A  
HETATM   10  C   UNL     1     -11.415  15.002  64.872  1.00  0.00    -0.399 A  
HETATM   11  C   UNL     1     -12.026  13.855  64.371  1.00  0.00    -0.450 A  
HETATM   12  C   UNL     1     -12.355  12.796  65.208  1.00  0.00    -0.546 A  
HETATM   13  O   UNL     1     -12.315  13.723  63.046  1.00  0.00    -1.089 OA 
HETATM   14  C   UNL     1     -12.074  12.880  66.573  1.00  0.00    -0.375 A  
HETATM   15  H   UNL     1     -12.731  12.941  62.704  1.00  0.00     0.000 HD 
ENDBRANCH   6   8
ENDBRANCH   5   6
ENDBRANCH   4   5
ENDBRANCH   3   4
ENDBRANCH   2   3
TORSDOF 5
ENDMDL
MODEL       31
REMARK 921   NORMALIZED FREE ENERGY PREDICTED BY IDOCK:   -4.63 KCAL/MOL
REMARK 922        TOTAL FREE ENERGY PREDICTED BY IDOCK:   -6.28 KCAL/MOL
REMARK 923 INTER-LIGAND FREE ENERGY PREDICTED BY IDOCK:   -5.99 KCAL/MOL
REMARK 924 INTRA-LIGAND FREE ENERGY PREDICTED BY IDOCK:   -0.29 KCAL/MOL
REMARK 927      BINDING AFFINITY PREDICTED BY RF-SCORE:    0.00 PKD
ROOT
HETATM    1  C   UNL     1     -10.155  10.591  65.299  1.00  0.00    -0.369 C  
HETATM    2  C   UNL     1     -10.296  11.664  66.361  1.00  0.00    -0.266 C  
ENDROOT
BRANCH   2   3
HETATM    3  C   UNL     1     -10.466  11.081  67.763  1.00  0.00    -0.232 C  
BRANCH   3   4
HETATM    4  C   UNL     1     -11.709  11.676  68.406  1.00  0.00    -0.307 C  
BRANCH   4   5
HETATM    5  O   UNL     1     -11.382  12.601  69.446  1.00  0.00    -0.254 OA 
BRANCH   5   6
HETATM    6  C   UNL     1     -11.840  13.859  69.240  1.00  0.00    -0.348 C  
HETATM    7  O   UNL     1     -12.063  14.375  68.155  1.00  0.00    -0.310 OA 
BRANCH   6   8
HETATM    8  C   UNL     1     -12.222  14.458  70.548  1.00  0.00    -0.411 A  
HETATM    9  C   UNL     1     -13.105  13.747  71.371  1.00  0.00    -0.413 A  
HETATM   10  C   UNL     1     -13.387  14.206  72.660  1.00  0.00    -0.638 A  
HETATM   11  C   UNL     1     -12.787  15.376  73.118  1.00  0.00    -0.493 A  
HETATM   12  C   UNL     1     -11.914  16.094  72.311  1.00  0.00    -0.637 A  
HETATM   13  O   UNL     1     -13.025  15.855  74.372  1.00  0.00    -0.884 OA 
HETATM   14  C   UNL     1     -11.633  15.641  71.021  1.00  0.00    -0.434 A  
HETATM   15  H   UNL     1     -12.615  16.653  74.684  1.00  0.00     0.000 HD 
ENDBRANCH   6   8
ENDBRANCH   5   6
ENDBRANCH   4   5
ENDBRANCH   3   4
ENDBRANCH   2   3
TORSDOF 5
ENDMDL
MODEL       32
REMARK 921   NORMALIZED FREE ENERGY PREDICTED BY IDOCK:   -4.61 KCAL/MOL
REMARK 922        TOTAL FREE ENERGY PREDICTED BY IDOCK:   -6.26 KCAL/MOL
REMARK 923 INTER-LIGAND FREE ENERGY PREDICTED BY IDOCK:   -5.92 KCAL/MOL
REMARK 924 INTRA-LIGAND FREE ENERGY PREDICTED BY IDOCK:   -0.33 KCAL/MOL
REMARK 927      BINDING AFFINITY PREDICTED BY RF-SCORE:    0.00 PKD
ROOT
HETATM    1  C   UNL     1     -12.225  12.338  63.515  1.00  0.00    -0.669 C  
HETATM    2  C   UNL     1     -11.564  13.446  64.311  1.00  0.00    -0.442 C  
ENDROOT
BRANCH   2   3
HETATM    3  C   UNL     1     -12.492  14.043  65.367  1.00  0.00    -0.520 C  
BRANCH   3   4
HETATM    4  C   UNL     1     -11.851  13.900  66.738  1.00  0.00    -0.424 C  
BRANCH   4   5
HETATM    5  O   UNL     1     -10.855  14.898  66.970  1.00  0.00    -0.301 OA 
BRANCH   5   6
HETATM    6  C   UNL     1     -11.058  15.643  68.082  1.00  0.00    -0.330 C  
HETATM    7  O   UNL     1     -11.426  15.227  69.170  1.00  0.00    -0.277 OA 
BRANCH   6   8
HETATM    8  C   UNL     1     -10.573  17.029  67.834  1.00  0.00    -0.365 A  
HETATM    9  C   UNL     1     -10.506  17.482  66.510  1.00  0.00    -0.270 A  
HETATM   10  C   UNL     1     -10.184  18.814  66.239  1.00  0.00    -0.466 A  
HETATM   11  C   UNL     1      -9.929  19.686  67.294  1.00  0.00    -0.395 A  
HETATM   12  C   UNL     1      -9.987  19.250  68.612  1.00  0.00    -0.506 A  
HETATM   13  O   UNL     1      -9.622  20.996  67.077  1.00  0.00    -0.687 OA 
HETATM   14  C   UNL     1     -10.304  17.919  68.886  1.00  0.00    -0.272 A  
HETATM   15  H   UNL     1      -9.449  21.591  67.797  1.00  0.00     0.000 HD 
ENDBRANCH   6   8
ENDBRANCH   5   6
ENDBRANCH   4   5
ENDBRANCH   3   4
ENDBRANCH   2   3
TORSDOF 5
ENDMDL
MODEL       33
REMARK 921   NORMALIZED FREE ENERGY PREDICTED BY IDOCK:   -4.59 KCAL/MOL
REMARK 922        TOTAL FREE ENERGY PREDICTED BY IDOCK:   -6.23 KCAL/MOL
REMARK 923 INTER-LIGAND FREE ENERGY PREDICTED BY IDOCK:   -5.98 KCAL/MOL
REMARK 924 INTRA-LIGAND FREE ENERGY PREDICTED BY IDOCK:   -0.26 KCAL/MOL
REMARK 927      BINDING AFFINITY PREDICTED BY RF-SCORE:    0.00 PKD
ROOT
HETATM    1  C   UNL     1      -8.041   8.066  63.103  1.00  0.00    -0.114 C  
HETATM    2  C   UNL     1      -8.347   9.429  63.693  1.00  0.00    -0.184 C  
ENDROOT
BRANCH   2   3
HETATM    3  C   UNL     1      -8.911   9.341  65.110  1.00  0.00    -0.257 C  
BRANCH   3   4
HETATM    4  C   UNL     1     -10.073  10.312  65.248  1.00  0.00    -0.289 C  
BRANCH   4   5
HETATM    5  O   UNL     1     -10.044  11.006  66.498  1.00  0.00    -0.211 OA 
BRANCH   5   6
HETATM    6  C   UNL     1     -11.168  11.710  66.773  1.00  0.00    -0.308 C  
HETATM    7  O   UNL     1     -11.971  11.465  67.662  1.00  0.00    -0.630 OA 
BRANCH   6   8
HETATM    8  C   UNL     1     -11.179  12.951  65.952  1.00  0.00    -0.323 A  
HETATM    9  C   UNL     1     -12.293  13.200  65.140  1.00  0.00    -0.525 A  
HETATM   10  C   UNL     1     -12.407  14.413  64.455  1.00  0.00    -0.440 A  
HETATM   11  C   UNL     1     -11.404  15.370  64.585  1.00  0.00    -0.355 A  
HETATM   12  C   UNL     1     -10.291  15.135  65.383  1.00  0.00    -0.415 A  
HETATM   13  O   UNL     1     -11.478  16.570  63.945  1.00  0.00    -1.608 OA 
HETATM   14  C   UNL     1     -10.172  13.923  66.065  1.00  0.00    -0.317 A  
HETATM   15  H   UNL     1     -10.793  17.223  64.034  1.00  0.00     0.000 HD 
ENDBRANCH   6   8
ENDBRANCH   5   6
ENDBRANCH   4   5
ENDBRANCH   3   4
ENDBRANCH   2   3
TORSDOF 5
ENDMDL
MODEL       34
REMARK 921   NORMALIZED FREE ENERGY PREDICTED BY IDOCK:   -4.56 KCAL/MOL
REMARK 922        TOTAL FREE ENERGY PREDICTED BY IDOCK:   -6.19 KCAL/MOL
REMARK 923 INTER-LIGAND FREE ENERGY PREDICTED BY IDOCK:   -5.69 KCAL/MOL
REMARK 924 INTRA-LIGAND FREE ENERGY PREDICTED BY IDOCK:   -0.51 KCAL/MOL
REMARK 927      BINDING AFFINITY PREDICTED BY RF-SCORE:    0.00 PKD
ROOT
HETATM    1  C   UNL     1     -10.708  11.715  66.664  1.00  0.00    -0.310 C  
HETATM    2  C   UNL     1     -11.449  13.037  66.626  1.00  0.00    -0.382 C  
ENDROOT
BRANCH   2   3
HETATM    3  C   UNL     1     -12.505  13.085  65.523  1.00  0.00    -0.496 C  
BRANCH   3   4
HETATM    4  C   UNL     1     -12.098  14.118  64.484  1.00  0.00    -0.468 C  
BRANCH   4   5
HETATM    5  O   UNL     1     -10.889  14.791  64.843  1.00  0.00    -0.389 OA 
BRANCH   5   6
HETATM    6  C   UNL     1     -10.950  16.141  64.749  1.00  0.00    -0.313 C  
HETATM    7  O   UNL     1     -11.648  16.777  63.973  1.00  0.00    -1.195 OA 
BRANCH   6   8
HETATM    8  C   UNL     1     -10.182  16.743  65.873  1.00  0.00    -0.345 A  
HETATM    9  C   UNL     1      -9.140  15.998  66.438  1.00  0.00    -0.354 A  
HETATM   10  C   UNL     1      -8.309  16.573  67.404  1.00  0.00    -0.188 A  
HETATM   11  C   UNL     1      -8.528  17.890  67.800  1.00  0.00    -0.242 A  
HETATM   12  C   UNL     1      -9.561  18.639  67.251  1.00  0.00    -0.316 A  
HETATM   13  O   UNL     1      -7.736  18.495  68.730  1.00  0.00    -0.305 OA 
HETATM   14  C   UNL     1     -10.395  18.067  66.290  1.00  0.00    -0.384 A  
HETATM   15  H   UNL     1      -7.885  19.393  68.999  1.00  0.00     0.000 HD 
ENDBRANCH   6   8
ENDBRANCH   5   6
ENDBRANCH   4   5
ENDBRANCH   3   4
ENDBRANCH   2   3
TORSDOF 5
ENDMDL
MODEL       35
REMARK 921   NORMALIZED FREE ENERGY PREDICTED BY IDOCK:   -4.55 KCAL/MOL
REMARK 922        TOTAL FREE ENERGY PREDICTED BY IDOCK:   -6.19 KCAL/MOL
REMARK 923 INTER-LIGAND FREE ENERGY PREDICTED BY IDOCK:   -5.71 KCAL/MOL
REMARK 924 INTRA-LIGAND FREE ENERGY PREDICTED BY IDOCK:   -0.48 KCAL/MOL
REMARK 927      BINDING AFFINITY PREDICTED BY RF-SCORE:    0.00 PKD
ROOT
HETATM    1  C   UNL     1     -10.515  18.977  67.060  1.00  0.00    -0.514 C  
HETATM    2  C   UNL     1     -10.514  17.468  67.207  1.00  0.00    -0.327 C  
ENDROOT
BRANCH   2   3
HETATM    3  C   UNL     1      -9.888  16.762  66.005  1.00  0.00    -0.311 C  
BRANCH   3   4
HETATM    4  C   UNL     1     -10.984  16.094  65.189  1.00  0.00    -0.316 C  
BRANCH   4   5
HETATM    5  O   UNL     1     -10.932  14.669  65.289  1.00  0.00    -0.325 OA 
BRANCH   5   6
HETATM    6  C   UNL     1     -12.085  14.095  65.707  1.00  0.00    -0.420 C  
HETATM    7  O   UNL     1     -13.117  13.998  65.059  1.00  0.00    -0.742 OA 
BRANCH   6   8
HETATM    8  C   UNL     1     -11.847  13.419  67.012  1.00  0.00    -0.443 A  
HETATM    9  C   UNL     1     -11.982  14.174  68.184  1.00  0.00    -0.367 A  
HETATM   10  C   UNL     1     -11.899  13.552  69.433  1.00  0.00    -0.389 A  
HETATM   11  C   UNL     1     -11.678  12.179  69.502  1.00  0.00    -0.336 A  
HETATM   12  C   UNL     1     -11.538  11.419  68.347  1.00  0.00    -0.385 A  
HETATM   13  O   UNL     1     -11.601  11.529  70.697  1.00  0.00    -0.448 OA 
HETATM   14  C   UNL     1     -11.616  12.037  67.098  1.00  0.00    -0.387 A  
HETATM   15  H   UNL     1     -11.451  10.592  70.744  1.00  0.00     0.000 HD 
ENDBRANCH   6   8
ENDBRANCH   5   6
ENDBRANCH   4   5
ENDBRANCH   3   4
ENDBRANCH   2   3
TORSDOF 5
ENDMDL
MODEL       36
REMARK 921   NORMALIZED FREE ENERGY PREDICTED BY IDOCK:   -4.55 KCAL/MOL
REMARK 922        TOTAL FREE ENERGY PREDICTED BY IDOCK:   -6.19 KCAL/MOL
REMARK 923 INTER-LIGAND FREE ENERGY PREDICTED BY IDOCK:   -5.67 KCAL/MOL
REMARK 924 INTRA-LIGAND FREE ENERGY PREDICTED BY IDOCK:   -0.51 KCAL/MOL
REMARK 927      BINDING AFFINITY PREDICTED BY RF-SCORE:    0.00 PKD
ROOT
HETATM    1  C   UNL     1     -10.921  14.765  64.998  1.00  0.00    -0.426 C  
HETATM    2  C   UNL     1     -12.315  14.240  64.716  1.00  0.00    -0.440 C  
ENDROOT
BRANCH   2   3
HETATM    3  C   UNL     1     -12.393  12.716  64.792  1.00  0.00    -0.556 C  
BRANCH   3   4
HETATM    4  C   UNL     1     -11.466  12.220  65.891  1.00  0.00    -0.376 C  
BRANCH   4   5
HETATM    5  O   UNL     1     -12.151  12.056  67.135  1.00  0.00    -0.587 OA 
BRANCH   5   6
HETATM    6  C   UNL     1     -11.341  12.042  68.221  1.00  0.00    -0.286 C  
HETATM    7  O   UNL     1     -10.379  11.309  68.391  1.00  0.00    -0.178 OA 
BRANCH   6   8
HETATM    8  C   UNL     1     -11.682  13.196  69.097  1.00  0.00    -0.376 A  
HETATM    9  C   UNL     1     -12.130  12.931  70.398  1.00  0.00    -0.385 A  
HETATM   10  C   UNL     1     -12.335  13.981  71.297  1.00  0.00    -0.436 A  
HETATM   11  C   UNL     1     -12.092  15.290  70.890  1.00  0.00    -0.344 A  
HETATM   12  C   UNL     1     -11.652  15.568  69.601  1.00  0.00    -0.359 A  
HETATM   13  O   UNL     1     -12.267  16.344  71.736  1.00  0.00    -0.605 OA 
HETATM   14  C   UNL     1     -11.451  14.522  68.699  1.00  0.00    -0.321 A  
HETATM   15  H   UNL     1     -12.101  17.237  71.458  1.00  0.00     0.000 HD 
ENDBRANCH   6   8
ENDBRANCH   5   6
ENDBRANCH   4   5
ENDBRANCH   3   4
ENDBRANCH   2   3
TORSDOF 5
ENDMDL
MODEL       37
REMARK 921   NORMALIZED FREE ENERGY PREDICTED BY IDOCK:   -4.51 KCAL/MOL
REMARK 922        TOTAL FREE ENERGY PREDICTED BY IDOCK:   -6.14 KCAL/MOL
REMARK 923 INTER-LIGAND FREE ENERGY PREDICTED BY IDOCK:   -5.75 KCAL/MOL
REMARK 924 INTRA-LIGAND FREE ENERGY PREDICTED BY IDOCK:   -0.39 KCAL/MOL
REMARK 927      BINDING AFFINITY PREDICTED BY RF-SCORE:    0.00 PKD
ROOT
HETATM    1  C   UNL     1     -12.447  15.900  73.565  1.00  0.00    -0.683 C  
HETATM    2  C   UNL     1     -12.987  15.309  72.278  1.00  0.00    -0.459 C  
ENDROOT
BRANCH   2   3
HETATM    3  C   UNL     1     -13.879  14.092  72.520  1.00  0.00    -0.610 C  
BRANCH   3   4
HETATM    4  C   UNL     1     -13.163  12.841  72.037  1.00  0.00    -0.436 C  
BRANCH   4   5
HETATM    5  O   UNL     1     -12.252  13.123  70.972  1.00  0.00    -0.329 OA 
BRANCH   5   6
HETATM    6  C   UNL     1     -12.038  12.085  70.129  1.00  0.00    -0.298 C  
HETATM    7  O   UNL     1     -12.187  10.901  70.393  1.00  0.00    -0.306 OA 
BRANCH   6   8
HETATM    8  C   UNL     1     -11.780  12.614  68.761  1.00  0.00    -0.364 A  
HETATM    9  C   UNL     1     -11.415  11.707  67.758  1.00  0.00    -0.373 A  
HETATM   10  C   UNL     1     -11.292  12.137  66.434  1.00  0.00    -0.411 A  
HETATM   11  C   UNL     1     -11.534  13.472  66.121  1.00  0.00    -0.325 A  
HETATM   12  C   UNL     1     -11.893  14.383  67.107  1.00  0.00    -0.437 A  
HETATM   13  O   UNL     1     -11.438  13.933  64.842  1.00  0.00    -0.326 OA 
HETATM   14  C   UNL     1     -12.012  13.958  68.431  1.00  0.00    -0.391 A  
HETATM   15  H   UNL     1     -11.604  14.844  64.629  1.00  0.00     0.000 HD 
ENDBRANCH   6   8
ENDBRANCH   5   6
ENDBRANCH   4   5
ENDBRANCH   3   4
ENDBRANCH   2   3
TORSDOF 5
ENDMDL
MODEL       38
REMARK 921   NORMALIZED FREE ENERGY PREDICTED BY IDOCK:   -4.51 KCAL/MOL
REMARK 922        TOTAL FREE ENERGY PREDICTED BY IDOCK:   -6.13 KCAL/MOL
REMARK 923 INTER-LIGAND FREE ENERGY PREDICTED BY IDOCK:   -5.69 KCAL/MOL
REMARK 924 INTRA-LIGAND FREE ENERGY PREDICTED BY IDOCK:   -0.45 KCAL/MOL
REMARK 927      BINDING AFFINITY PREDICTED BY RF-SCORE:    0.00 PKD
ROOT
HETATM    1  C   UNL     1     -10.951   6.574  67.120  1.00  0.00    -0.480 C  
HETATM    2  C   UNL     1     -10.546   8.026  66.966  1.00  0.00    -0.364 C  
ENDROOT
BRANCH   2   3
HETATM    3  C   UNL     1      -9.827   8.568  68.201  1.00  0.00    -0.192 C  
BRANCH   3   4
HETATM    4  C   UNL     1     -10.731   9.564  68.911  1.00  0.00    -0.195 C  
BRANCH   4   5
HETATM    5  O   UNL     1     -11.436  10.399  67.990  1.00  0.00    -0.356 OA 
BRANCH   5   6
HETATM    6  C   UNL     1     -10.899  11.632  67.829  1.00  0.00    -0.217 C  
HETATM    7  O   UNL     1     -10.044  12.142  68.537  1.00  0.00    -0.209 OA 
BRANCH   6   8
HETATM    8  C   UNL     1     -11.368  12.202  66.536  1.00  0.00    -0.405 A  
HETATM    9  C   UNL     1     -12.110  13.389  66.564  1.00  0.00    -0.444 A  
HETATM   10  C   UNL     1     -12.457  14.029  65.372  1.00  0.00    -0.520 A  
HETATM   11  C   UNL     1     -12.060  13.477  64.157  1.00  0.00    -0.435 A  
HETATM   12  C   UNL     1     -11.328  12.297  64.113  1.00  0.00    -0.442 A  
HETATM   13  O   UNL     1     -12.366  14.072  62.970  1.00  0.00    -1.101 OA 
HETATM   14  C   UNL     1     -10.984  11.652  65.302  1.00  0.00    -0.327 A  
HETATM   15  H   UNL     1     -12.095  13.696  62.141  1.00  0.00     0.000 HD 
ENDBRANCH   6   8
ENDBRANCH   5   6
ENDBRANCH   4   5
ENDBRANCH   3   4
ENDBRANCH   2   3
TORSDOF 5
ENDMDL
MODEL       39
REMARK 921   NORMALIZED FREE ENERGY PREDICTED BY IDOCK:   -4.50 KCAL/MOL
REMARK 922        TOTAL FREE ENERGY PREDICTED BY IDOCK:   -6.12 KCAL/MOL
REMARK 923 INTER-LIGAND FREE ENERGY PREDICTED BY IDOCK:   -5.86 KCAL/MOL
REMARK 924 INTRA-LIGAND FREE ENERGY PREDICTED BY IDOCK:   -0.25 KCAL/MOL
REMARK 927      BINDING AFFINITY PREDICTED BY RF-SCORE:    0.00 PKD
ROOT
HETATM    1  C   UNL     1      -9.950  20.199  66.660  1.00  0.00    -0.595 C  
HETATM    2  C   UNL     1     -10.409  19.616  67.982  1.00  0.00    -0.579 C  
ENDROOT
BRANCH   2   3
HETATM    3  C   UNL     1      -9.992  18.156  68.155  1.00  0.00    -0.368 C  
BRANCH   3   4
HETATM    4  C   UNL     1     -10.599  17.325  67.036  1.00  0.00    -0.231 C  
BRANCH   4   5
HETATM    5  O   UNL     1     -10.163  15.964  67.083  1.00  0.00    -0.266 OA 
BRANCH   5   6
HETATM    6  C   UNL     1     -11.140  15.073  67.374  1.00  0.00    -0.324 C  
HETATM    7  O   UNL     1     -11.936  15.155  68.297  1.00  0.00    -0.298 OA 
BRANCH   6   8
HETATM    8  C   UNL     1     -11.227  14.070  66.278  1.00  0.00    -0.320 A  
HETATM    9  C   UNL     1     -12.485  13.541  65.961  1.00  0.00    -0.456 A  
HETATM   10  C   UNL     1     -12.635  12.699  64.856  1.00  0.00    -0.525 A  
HETATM   11  C   UNL     1     -11.525  12.389  64.075  1.00  0.00    -0.408 A  
HETATM   12  C   UNL     1     -10.270  12.902  64.380  1.00  0.00    -0.342 A  
HETATM   13  O   UNL     1     -11.626  11.581  62.982  1.00  0.00    -0.848 OA 
HETATM   14  C   UNL     1     -10.116  13.740  65.486  1.00  0.00    -0.303 A  
HETATM   15  H   UNL     1     -10.868  11.370  62.449  1.00  0.00     0.000 HD 
ENDBRANCH   6   8
ENDBRANCH   5   6
ENDBRANCH   4   5
ENDBRANCH   3   4
ENDBRANCH   2   3
TORSDOF 5
ENDMDL
MODEL       40
REMARK 921   NORMALIZED FREE ENERGY PREDICTED BY IDOCK:   -4.50 KCAL/MOL
REMARK 922        TOTAL FREE ENERGY PREDICTED BY IDOCK:   -6.12 KCAL/MOL
REMARK 923 INTER-LIGAND FREE ENERGY PREDICTED BY IDOCK:   -5.80 KCAL/MOL
REMARK 924 INTRA-LIGAND FREE ENERGY PREDICTED BY IDOCK:   -0.32 KCAL/MOL
REMARK 927      BINDING AFFINITY PREDICTED BY RF-SCORE:    0.00 PKD
ROOT
HETATM    1  C   UNL     1     -10.643   7.142  73.331  1.00  0.00    -0.424 C  
HETATM    2  C   UNL     1     -10.338   6.660  71.926  1.00  0.00    -0.219 C  
ENDROOT
BRANCH   2   3
HETATM    3  C   UNL     1     -10.429   7.779  70.890  1.00  0.00    -0.214 C  
BRANCH   3   4
HETATM    4  C   UNL     1     -10.719   9.094  71.596  1.00  0.00    -0.371 C  
BRANCH   4   5
HETATM    5  O   UNL     1     -11.606   9.922  70.842  1.00  0.00    -0.313 OA 
BRANCH   5   6
HETATM    6  C   UNL     1     -12.688  10.356  71.531  1.00  0.00    -0.459 C  
HETATM    7  O   UNL     1     -13.392   9.679  72.266  1.00  0.00    -0.438 OA 
BRANCH   6   8
HETATM    8  C   UNL     1     -12.778  11.838  71.415  1.00  0.00    -0.413 A  
HETATM    9  C   UNL     1     -12.192  12.453  70.301  1.00  0.00    -0.345 A  
HETATM   10  C   UNL     1     -12.365  13.822  70.083  1.00  0.00    -0.390 A  
HETATM   11  C   UNL     1     -13.121  14.569  70.982  1.00  0.00    -0.366 A  
HETATM   12  C   UNL     1     -13.704  13.973  72.094  1.00  0.00    -0.603 A  
HETATM   13  O   UNL     1     -13.325  15.905  70.804  1.00  0.00    -0.704 OA 
HETATM   14  C   UNL     1     -13.530  12.607  72.317  1.00  0.00    -0.541 A  
HETATM   15  H   UNL     1     -13.842  16.414  71.417  1.00  0.00     0.000 HD 
ENDBRANCH   6   8
ENDBRANCH   5   6
ENDBRANCH   4   5
ENDBRANCH   3   4
ENDBRANCH   2   3
TORSDOF 5
ENDMDL
MODEL       41
REMARK 921   NORMALIZED FREE ENERGY PREDICTED BY IDOCK:   -4.45 KCAL/MOL
REMARK 922        TOTAL FREE ENERGY PREDICTED BY IDOCK:   -6.05 KCAL/MOL
REMARK 923 INTER-LIGAND FREE ENERGY PREDICTED BY IDOCK:   -5.85 KCAL/MOL
REMARK 924 INTRA-LIGAND FREE ENERGY PREDICTED BY IDOCK:   -0.20 KCAL/MOL
REMARK 927      BINDING AFFINITY PREDICTED BY RF-SCORE:    0.00 PKD
ROOT
HETATM    1  C   UNL     1     -11.945  14.454  65.186  1.00  0.00    -0.391 C  
HETATM    2  C   UNL     1     -12.356  13.025  65.484  1.00  0.00    -0.527 C  
ENDROOT
BRANCH   2   3
HETATM    3  C   UNL     1     -11.451  12.361  66.521  1.00  0.00    -0.427 C  
BRANCH   3   4
HETATM    4  C   UNL     1     -11.846  12.835  67.910  1.00  0.00    -0.339 C  
BRANCH   4   5
HETATM    5  O   UNL     1     -12.226  11.750  68.759  1.00  0.00    -0.367 OA 
BRANCH   5   6
HETATM    6  C   UNL     1     -12.047  11.984  70.081  1.00  0.00    -0.298 C  
HETATM    7  O   UNL     1     -12.104  13.073  70.633  1.00  0.00    -0.348 OA 
BRANCH   6   8
HETATM    8  C   UNL     1     -11.967  10.683  70.799  1.00  0.00    -0.477 A  
HETATM    9  C   UNL     1     -10.796   9.924  70.669  1.00  0.00    -0.400 A  
HETATM   10  C   UNL     1     -10.623   8.764  71.427  1.00  0.00    -0.349 A  
HETATM   11  C   UNL     1     -11.624   8.367  72.311  1.00  0.00    -0.383 A  
HETATM   12  C   UNL     1     -12.792   9.106  72.447  1.00  0.00    -0.438 A  
HETATM   13  O   UNL     1     -11.494   7.248  73.079  1.00  0.00    -0.541 OA 
HETATM   14  C   UNL     1     -12.970  10.264  71.687  1.00  0.00    -0.570 A  
HETATM   15  H   UNL     1     -12.176   6.978  73.682  1.00  0.00     0.000 HD 
ENDBRANCH   6   8
ENDBRANCH   5   6
ENDBRANCH   4   5
ENDBRANCH   3   4
ENDBRANCH   2   3
TORSDOF 5
ENDMDL
MODEL       42
REMARK 921   NORMALIZED FREE ENERGY PREDICTED BY IDOCK:   -4.45 KCAL/MOL
REMARK 922        TOTAL FREE ENERGY PREDICTED BY IDOCK:   -6.05 KCAL/MOL
REMARK 923 INTER-LIGAND FREE ENERGY PREDICTED BY IDOCK:   -5.70 KCAL/MOL
REMARK 924 INTRA-LIGAND FREE ENERGY PREDICTED BY IDOCK:   -0.35 KCAL/MOL
REMARK 927      BINDING AFFINITY PREDICTED BY RF-SCORE:    0.00 PKD
ROOT
HETATM    1  C   UNL     1     -12.274  15.412  73.505  1.00  0.00    -0.646 C  
HETATM    2  C   UNL     1     -12.409  16.011  72.119  1.00  0.00    -0.557 C  
ENDROOT
BRANCH   2   3
HETATM    3  C   UNL     1     -13.199  15.113  71.168  1.00  0.00    -0.535 C  
BRANCH   3   4
HETATM    4  C   UNL     1     -12.284  14.637  70.051  1.00  0.00    -0.333 C  
BRANCH   4   5
HETATM    5  O   UNL     1     -11.306  15.620  69.705  1.00  0.00    -0.279 OA 
BRANCH   5   6
HETATM    6  C   UNL     1     -10.952  15.621  68.398  1.00  0.00    -0.308 C  
HETATM    7  O   UNL     1     -11.179  14.732  67.590  1.00  0.00    -0.298 OA 
BRANCH   6   8
HETATM    8  C   UNL     1     -10.412  16.961  68.040  1.00  0.00    -0.347 A  
HETATM    9  C   UNL     1     -10.445  17.352  66.695  1.00  0.00    -0.253 A  
HETATM   10  C   UNL     1     -10.072  18.648  66.331  1.00  0.00    -0.435 A  
HETATM   11  C   UNL     1      -9.666  19.547  67.315  1.00  0.00    -0.343 A  
HETATM   12  C   UNL     1      -9.624  19.171  68.652  1.00  0.00    -0.471 A  
HETATM   13  O   UNL     1      -9.305  20.824  67.007  1.00  0.00    -0.615 OA 
HETATM   14  C   UNL     1      -9.991  17.876  69.018  1.00  0.00    -0.276 A  
HETATM   15  H   UNL     1      -9.029  21.437  67.678  1.00  0.00     0.000 HD 
ENDBRANCH   6   8
ENDBRANCH   5   6
ENDBRANCH   4   5
ENDBRANCH   3   4
ENDBRANCH   2   3
TORSDOF 5
ENDMDL
MODEL       43
REMARK 921   NORMALIZED FREE ENERGY PREDICTED BY IDOCK:   -4.43 KCAL/MOL
REMARK 922        TOTAL FREE ENERGY PREDICTED BY IDOCK:   -6.03 KCAL/MOL
REMARK 923 INTER-LIGAND FREE ENERGY PREDICTED BY IDOCK:   -5.66 KCAL/MOL
REMARK 924 INTRA-LIGAND FREE ENERGY PREDICTED BY IDOCK:   -0.37 KCAL/MOL
REMARK 927      BINDING AFFINITY PREDICTED BY RF-SCORE:    0.00 PKD
ROOT
HETATM    1  C   UNL     1      -9.599  20.265  66.448  1.00  0.00    -0.461 C  
HETATM    2  C   UNL     1     -10.479  19.616  67.498  1.00  0.00    -0.589 C  
ENDROOT
BRANCH   2   3
HETATM    3  C   UNL     1     -10.537  18.096  67.357  1.00  0.00    -0.406 C  
BRANCH   3   4
HETATM    4  C   UNL     1      -9.245  17.602  66.726  1.00  0.00    -0.271 C  
BRANCH   4   5
HETATM    5  O   UNL     1      -9.483  16.597  65.738  1.00  0.00    -0.495 OA 
BRANCH   5   6
HETATM    6  C   UNL     1      -9.198  15.336  66.142  1.00  0.00    -0.310 C  
HETATM    7  O   UNL     1      -8.266  15.003  66.859  1.00  0.00    -0.215 OA 
BRANCH   6   8
HETATM    8  C   UNL     1     -10.313  14.433  65.742  1.00  0.00    -0.340 A  
HETATM    9  C   UNL     1     -11.347  14.963  64.959  1.00  0.00    -0.398 A  
HETATM   10  C   UNL     1     -12.342  14.124  64.450  1.00  0.00    -0.410 A  
HETATM   11  C   UNL     1     -12.300  12.761  64.730  1.00  0.00    -0.478 A  
HETATM   12  C   UNL     1     -11.283  12.223  65.510  1.00  0.00    -0.376 A  
HETATM   13  O   UNL     1     -13.243  11.905  64.247  1.00  0.00    -0.618 OA 
HETATM   14  C   UNL     1     -10.289  13.058  66.023  1.00  0.00    -0.293 A  
HETATM   15  H   UNL     1     -13.213  10.974  64.438  1.00  0.00     0.000 HD 
ENDBRANCH   6   8
ENDBRANCH   5   6
ENDBRANCH   4   5
ENDBRANCH   3   4
ENDBRANCH   2   3
TORSDOF 5
ENDMDL
MODEL       44
REMARK 921   NORMALIZED FREE ENERGY PREDICTED BY IDOCK:   -4.43 KCAL/MOL
REMARK 922        TOTAL FREE ENERGY PREDICTED BY IDOCK:   -6.03 KCAL/MOL
REMARK 923 INTER-LIGAND FREE ENERGY PREDICTED BY IDOCK:   -5.80 KCAL/MOL
REMARK 924 INTRA-LIGAND FREE ENERGY PREDICTED BY IDOCK:   -0.23 KCAL/MOL
REMARK 927      BINDING AFFINITY PREDICTED BY RF-SCORE:    0.00 PKD
ROOT
HETATM    1  C   UNL     1     -10.090   9.059  71.141  1.00  0.00    -0.365 C  
HETATM    2  C   UNL     1     -11.464   9.395  71.684  1.00  0.00    -0.463 C  
ENDROOT
BRANCH   2   3
HETATM    3  C   UNL     1     -12.384   9.996  70.623  1.00  0.00    -0.342 C  
BRANCH   3   4
HETATM    4  C   UNL     1     -11.619  11.047  69.833  1.00  0.00    -0.337 C  
BRANCH   4   5
HETATM    5  O   UNL     1     -12.235  11.322  68.573  1.00  0.00    -0.588 OA 
BRANCH   5   6
HETATM    6  C   UNL     1     -11.649  12.320  67.870  1.00  0.00    -0.354 C  
HETATM    7  O   UNL     1     -11.281  13.396  68.318  1.00  0.00    -0.251 OA 
BRANCH   6   8
HETATM    8  C   UNL     1     -11.336  11.832  66.499  1.00  0.00    -0.370 A  
HETATM    9  C   UNL     1     -11.959  12.459  65.413  1.00  0.00    -0.457 A  
HETATM   10  C   UNL     1     -11.597  12.123  64.106  1.00  0.00    -0.467 A  
HETATM   11  C   UNL     1     -10.615  11.160  63.892  1.00  0.00    -0.364 A  
HETATM   12  C   UNL     1      -9.992  10.526  64.960  1.00  0.00    -0.388 A  
HETATM   13  O   UNL     1     -10.223  10.809  62.635  1.00  0.00    -0.743 OA 
HETATM   14  C   UNL     1     -10.354  10.855  66.267  1.00  0.00    -0.306 A  
HETATM   15  H   UNL     1      -9.552  10.151  62.490  1.00  0.00     0.000 HD 
ENDBRANCH   6   8
ENDBRANCH   5   6
ENDBRANCH   4   5
ENDBRANCH   3   4
ENDBRANCH   2   3
TORSDOF 5
ENDMDL
MODEL       45
REMARK 921   NORMALIZED FREE ENERGY PREDICTED BY IDOCK:   -4.37 KCAL/MOL
REMARK 922        TOTAL FREE ENERGY PREDICTED BY IDOCK:   -5.95 KCAL/MOL
REMARK 923 INTER-LIGAND FREE ENERGY PREDICTED BY IDOCK:   -5.63 KCAL/MOL
REMARK 924 INTRA-LIGAND FREE ENERGY PREDICTED BY IDOCK:   -0.32 KCAL/MOL
REMARK 927      BINDING AFFINITY PREDICTED BY RF-SCORE:    0.00 PKD
ROOT
HETATM    1  C   UNL     1     -10.756   5.806  69.108  1.00  0.00    -0.370 C  
HETATM    2  C   UNL     1     -10.579   7.244  68.661  1.00  0.00    -0.194 C  
ENDROOT
BRANCH   2   3
HETATM    3  C   UNL     1     -10.615   7.393  67.141  1.00  0.00    -0.413 C  
BRANCH   3   4
HETATM    4  C   UNL     1      -9.419   8.216  66.690  1.00  0.00    -0.213 C  
BRANCH   4   5
HETATM    5  O   UNL     1      -9.809   9.327  65.879  1.00  0.00    -0.281 OA 
BRANCH   5   6
HETATM    6  C   UNL     1     -10.119  10.446  66.576  1.00  0.00    -0.228 C  
HETATM    7  O   UNL     1      -9.745  10.717  67.707  1.00  0.00    -0.158 OA 
BRANCH   6   8
HETATM    8  C   UNL     1     -10.829  11.398  65.677  1.00  0.00    -0.280 A  
HETATM    9  C   UNL     1     -11.661  12.363  66.258  1.00  0.00    -0.457 A  
HETATM   10  C   UNL     1     -12.242  13.358  65.467  1.00  0.00    -0.499 A  
HETATM   11  C   UNL     1     -11.989  13.380  64.098  1.00  0.00    -0.450 A  
HETATM   12  C   UNL     1     -11.169  12.426  63.507  1.00  0.00    -0.540 A  
HETATM   13  O   UNL     1     -12.524  14.337  63.289  1.00  0.00    -1.133 OA 
HETATM   14  C   UNL     1     -10.591  11.428  64.294  1.00  0.00    -0.416 A  
HETATM   15  H   UNL     1     -12.351  14.352  62.356  1.00  0.00     0.000 HD 
ENDBRANCH   6   8
ENDBRANCH   5   6
ENDBRANCH   4   5
ENDBRANCH   3   4
ENDBRANCH   2   3
TORSDOF 5
ENDMDL
MODEL       46
REMARK 921   NORMALIZED FREE ENERGY PREDICTED BY IDOCK:   -4.37 KCAL/MOL
REMARK 922        TOTAL FREE ENERGY PREDICTED BY IDOCK:   -5.94 KCAL/MOL
REMARK 923 INTER-LIGAND FREE ENERGY PREDICTED BY IDOCK:   -5.73 KCAL/MOL
REMARK 924 INTRA-LIGAND FREE ENERGY PREDICTED BY IDOCK:   -0.22 KCAL/MOL
REMARK 927      BINDING AFFINITY PREDICTED BY RF-SCORE:    0.00 PKD
ROOT
HETATM    1  C   UNL     1     -11.239   5.656  72.741  1.00  0.00    -0.347 C  
HETATM    2  C   UNL     1     -10.191   6.626  72.230  1.00  0.00    -0.206 C  
ENDROOT
BRANCH   2   3
HETATM    3  C   UNL     1     -10.564   8.084  72.495  1.00  0.00    -0.397 C  
BRANCH   3   4
HETATM    4  C   UNL     1     -11.357   8.621  71.314  1.00  0.00    -0.281 C  
BRANCH   4   5
HETATM    5  O   UNL     1     -11.504  10.042  71.370  1.00  0.00    -0.360 OA 
BRANCH   5   6
HETATM    6  C   UNL     1     -12.765  10.464  71.626  1.00  0.00    -0.455 C  
HETATM    7  O   UNL     1     -13.656   9.802  72.138  1.00  0.00    -0.419 OA 
BRANCH   6   8
HETATM    8  C   UNL     1     -12.850  11.927  71.369  1.00  0.00    -0.411 A  
HETATM    9  C   UNL     1     -13.576  12.718  72.269  1.00  0.00    -0.563 A  
HETATM   10  C   UNL     1     -13.574  14.110  72.142  1.00  0.00    -0.568 A  
HETATM   11  C   UNL     1     -12.847  14.703  71.113  1.00  0.00    -0.343 A  
HETATM   12  C   UNL     1     -12.126  13.931  70.210  1.00  0.00    -0.423 A  
HETATM   13  O   UNL     1     -12.806  16.056  70.957  1.00  0.00    -0.574 OA 
HETATM   14  C   UNL     1     -12.130  12.540  70.331  1.00  0.00    -0.380 A  
HETATM   15  H   UNL     1     -12.310  16.460  70.256  1.00  0.00     0.000 HD 
ENDBRANCH   6   8
ENDBRANCH   5   6
ENDBRANCH   4   5
ENDBRANCH   3   4
ENDBRANCH   2   3
TORSDOF 5
ENDMDL
MODEL       47
REMARK 921   NORMALIZED FREE ENERGY PREDICTED BY IDOCK:   -4.37 KCAL/MOL
REMARK 922        TOTAL FREE ENERGY PREDICTED BY IDOCK:   -5.94 KCAL/MOL
REMARK 923 INTER-LIGAND FREE ENERGY PREDICTED BY IDOCK:   -5.66 KCAL/MOL
REMARK 924 INTRA-LIGAND FREE ENERGY PREDICTED BY IDOCK:   -0.28 KCAL/MOL
REMARK 927      BINDING AFFINITY PREDICTED BY RF-SCORE:    0.00 PKD
ROOT
HETATM    1  C   UNL     1     -10.512  17.115  68.443  1.00  0.00    -0.376 C  
HETATM    2  C   UNL     1      -9.750  17.576  67.216  1.00  0.00    -0.276 C  
ENDROOT
BRANCH   2   3
HETATM    3  C   UNL     1     -10.513  17.313  65.919  1.00  0.00    -0.267 C  
BRANCH   3   4
HETATM    4  C   UNL     1     -10.300  15.868  65.496  1.00  0.00    -0.400 C  
BRANCH   4   5
HETATM    5  O   UNL     1     -11.427  15.047  65.811  1.00  0.00    -0.327 OA 
BRANCH   5   6
HETATM    6  C   UNL     1     -11.930  14.360  64.758  1.00  0.00    -0.447 C  
HETATM    7  O   UNL     1     -12.585  14.828  63.839  1.00  0.00    -0.834 OA 
BRANCH   6   8
HETATM    8  C   UNL     1     -11.397  12.970  64.785  1.00  0.00    -0.348 A  
HETATM    9  C   UNL     1     -11.025  12.379  63.571  1.00  0.00    -0.506 A  
HETATM   10  C   UNL     1     -10.398  11.130  63.560  1.00  0.00    -0.446 A  
HETATM   11  C   UNL     1     -10.149  10.478  64.765  1.00  0.00    -0.336 A  
HETATM   12  C   UNL     1     -10.517  11.050  65.977  1.00  0.00    -0.304 A  
HETATM   13  O   UNL     1      -9.531   9.264  64.804  1.00  0.00    -0.447 OA 
HETATM   14  C   UNL     1     -11.148  12.295  65.990  1.00  0.00    -0.347 A  
HETATM   15  H   UNL     1      -9.361   8.820  65.626  1.00  0.00     0.000 HD 
ENDBRANCH   6   8
ENDBRANCH   5   6
ENDBRANCH   4   5
ENDBRANCH   3   4
ENDBRANCH   2   3
TORSDOF 5
ENDMDL
MODEL       48
REMARK 921   NORMALIZED FREE ENERGY PREDICTED BY IDOCK:   -4.35 KCAL/MOL
REMARK 922        TOTAL FREE ENERGY PREDICTED BY IDOCK:   -5.92 KCAL/MOL
REMARK 923 INTER-LIGAND FREE ENERGY PREDICTED BY IDOCK:   -5.43 KCAL/MOL
REMARK 924 INTRA-LIGAND FREE ENERGY PREDICTED BY IDOCK:   -0.49 KCAL/MOL
REMARK 927      BINDING AFFINITY PREDICTED BY RF-SCORE:    0.00 PKD
ROOT
HETATM    1  C   UNL     1     -10.699   6.796  67.595  1.00  0.00    -0.357 C  
HETATM    2  C   UNL     1     -10.654   8.284  67.303  1.00  0.00    -0.335 C  
ENDROOT
BRANCH   2   3
HETATM    3  C   UNL     1      -9.899   9.069  68.374  1.00  0.00    -0.183 C  
BRANCH   3   4
HETATM    4  C   UNL     1     -10.851  10.044  69.047  1.00  0.00    -0.222 C  
BRANCH   4   5
HETATM    5  O   UNL     1     -11.763  10.631  68.115  1.00  0.00    -0.474 OA 
BRANCH   5   6
HETATM    6  C   UNL     1     -11.785  11.985  68.131  1.00  0.00    -0.333 C  
HETATM    7  O   UNL     1     -11.653  12.695  69.116  1.00  0.00    -0.282 OA 
BRANCH   6   8
HETATM    8  C   UNL     1     -11.797  12.488  66.730  1.00  0.00    -0.416 A  
HETATM    9  C   UNL     1     -11.347  11.634  65.714  1.00  0.00    -0.244 A  
HETATM   10  C   UNL     1     -11.463  12.014  64.375  1.00  0.00    -0.413 A  
HETATM   11  C   UNL     1     -12.027  13.247  64.058  1.00  0.00    -0.465 A  
HETATM   12  C   UNL     1     -12.472  14.106  65.055  1.00  0.00    -0.434 A  
HETATM   13  O   UNL     1     -12.170  13.654  62.766  1.00  0.00    -0.814 OA 
HETATM   14  C   UNL     1     -12.354  13.732  66.395  1.00  0.00    -0.460 A  
HETATM   15  H   UNL     1     -12.555  14.496  62.550  1.00  0.00     0.000 HD 
ENDBRANCH   6   8
ENDBRANCH   5   6
ENDBRANCH   4   5
ENDBRANCH   3   4
ENDBRANCH   2   3
TORSDOF 5
ENDMDL
MODEL       49
REMARK 921   NORMALIZED FREE ENERGY PREDICTED BY IDOCK:   -4.34 KCAL/MOL
REMARK 922        TOTAL FREE ENERGY PREDICTED BY IDOCK:   -5.90 KCAL/MOL
REMARK 923 INTER-LIGAND FREE ENERGY PREDICTED BY IDOCK:   -5.38 KCAL/MOL
REMARK 924 INTRA-LIGAND FREE ENERGY PREDICTED BY IDOCK:   -0.52 KCAL/MOL
REMARK 927      BINDING AFFINITY PREDICTED BY RF-SCORE:    0.00 PKD
ROOT
HETATM    1  C   UNL     1     -13.109  10.622  72.080  1.00  0.00    -0.501 C  
HETATM    2  C   UNL     1     -12.791  10.108  70.689  1.00  0.00    -0.314 C  
ENDROOT
BRANCH   2   3
HETATM    3  C   UNL     1     -11.291  10.098  70.397  1.00  0.00    -0.401 C  
BRANCH   3   4
HETATM    4  C   UNL     1     -11.041  10.719  69.032  1.00  0.00    -0.253 C  
BRANCH   4   5
HETATM    5  O   UNL     1     -12.132  11.539  68.610  1.00  0.00    -0.483 OA 
BRANCH   5   6
HETATM    6  C   UNL     1     -11.765  12.732  68.084  1.00  0.00    -0.345 C  
HETATM    7  O   UNL     1     -11.678  12.998  66.894  1.00  0.00    -0.345 OA 
BRANCH   6   8
HETATM    8  C   UNL     1     -11.671  13.738  69.177  1.00  0.00    -0.379 A  
HETATM    9  C   UNL     1     -10.880  14.875  68.967  1.00  0.00    -0.248 A  
HETATM   10  C   UNL     1     -10.867  15.907  69.909  1.00  0.00    -0.333 A  
HETATM   11  C   UNL     1     -11.646  15.794  71.059  1.00  0.00    -0.411 A  
HETATM   12  C   UNL     1     -12.432  14.671  71.283  1.00  0.00    -0.408 A  
HETATM   13  O   UNL     1     -11.673  16.780  71.999  1.00  0.00    -0.595 OA 
HETATM   14  C   UNL     1     -12.443  13.636  70.346  1.00  0.00    -0.364 A  
HETATM   15  H   UNL     1     -12.204  16.704  72.783  1.00  0.00     0.000 HD 
ENDBRANCH   6   8
ENDBRANCH   5   6
ENDBRANCH   4   5
ENDBRANCH   3   4
ENDBRANCH   2   3
TORSDOF 5
ENDMDL
MODEL       50
REMARK 921   NORMALIZED FREE ENERGY PREDICTED BY IDOCK:   -4.33 KCAL/MOL
REMARK 922        TOTAL FREE ENERGY PREDICTED BY IDOCK:   -5.90 KCAL/MOL
REMARK 923 INTER-LIGAND FREE ENERGY PREDICTED BY IDOCK:   -5.60 KCAL/MOL
REMARK 924 INTRA-LIGAND FREE ENERGY PREDICTED BY IDOCK:   -0.30 KCAL/MOL
REMARK 927      BINDING AFFINITY PREDICTED BY RF-SCORE:    0.00 PKD
ROOT
HETATM    1  C   UNL     1     -10.080   8.944  71.733  1.00  0.00    -0.407 C  
HETATM    2  C   UNL     1     -11.404   9.256  71.065  1.00  0.00    -0.390 C  
ENDROOT
BRANCH   2   3
HETATM    3  C   UNL     1     -12.543   9.421  72.070  1.00  0.00    -0.462 C  
BRANCH   3   4
HETATM    4  C   UNL     1     -13.395  10.616  71.671  1.00  0.00    -0.307 C  
BRANCH   4   5
HETATM    5  O   UNL     1     -12.604  11.783  71.437  1.00  0.00    -0.337 OA 
BRANCH   5   6
HETATM    6  C   UNL     1     -13.214  12.947  71.761  1.00  0.00    -0.384 C  
HETATM    7  O   UNL     1     -14.062  13.099  72.628  1.00  0.00    -0.701 OA 
BRANCH   6   8
HETATM    8  C   UNL     1     -12.552  14.064  71.031  1.00  0.00    -0.437 A  
HETATM    9  C   UNL     1     -12.345  15.270  71.712  1.00  0.00    -0.429 A  
HETATM   10  C   UNL     1     -11.612  16.298  71.113  1.00  0.00    -0.376 A  
HETATM   11  C   UNL     1     -11.092  16.113  69.834  1.00  0.00    -0.357 A  
HETATM   12  C   UNL     1     -11.294  14.924  69.145  1.00  0.00    -0.309 A  
HETATM   13  O   UNL     1     -10.362  17.083  69.215  1.00  0.00    -0.308 OA 
HETATM   14  C   UNL     1     -12.030  13.897  69.739  1.00  0.00    -0.398 A  
HETATM   15  H   UNL     1     -10.006  16.957  68.343  1.00  0.00     0.000 HD 
ENDBRANCH   6   8
ENDBRANCH   5   6
ENDBRANCH   4   5
ENDBRANCH   3   4
ENDBRANCH   2   3
TORSDOF 5
ENDMDL
MODEL       51
REMARK 921   NORMALIZED FREE ENERGY PREDICTED BY IDOCK:   -4.30 KCAL/MOL
REMARK 922        TOTAL FREE ENERGY PREDICTED BY IDOCK:   -5.86 KCAL/MOL
REMARK 923 INTER-LIGAND FREE ENERGY PREDICTED BY IDOCK:   -5.14 KCAL/MOL
REMARK 924 INTRA-LIGAND FREE ENERGY PREDICTED BY IDOCK:   -0.72 KCAL/MOL
REMARK 927      BINDING AFFINITY PREDICTED BY RF-SCORE:    0.00 PKD
ROOT
HETATM    1  C   UNL     1      -8.749  19.209  68.436  1.00  0.00    -0.387 C  
HETATM    2  C   UNL     1     -10.233  19.516  68.490  1.00  0.00    -0.517 C  
ENDROOT
BRANCH   2   3
HETATM    3  C   UNL     1     -10.891  19.467  67.112  1.00  0.00    -0.561 C  
BRANCH   3   4
HETATM    4  C   UNL     1      -9.944  18.800  66.126  1.00  0.00    -0.345 C  
BRANCH   4   5
HETATM    5  O   UNL     1     -10.385  17.490  65.763  1.00  0.00    -0.560 OA 
BRANCH   5   6
HETATM    6  C   UNL     1      -9.616  16.487  66.247  1.00  0.00    -0.306 C  
HETATM    7  O   UNL     1      -8.416  16.347  66.063  1.00  0.00    -0.347 OA 
BRANCH   6   8
HETATM    8  C   UNL     1     -10.416  15.679  67.209  1.00  0.00    -0.292 A  
HETATM    9  C   UNL     1     -11.324  14.745  66.695  1.00  0.00    -0.347 A  
HETATM   10  C   UNL     1     -11.999  13.875  67.556  1.00  0.00    -0.421 A  
HETATM   11  C   UNL     1     -11.763  13.947  68.926  1.00  0.00    -0.337 A  
HETATM   12  C   UNL     1     -10.868  14.872  69.450  1.00  0.00    -0.274 A  
HETATM   13  O   UNL     1     -12.390  13.111  69.802  1.00  0.00    -0.222 OA 
HETATM   14  C   UNL     1     -10.196  15.745  68.594  1.00  0.00    -0.221 A  
HETATM   15  H   UNL     1     -12.228  13.160  70.737  1.00  0.00     0.000 HD 
ENDBRANCH   6   8
ENDBRANCH   5   6
ENDBRANCH   4   5
ENDBRANCH   3   4
ENDBRANCH   2   3
TORSDOF 5
ENDMDL
MODEL       52
REMARK 921   NORMALIZED FREE ENERGY PREDICTED BY IDOCK:   -4.28 KCAL/MOL
REMARK 922        TOTAL FREE ENERGY PREDICTED BY IDOCK:   -5.84 KCAL/MOL
REMARK 923 INTER-LIGAND FREE ENERGY PREDICTED BY IDOCK:   -5.47 KCAL/MOL
REMARK 924 INTRA-LIGAND FREE ENERGY PREDICTED BY IDOCK:   -0.36 KCAL/MOL
REMARK 927      BINDING AFFINITY PREDICTED BY RF-SCORE:    0.00 PKD
ROOT
HETATM    1  C   UNL     1     -10.075   5.048  67.088  1.00  0.00    -0.239 C  
HETATM    2  C   UNL     1     -10.694   6.425  66.940  1.00  0.00    -0.408 C  
ENDROOT
BRANCH   2   3
HETATM    3  C   UNL     1     -10.535   7.276  68.199  1.00  0.00    -0.244 C  
BRANCH   3   4
HETATM    4  C   UNL     1      -9.811   8.566  67.844  1.00  0.00    -0.170 C  
BRANCH   4   5
HETATM    5  O   UNL     1     -10.226   9.656  68.670  1.00  0.00    -0.176 OA 
BRANCH   5   6
HETATM    6  C   UNL     1      -9.744   9.616  69.935  1.00  0.00    -0.231 C  
HETATM    7  O   UNL     1      -8.586   9.815  70.270  1.00  0.00    -0.202 OA 
BRANCH   6   8
HETATM    8  C   UNL     1     -10.882   9.484  70.885  1.00  0.00    -0.407 A  
HETATM    9  C   UNL     1     -11.948  10.386  70.772  1.00  0.00    -0.462 A  
HETATM   10  C   UNL     1     -13.095  10.220  71.554  1.00  0.00    -0.534 A  
HETATM   11  C   UNL     1     -13.167   9.153  72.446  1.00  0.00    -0.444 A  
HETATM   12  C   UNL     1     -12.116   8.254  72.572  1.00  0.00    -0.400 A  
HETATM   13  O   UNL     1     -14.269   8.946  73.220  1.00  0.00    -1.197 OA 
HETATM   14  C   UNL     1     -10.967   8.420  71.796  1.00  0.00    -0.359 A  
HETATM   15  H   UNL     1     -14.319   8.218  73.828  1.00  0.00     0.000 HD 
ENDBRANCH   6   8
ENDBRANCH   5   6
ENDBRANCH   4   5
ENDBRANCH   3   4
ENDBRANCH   2   3
TORSDOF 5
ENDMDL
MODEL       53
REMARK 921   NORMALIZED FREE ENERGY PREDICTED BY IDOCK:   -4.28 KCAL/MOL
REMARK 922        TOTAL FREE ENERGY PREDICTED BY IDOCK:   -5.83 KCAL/MOL
REMARK 923 INTER-LIGAND FREE ENERGY PREDICTED BY IDOCK:   -5.63 KCAL/MOL
REMARK 924 INTRA-LIGAND FREE ENERGY PREDICTED BY IDOCK:   -0.20 KCAL/MOL
REMARK 927      BINDING AFFINITY PREDICTED BY RF-SCORE:    0.00 PKD
ROOT
HETATM    1  C   UNL     1     -10.808  16.593  68.469  1.00  0.00    -0.356 C  
HETATM    2  C   UNL     1      -9.788  16.991  67.421  1.00  0.00    -0.262 C  
ENDROOT
BRANCH   2   3
HETATM    3  C   UNL     1     -10.373  17.002  66.009  1.00  0.00    -0.324 C  
BRANCH   3   4
HETATM    4  C   UNL     1     -10.330  15.593  65.437  1.00  0.00    -0.393 C  
BRANCH   4   5
HETATM    5  O   UNL     1     -11.575  14.911  65.603  1.00  0.00    -0.329 OA 
BRANCH   5   6
HETATM    6  C   UNL     1     -11.925  14.124  64.558  1.00  0.00    -0.458 C  
HETATM    7  O   UNL     1     -12.635  14.449  63.618  1.00  0.00    -0.817 OA 
BRANCH   6   8
HETATM    8  C   UNL     1     -11.150  12.855  64.622  1.00  0.00    -0.352 A  
HETATM    9  C   UNL     1     -11.043  12.205  65.859  1.00  0.00    -0.360 A  
HETATM   10  C   UNL     1     -10.439  10.947  65.942  1.00  0.00    -0.285 A  
HETATM   11  C   UNL     1      -9.943  10.348  64.787  1.00  0.00    -0.339 A  
HETATM   12  C   UNL     1     -10.038  10.983  63.555  1.00  0.00    -0.428 A  
HETATM   13  O   UNL     1      -9.357   9.118  64.818  1.00  0.00    -0.441 OA 
HETATM   14  C   UNL     1     -10.636  12.241  63.469  1.00  0.00    -0.488 A  
HETATM   15  H   UNL     1      -9.019   8.709  64.030  1.00  0.00     0.000 HD 
ENDBRANCH   6   8
ENDBRANCH   5   6
ENDBRANCH   4   5
ENDBRANCH   3   4
ENDBRANCH   2   3
TORSDOF 5
ENDMDL
MODEL       54
REMARK 921   NORMALIZED FREE ENERGY PREDICTED BY IDOCK:   -4.27 KCAL/MOL
REMARK 922        TOTAL FREE ENERGY PREDICTED BY IDOCK:   -5.82 KCAL/MOL
REMARK 923 INTER-LIGAND FREE ENERGY PREDICTED BY IDOCK:   -5.30 KCAL/MOL
REMARK 924 INTRA-LIGAND FREE ENERGY PREDICTED BY IDOCK:   -0.52 KCAL/MOL
REMARK 927      BINDING AFFINITY PREDICTED BY RF-SCORE:    0.00 PKD
ROOT
HETATM    1  C   UNL     1     -10.232  10.483  65.847  1.00  0.00    -0.311 C  
HETATM    2  C   UNL     1      -9.459  10.658  67.139  1.00  0.00    -0.177 C  
ENDROOT
BRANCH   2   3
HETATM    3  C   UNL     1      -9.925  11.871  67.942  1.00  0.00    -0.195 C  
BRANCH   3   4
HETATM    4  C   UNL     1     -11.426  12.041  67.769  1.00  0.00    -0.325 C  
BRANCH   4   5
HETATM    5  O   UNL     1     -12.165  11.243  68.696  1.00  0.00    -0.562 OA 
BRANCH   5   6
HETATM    6  C   UNL     1     -12.118  11.684  69.975  1.00  0.00    -0.319 C  
HETATM    7  O   UNL     1     -12.377  12.815  70.357  1.00  0.00    -0.318 OA 
BRANCH   6   8
HETATM    8  C   UNL     1     -11.892  10.525  70.882  1.00  0.00    -0.455 A  
HETATM    9  C   UNL     1     -12.912  10.172  71.774  1.00  0.00    -0.567 A  
HETATM   10  C   UNL     1     -12.798   9.014  72.549  1.00  0.00    -0.408 A  
HETATM   11  C   UNL     1     -11.662   8.218  72.428  1.00  0.00    -0.397 A  
HETATM   12  C   UNL     1     -10.641   8.558  71.551  1.00  0.00    -0.333 A  
HETATM   13  O   UNL     1     -11.513   7.075  73.155  1.00  0.00    -0.534 OA 
HETATM   14  C   UNL     1     -10.749   9.716  70.778  1.00  0.00    -0.401 A  
HETATM   15  H   UNL     1     -10.739   6.531  73.072  1.00  0.00     0.000 HD 
ENDBRANCH   6   8
ENDBRANCH   5   6
ENDBRANCH   4   5
ENDBRANCH   3   4
ENDBRANCH   2   3
TORSDOF 5
ENDMDL
MODEL       55
REMARK 921   NORMALIZED FREE ENERGY PREDICTED BY IDOCK:   -4.27 KCAL/MOL
REMARK 922        TOTAL FREE ENERGY PREDICTED BY IDOCK:   -5.82 KCAL/MOL
REMARK 923 INTER-LIGAND FREE ENERGY PREDICTED BY IDOCK:   -5.36 KCAL/MOL
REMARK 924 INTRA-LIGAND FREE ENERGY PREDICTED BY IDOCK:   -0.46 KCAL/MOL
REMARK 927      BINDING AFFINITY PREDICTED BY RF-SCORE:    0.00 PKD
ROOT
HETATM    1  C   UNL     1      -8.144   9.351  64.880  1.00  0.00    -0.128 C  
HETATM    2  C   UNL     1      -9.470  10.024  64.584  1.00  0.00    -0.367 C  
ENDROOT
BRANCH   2   3
HETATM    3  C   UNL     1      -9.453  10.798  63.267  1.00  0.00    -0.353 C  
BRANCH   3   4
HETATM    4  C   UNL     1     -10.562  11.838  63.282  1.00  0.00    -0.368 C  
BRANCH   4   5
HETATM    5  O   UNL     1     -11.354  11.759  64.470  1.00  0.00    -0.322 OA 
BRANCH   5   6
HETATM    6  C   UNL     1     -11.965  12.917  64.813  1.00  0.00    -0.396 C  
HETATM    7  O   UNL     1     -12.608  13.640  64.067  1.00  0.00    -0.672 OA 
BRANCH   6   8
HETATM    8  C   UNL     1     -11.903  13.081  66.292  1.00  0.00    -0.466 A  
HETATM    9  C   UNL     1     -11.626  11.953  67.073  1.00  0.00    -0.365 A  
HETATM   10  C   UNL     1     -11.427  12.083  68.450  1.00  0.00    -0.356 A  
HETATM   11  C   UNL     1     -11.510  13.343  69.038  1.00  0.00    -0.301 A  
HETATM   12  C   UNL     1     -11.788  14.470  68.276  1.00  0.00    -0.347 A  
HETATM   13  O   UNL     1     -11.313  13.519  70.375  1.00  0.00    -0.492 OA 
HETATM   14  C   UNL     1     -11.991  14.343  66.901  1.00  0.00    -0.425 A  
HETATM   15  H   UNL     1     -11.368  14.378  70.776  1.00  0.00     0.000 HD 
ENDBRANCH   6   8
ENDBRANCH   5   6
ENDBRANCH   4   5
ENDBRANCH   3   4
ENDBRANCH   2   3
TORSDOF 5
ENDMDL
MODEL       56
REMARK 921   NORMALIZED FREE ENERGY PREDICTED BY IDOCK:   -4.27 KCAL/MOL
REMARK 922        TOTAL FREE ENERGY PREDICTED BY IDOCK:   -5.81 KCAL/MOL
REMARK 923 INTER-LIGAND FREE ENERGY PREDICTED BY IDOCK:   -5.05 KCAL/MOL
REMARK 924 INTRA-LIGAND FREE ENERGY PREDICTED BY IDOCK:   -0.76 KCAL/MOL
REMARK 927      BINDING AFFINITY PREDICTED BY RF-SCORE:    0.00 PKD
ROOT
HETATM    1  C   UNL     1      -9.343  11.200  66.904  1.00  0.00    -0.189 C  
HETATM    2  C   UNL     1      -8.566  10.455  65.835  1.00  0.00    -0.165 C  
ENDROOT
BRANCH   2   3
HETATM    3  C   UNL     1      -8.928  10.912  64.423  1.00  0.00    -0.121 C  
BRANCH   3   4
HETATM    4  C   UNL     1     -10.437  10.858  64.249  1.00  0.00    -0.335 C  
BRANCH   4   5
HETATM    5  O   UNL     1     -10.919  11.919  63.421  1.00  0.00    -0.403 OA 
BRANCH   5   6
HETATM    6  C   UNL     1     -12.021  12.545  63.898  1.00  0.00    -0.480 C  
HETATM    7  O   UNL     1     -13.180  12.230  63.675  1.00  0.00    -0.758 OA 
BRANCH   6   8
HETATM    8  C   UNL     1     -11.607  13.563  64.902  1.00  0.00    -0.355 A  
HETATM    9  C   UNL     1     -12.336  13.653  66.095  1.00  0.00    -0.476 A  
HETATM   10  C   UNL     1     -11.906  14.500  67.119  1.00  0.00    -0.412 A  
HETATM   11  C   UNL     1     -10.748  15.255  66.944  1.00  0.00    -0.313 A  
HETATM   12  C   UNL     1     -10.018  15.179  65.765  1.00  0.00    -0.375 A  
HETATM   13  O   UNL     1     -10.285  16.085  67.920  1.00  0.00    -0.247 OA 
HETATM   14  C   UNL     1     -10.448  14.337  64.737  1.00  0.00    -0.421 A  
HETATM   15  H   UNL     1      -9.495  16.600  67.800  1.00  0.00     0.000 HD 
ENDBRANCH   6   8
ENDBRANCH   5   6
ENDBRANCH   4   5
ENDBRANCH   3   4
ENDBRANCH   2   3
TORSDOF 5
ENDMDL
MODEL       57
REMARK 921   NORMALIZED FREE ENERGY PREDICTED BY IDOCK:   -4.25 KCAL/MOL
REMARK 922        TOTAL FREE ENERGY PREDICTED BY IDOCK:   -5.80 KCAL/MOL
REMARK 923 INTER-LIGAND FREE ENERGY PREDICTED BY IDOCK:   -5.33 KCAL/MOL
REMARK 924 INTRA-LIGAND FREE ENERGY PREDICTED BY IDOCK:   -0.47 KCAL/MOL
REMARK 927      BINDING AFFINITY PREDICTED BY RF-SCORE:    0.00 PKD
ROOT
HETATM    1  C   UNL     1     -10.122   7.902  66.750  1.00  0.00    -0.352 C  
HETATM    2  C   UNL     1     -10.989   6.707  67.093  1.00  0.00    -0.478 C  
ENDROOT
BRANCH   2   3
HETATM    3  C   UNL     1     -10.175   5.520  67.606  1.00  0.00    -0.241 C  
BRANCH   3   4
HETATM    4  C   UNL     1     -10.332   5.418  69.114  1.00  0.00    -0.230 C  
BRANCH   4   5
HETATM    5  O   UNL     1     -11.484   6.125  69.581  1.00  0.00    -0.429 OA 
BRANCH   5   6
HETATM    6  C   UNL     1     -11.477   6.391  70.909  1.00  0.00    -0.344 C  
HETATM    7  O   UNL     1     -10.983   5.691  71.781  1.00  0.00    -0.256 OA 
BRANCH   6   8
HETATM    8  C   UNL     1     -11.991   7.770  71.132  1.00  0.00    -0.312 A  
HETATM    9  C   UNL     1     -13.162   7.928  71.883  1.00  0.00    -0.314 A  
HETATM   10  C   UNL     1     -13.608   9.207  72.229  1.00  0.00    -0.548 A  
HETATM   11  C   UNL     1     -12.879  10.321  71.820  1.00  0.00    -0.460 A  
HETATM   12  C   UNL     1     -11.718  10.179  71.070  1.00  0.00    -0.470 A  
HETATM   13  O   UNL     1     -13.270  11.585  72.143  1.00  0.00    -0.576 OA 
HETATM   14  C   UNL     1     -11.272   8.903  70.719  1.00  0.00    -0.321 A  
HETATM   15  H   UNL     1     -12.772  12.345  71.864  1.00  0.00     0.000 HD 
ENDBRANCH   6   8
ENDBRANCH   5   6
ENDBRANCH   4   5
ENDBRANCH   3   4
ENDBRANCH   2   3
TORSDOF 5
ENDMDL
MODEL       58
REMARK 921   NORMALIZED FREE ENERGY PREDICTED BY IDOCK:   -4.25 KCAL/MOL
REMARK 922        TOTAL FREE ENERGY PREDICTED BY IDOCK:   -5.79 KCAL/MOL
REMARK 923 INTER-LIGAND FREE ENERGY PREDICTED BY IDOCK:   -5.53 KCAL/MOL
REMARK 924 INTRA-LIGAND FREE ENERGY PREDICTED BY IDOCK:   -0.26 KCAL/MOL
REMARK 927      BINDING AFFINITY PREDICTED BY RF-SCORE:    0.00 PKD
ROOT
HETATM    1  C   UNL     1     -13.530  12.966  72.180  1.00  0.00    -0.619 C  
HETATM    2  C   UNL     1     -12.791  14.007  71.363  1.00  0.00    -0.434 C  
ENDROOT
BRANCH   2   3
HETATM    3  C   UNL     1     -12.096  15.052  72.235  1.00  0.00    -0.446 C  
BRANCH   3   4
HETATM    4  C   UNL     1     -11.607  16.193  71.358  1.00  0.00    -0.431 C  
BRANCH   4   5
HETATM    5  O   UNL     1     -11.415  15.782  70.003  1.00  0.00    -0.302 OA 
BRANCH   5   6
HETATM    6  C   UNL     1     -10.183  16.046  69.507  1.00  0.00    -0.274 C  
HETATM    7  O   UNL     1      -9.165  15.409  69.733  1.00  0.00    -0.247 OA 
BRANCH   6   8
HETATM    8  C   UNL     1     -10.290  17.119  68.481  1.00  0.00    -0.364 A  
HETATM    9  C   UNL     1     -10.140  18.450  68.894  1.00  0.00    -0.352 A  
HETATM   10  C   UNL     1     -10.101  19.478  67.950  1.00  0.00    -0.531 A  
HETATM   11  C   UNL     1     -10.216  19.171  66.596  1.00  0.00    -0.411 A  
HETATM   12  C   UNL     1     -10.371  17.857  66.173  1.00  0.00    -0.352 A  
HETATM   13  O   UNL     1     -10.173  20.140  65.640  1.00  0.00    -0.468 OA 
HETATM   14  C   UNL     1     -10.414  16.827  67.114  1.00  0.00    -0.299 A  
HETATM   15  H   UNL     1     -10.250  19.931  64.716  1.00  0.00     0.000 HD 
ENDBRANCH   6   8
ENDBRANCH   5   6
ENDBRANCH   4   5
ENDBRANCH   3   4
ENDBRANCH   2   3
TORSDOF 5
ENDMDL
MODEL       59
REMARK 921   NORMALIZED FREE ENERGY PREDICTED BY IDOCK:   -4.25 KCAL/MOL
REMARK 922        TOTAL FREE ENERGY PREDICTED BY IDOCK:   -5.79 KCAL/MOL
REMARK 923 INTER-LIGAND FREE ENERGY PREDICTED BY IDOCK:   -5.42 KCAL/MOL
REMARK 924 INTRA-LIGAND FREE ENERGY PREDICTED BY IDOCK:   -0.37 KCAL/MOL
REMARK 927      BINDING AFFINITY PREDICTED BY RF-SCORE:    0.00 PKD
ROOT
HETATM    1  C   UNL     1      -6.749  19.479  68.007  1.00  0.00    -0.279 C  
HETATM    2  C   UNL     1      -8.198  19.077  67.815  1.00  0.00    -0.305 C  
ENDROOT
BRANCH   2   3
HETATM    3  C   UNL     1      -8.825  19.719  66.579  1.00  0.00    -0.420 C  
BRANCH   3   4
HETATM    4  C   UNL     1      -9.995  18.868  66.110  1.00  0.00    -0.356 C  
BRANCH   4   5
HETATM    5  O   UNL     1      -9.581  17.554  65.728  1.00  0.00    -0.523 OA 
BRANCH   5   6
HETATM    6  C   UNL     1     -10.599  16.710  65.437  1.00  0.00    -0.237 C  
HETATM    7  O   UNL     1     -11.312  16.756  64.446  1.00  0.00    -1.089 OA 
BRANCH   6   8
HETATM    8  C   UNL     1     -10.595  15.587  66.416  1.00  0.00    -0.312 A  
HETATM    9  C   UNL     1      -9.719  15.661  67.506  1.00  0.00    -0.222 A  
HETATM   10  C   UNL     1      -9.773  14.699  68.517  1.00  0.00    -0.225 A  
HETATM   11  C   UNL     1     -10.702  13.665  68.431  1.00  0.00    -0.258 A  
HETATM   12  C   UNL     1     -11.574  13.577  67.353  1.00  0.00    -0.392 A  
HETATM   13  O   UNL     1     -10.798  12.711  69.399  1.00  0.00    -0.440 OA 
HETATM   14  C   UNL     1     -11.520  14.534  66.339  1.00  0.00    -0.362 A  
HETATM   15  H   UNL     1     -11.433  12.006  69.340  1.00  0.00     0.000 HD 
ENDBRANCH   6   8
ENDBRANCH   5   6
ENDBRANCH   4   5
ENDBRANCH   3   4
ENDBRANCH   2   3
TORSDOF 5
ENDMDL
MODEL       60
REMARK 921   NORMALIZED FREE ENERGY PREDICTED BY IDOCK:   -4.24 KCAL/MOL
REMARK 922        TOTAL FREE ENERGY PREDICTED BY IDOCK:   -5.78 KCAL/MOL
REMARK 923 INTER-LIGAND FREE ENERGY PREDICTED BY IDOCK:   -5.52 KCAL/MOL
REMARK 924 INTRA-LIGAND FREE ENERGY PREDICTED BY IDOCK:   -0.26 KCAL/MOL
REMARK 927      BINDING AFFINITY PREDICTED BY RF-SCORE:    0.00 PKD
ROOT
HETATM    1  C   UNL     1      -9.357  15.413  66.244  1.00  0.00    -0.351 C  
HETATM    2  C   UNL     1     -10.605  14.871  66.912  1.00  0.00    -0.300 C  
ENDROOT
BRANCH   2   3
HETATM    3  C   UNL     1     -10.287  13.979  68.112  1.00  0.00    -0.241 C  
BRANCH   3   4
HETATM    4  C   UNL     1     -10.424  12.521  67.704  1.00  0.00    -0.217 C  
BRANCH   4   5
HETATM    5  O   UNL     1     -11.241  11.785  68.616  1.00  0.00    -0.215 OA 
BRANCH   5   6
HETATM    6  C   UNL     1     -10.629  10.716  69.180  1.00  0.00    -0.226 C  
HETATM    7  O   UNL     1      -9.524  10.283  68.886  1.00  0.00    -0.168 OA 
BRANCH   6   8
HETATM    8  C   UNL     1     -11.422  10.264  70.356  1.00  0.00    -0.415 A  
HETATM    9  C   UNL     1     -12.369  11.144  70.895  1.00  0.00    -0.500 A  
HETATM   10  C   UNL     1     -13.226  10.716  71.912  1.00  0.00    -0.528 A  
HETATM   11  C   UNL     1     -13.129   9.410  72.386  1.00  0.00    -0.379 A  
HETATM   12  C   UNL     1     -12.191   8.528  71.863  1.00  0.00    -0.411 A  
HETATM   13  O   UNL     1     -13.951   8.945  73.368  1.00  0.00    -1.236 OA 
HETATM   14  C   UNL     1     -11.330   8.953  70.850  1.00  0.00    -0.336 A  
HETATM   15  H   UNL     1     -13.886   8.054  73.691  1.00  0.00     0.000 HD 
ENDBRANCH   6   8
ENDBRANCH   5   6
ENDBRANCH   4   5
ENDBRANCH   3   4
ENDBRANCH   2   3
TORSDOF 5
ENDMDL
MODEL       61
REMARK 921   NORMALIZED FREE ENERGY PREDICTED BY IDOCK:   -4.24 KCAL/MOL
REMARK 922        TOTAL FREE ENERGY PREDICTED BY IDOCK:   -5.78 KCAL/MOL
REMARK 923 INTER-LIGAND FREE ENERGY PREDICTED BY IDOCK:   -5.29 KCAL/MOL
REMARK 924 INTRA-LIGAND FREE ENERGY PREDICTED BY IDOCK:   -0.49 KCAL/MOL
REMARK 927      BINDING AFFINITY PREDICTED BY RF-SCORE:    0.00 PKD
ROOT
HETATM    1  C   UNL     1     -11.261   6.407  69.439  1.00  0.00    -0.459 C  
HETATM    2  C   UNL     1     -11.238   7.317  70.651  1.00  0.00    -0.300 C  
ENDROOT
BRANCH   2   3
HETATM    3  C   UNL     1     -12.552   7.286  71.431  1.00  0.00    -0.423 C  
BRANCH   3   4
HETATM    4  C   UNL     1     -12.799   8.652  72.051  1.00  0.00    -0.379 C  
BRANCH   4   5
HETATM    5  O   UNL     1     -12.005   9.670  71.438  1.00  0.00    -0.343 OA 
BRANCH   5   6
HETATM    6  C   UNL     1     -12.624  10.869  71.323  1.00  0.00    -0.421 C  
HETATM    7  O   UNL     1     -13.351  11.387  72.158  1.00  0.00    -0.469 OA 
BRANCH   6   8
HETATM    8  C   UNL     1     -12.128  11.558  70.100  1.00  0.00    -0.432 A  
HETATM    9  C   UNL     1     -11.785  10.776  68.990  1.00  0.00    -0.357 A  
HETATM   10  C   UNL     1     -11.441  11.385  67.781  1.00  0.00    -0.353 A  
HETATM   11  C   UNL     1     -11.439  12.774  67.689  1.00  0.00    -0.334 A  
HETATM   12  C   UNL     1     -11.772  13.563  68.783  1.00  0.00    -0.373 A  
HETATM   13  O   UNL     1     -11.121  13.411  66.527  1.00  0.00    -0.291 OA 
HETATM   14  C   UNL     1     -12.112  12.958  69.994  1.00  0.00    -0.357 A  
HETATM   15  H   UNL     1     -11.121  14.359  66.464  1.00  0.00     0.000 HD 
ENDBRANCH   6   8
ENDBRANCH   5   6
ENDBRANCH   4   5
ENDBRANCH   3   4
ENDBRANCH   2   3
TORSDOF 5
ENDMDL
MODEL       62
REMARK 921   NORMALIZED FREE ENERGY PREDICTED BY IDOCK:   -4.20 KCAL/MOL
REMARK 922        TOTAL FREE ENERGY PREDICTED BY IDOCK:   -5.72 KCAL/MOL
REMARK 923 INTER-LIGAND FREE ENERGY PREDICTED BY IDOCK:   -5.35 KCAL/MOL
REMARK 924 INTRA-LIGAND FREE ENERGY PREDICTED BY IDOCK:   -0.37 KCAL/MOL
REMARK 927      BINDING AFFINITY PREDICTED BY RF-SCORE:    0.00 PKD
ROOT
HETATM    1  C   UNL     1      -9.051   8.799  65.507  1.00  0.00    -0.221 C  
HETATM    2  C   UNL     1      -9.088   9.759  64.334  1.00  0.00    -0.296 C  
ENDROOT
BRANCH   2   3
HETATM    3  C   UNL     1      -9.698  11.111  64.703  1.00  0.00    -0.308 C  
BRANCH   3   4
HETATM    4  C   UNL     1     -10.745  11.489  63.667  1.00  0.00    -0.424 C  
BRANCH   4   5
HETATM    5  O   UNL     1     -11.884  12.115  64.262  1.00  0.00    -0.366 OA 
BRANCH   5   6
HETATM    6  C   UNL     1     -12.006  13.435  63.982  1.00  0.00    -0.464 C  
HETATM    7  O   UNL     1     -12.547  13.914  62.997  1.00  0.00    -0.694 OA 
BRANCH   6   8
HETATM    8  C   UNL     1     -11.555  14.226  65.160  1.00  0.00    -0.355 A  
HETATM    9  C   UNL     1     -10.832  15.404  64.930  1.00  0.00    -0.445 A  
HETATM   10  C   UNL     1     -10.502  16.245  65.995  1.00  0.00    -0.342 A  
HETATM   11  C   UNL     1     -10.897  15.903  67.286  1.00  0.00    -0.279 A  
HETATM   12  C   UNL     1     -11.610  14.736  67.530  1.00  0.00    -0.379 A  
HETATM   13  O   UNL     1     -10.608  16.699  68.354  1.00  0.00    -0.305 OA 
HETATM   14  C   UNL     1     -11.937  13.891  66.468  1.00  0.00    -0.470 A  
HETATM   15  H   UNL     1     -10.877  16.466  69.234  1.00  0.00     0.000 HD 
ENDBRANCH   6   8
ENDBRANCH   5   6
ENDBRANCH   4   5
ENDBRANCH   3   4
ENDBRANCH   2   3
TORSDOF 5
ENDMDL
MODEL       63
REMARK 921   NORMALIZED FREE ENERGY PREDICTED BY IDOCK:   -4.19 KCAL/MOL
REMARK 922        TOTAL FREE ENERGY PREDICTED BY IDOCK:   -5.71 KCAL/MOL
REMARK 923 INTER-LIGAND FREE ENERGY PREDICTED BY IDOCK:   -5.54 KCAL/MOL
REMARK 924 INTRA-LIGAND FREE ENERGY PREDICTED BY IDOCK:   -0.18 KCAL/MOL
REMARK 927      BINDING AFFINITY PREDICTED BY RF-SCORE:    0.00 PKD
ROOT
HETATM    1  C   UNL     1     -11.610  11.680  69.115  1.00  0.00    -0.378 C  
HETATM    2  C   UNL     1     -10.859  12.913  68.651  1.00  0.00    -0.288 C  
ENDROOT
BRANCH   2   3
HETATM    3  C   UNL     1     -11.782  14.108  68.415  1.00  0.00    -0.380 C  
BRANCH   3   4
HETATM    4  C   UNL     1     -11.488  14.708  67.050  1.00  0.00    -0.368 C  
BRANCH   4   5
HETATM    5  O   UNL     1     -10.858  15.987  67.152  1.00  0.00    -0.310 OA 
BRANCH   5   6
HETATM    6  C   UNL     1     -10.499  16.531  65.965  1.00  0.00    -0.310 C  
HETATM    7  O   UNL     1     -10.852  16.144  64.860  1.00  0.00    -0.582 OA 
BRANCH   6   8
HETATM    8  C   UNL     1      -9.763  17.800  66.213  1.00  0.00    -0.277 A  
HETATM    9  C   UNL     1     -10.505  18.979  66.361  1.00  0.00    -0.524 A  
HETATM   10  C   UNL     1      -9.868  20.169  66.726  1.00  0.00    -0.591 A  
HETATM   11  C   UNL     1      -8.492  20.172  66.938  1.00  0.00    -0.314 A  
HETATM   12  C   UNL     1      -7.743  19.012  66.790  1.00  0.00    -0.256 A  
HETATM   13  O   UNL     1      -7.831  21.306  67.305  1.00  0.00    -0.678 OA 
HETATM   14  C   UNL     1      -8.375  17.823  66.421  1.00  0.00    -0.281 A  
HETATM   15  H   UNL     1      -6.892  21.308  67.450  1.00  0.00     0.000 HD 
ENDBRANCH   6   8
ENDBRANCH   5   6
ENDBRANCH   4   5
ENDBRANCH   3   4
ENDBRANCH   2   3
TORSDOF 5
ENDMDL
MODEL       64
REMARK 921   NORMALIZED FREE ENERGY PREDICTED BY IDOCK:   -4.15 KCAL/MOL
REMARK 922        TOTAL FREE ENERGY PREDICTED BY IDOCK:   -5.67 KCAL/MOL
REMARK 923 INTER-LIGAND FREE ENERGY PREDICTED BY IDOCK:   -5.10 KCAL/MOL
REMARK 924 INTRA-LIGAND FREE ENERGY PREDICTED BY IDOCK:   -0.57 KCAL/MOL
REMARK 927      BINDING AFFINITY PREDICTED BY RF-SCORE:    0.00 PKD
ROOT
HETATM    1  C   UNL     1      -8.271   7.816  71.124  1.00  0.00    -0.099 C  
HETATM    2  C   UNL     1      -9.574   8.558  71.346  1.00  0.00    -0.282 C  
ENDROOT
BRANCH   2   3
HETATM    3  C   UNL     1     -10.162   8.307  72.734  1.00  0.00    -0.325 C  
BRANCH   3   4
HETATM    4  C   UNL     1     -11.606   7.851  72.592  1.00  0.00    -0.377 C  
BRANCH   4   5
HETATM    5  O   UNL     1     -12.275   8.519  71.520  1.00  0.00    -0.292 OA 
BRANCH   5   6
HETATM    6  C   UNL     1     -13.230   9.393  71.915  1.00  0.00    -0.429 C  
HETATM    7  O   UNL     1     -14.102   9.181  72.745  1.00  0.00    -0.518 OA 
BRANCH   6   8
HETATM    8  C   UNL     1     -12.940  10.730  71.328  1.00  0.00    -0.502 A  
HETATM    9  C   UNL     1     -13.269  11.869  72.075  1.00  0.00    -0.461 A  
HETATM   10  C   UNL     1     -12.896  13.137  71.624  1.00  0.00    -0.388 A  
HETATM   11  C   UNL     1     -12.197  13.260  70.425  1.00  0.00    -0.332 A  
HETATM   12  C   UNL     1     -11.869  12.140  69.671  1.00  0.00    -0.391 A  
HETATM   13  O   UNL     1     -11.804  14.476  69.952  1.00  0.00    -0.280 OA 
HETATM   14  C   UNL     1     -12.244  10.872  70.117  1.00  0.00    -0.423 A  
HETATM   15  H   UNL     1     -11.327  14.559  69.134  1.00  0.00     0.000 HD 
ENDBRANCH   6   8
ENDBRANCH   5   6
ENDBRANCH   4   5
ENDBRANCH   3   4
ENDBRANCH   2   3
TORSDOF 5
ENDMDL
MODEL       65
REMARK 921   NORMALIZED FREE ENERGY PREDICTED BY IDOCK:   -4.14 KCAL/MOL
REMARK 922        TOTAL FREE ENERGY PREDICTED BY IDOCK:   -5.65 KCAL/MOL
REMARK 923 INTER-LIGAND FREE ENERGY PREDICTED BY IDOCK:   -5.30 KCAL/MOL
REMARK 924 INTRA-LIGAND FREE ENERGY PREDICTED BY IDOCK:   -0.35 KCAL/MOL
REMARK 927      BINDING AFFINITY PREDICTED BY RF-SCORE:    0.00 PKD
ROOT
HETATM    1  C   UNL     1     -12.212  13.770  64.077  1.00  0.00    -0.429 C  
HETATM    2  C   UNL     1     -12.883  13.857  65.434  1.00  0.00    -0.466 C  
ENDROOT
BRANCH   2   3
HETATM    3  C   UNL     1     -11.878  13.872  66.585  1.00  0.00    -0.447 C  
BRANCH   3   4
HETATM    4  C   UNL     1     -10.758  14.847  66.260  1.00  0.00    -0.320 C  
BRANCH   4   5
HETATM    5  O   UNL     1     -11.094  16.188  66.621  1.00  0.00    -0.136 OA 
BRANCH   5   6
HETATM    6  C   UNL     1     -10.649  17.129  65.754  1.00  0.00    -0.195 C  
HETATM    7  O   UNL     1     -11.072  17.325  64.624  1.00  0.00    -1.052 OA 
BRANCH   6   8
HETATM    8  C   UNL     1      -9.692  18.026  66.458  1.00  0.00    -0.338 A  
HETATM    9  C   UNL     1     -10.201  19.154  67.115  1.00  0.00    -0.489 A  
HETATM   10  C   UNL     1      -9.360  19.949  67.897  1.00  0.00    -0.448 A  
HETATM   11  C   UNL     1      -8.014  19.614  68.017  1.00  0.00    -0.304 A  
HETATM   12  C   UNL     1      -7.495  18.500  67.367  1.00  0.00    -0.223 A  
HETATM   13  O   UNL     1      -7.160  20.354  68.778  1.00  0.00    -0.166 OA 
HETATM   14  C   UNL     1      -8.331  17.706  66.581  1.00  0.00    -0.288 A  
HETATM   15  H   UNL     1      -6.241  20.124  68.860  1.00  0.00     0.000 HD 
ENDBRANCH   6   8
ENDBRANCH   5   6
ENDBRANCH   4   5
ENDBRANCH   3   4
ENDBRANCH   2   3
TORSDOF 5
ENDMDL
MODEL       66
REMARK 921   NORMALIZED FREE ENERGY PREDICTED BY IDOCK:   -4.11 KCAL/MOL
REMARK 922        TOTAL FREE ENERGY PREDICTED BY IDOCK:   -5.61 KCAL/MOL
REMARK 923 INTER-LIGAND FREE ENERGY PREDICTED BY IDOCK:   -5.32 KCAL/MOL
REMARK 924 INTRA-LIGAND FREE ENERGY PREDICTED BY IDOCK:   -0.29 KCAL/MOL
REMARK 927      BINDING AFFINITY PREDICTED BY RF-SCORE:    0.00 PKD
ROOT
HETATM    1  C   UNL     1     -10.422  11.060  63.966  1.00  0.00    -0.433 C  
HETATM    2  C   UNL     1     -11.159  12.385  63.941  1.00  0.00    -0.475 C  
ENDROOT
BRANCH   2   3
HETATM    3  C   UNL     1     -10.973  13.183  65.231  1.00  0.00    -0.304 C  
BRANCH   3   4
HETATM    4  C   UNL     1     -12.191  12.993  66.120  1.00  0.00    -0.360 C  
BRANCH   4   5
HETATM    5  O   UNL     1     -11.954  12.036  67.155  1.00  0.00    -0.601 OA 
BRANCH   5   6
HETATM    6  C   UNL     1     -11.910  12.562  68.402  1.00  0.00    -0.304 C  
HETATM    7  O   UNL     1     -12.069  13.738  68.694  1.00  0.00    -0.359 OA 
BRANCH   6   8
HETATM    8  C   UNL     1     -11.834  11.455  69.395  1.00  0.00    -0.419 A  
HETATM    9  C   UNL     1     -10.966  10.387  69.133  1.00  0.00    -0.285 A  
HETATM   10  C   UNL     1     -10.763   9.394  70.094  1.00  0.00    -0.282 A  
HETATM   11  C   UNL     1     -11.433   9.473  71.313  1.00  0.00    -0.377 A  
HETATM   12  C   UNL     1     -12.300  10.523  71.585  1.00  0.00    -0.374 A  
HETATM   13  O   UNL     1     -11.258   8.533  72.284  1.00  0.00    -0.342 OA 
HETATM   14  C   UNL     1     -12.509  11.515  70.625  1.00  0.00    -0.405 A  
HETATM   15  H   UNL     1     -11.714   8.587  73.116  1.00  0.00     0.000 HD 
ENDBRANCH   6   8
ENDBRANCH   5   6
ENDBRANCH   4   5
ENDBRANCH   3   4
ENDBRANCH   2   3
TORSDOF 5
ENDMDL
MODEL       67
REMARK 921   NORMALIZED FREE ENERGY PREDICTED BY IDOCK:   -4.10 KCAL/MOL
REMARK 922        TOTAL FREE ENERGY PREDICTED BY IDOCK:   -5.60 KCAL/MOL
REMARK 923 INTER-LIGAND FREE ENERGY PREDICTED BY IDOCK:   -5.07 KCAL/MOL
REMARK 924 INTRA-LIGAND FREE ENERGY PREDICTED BY IDOCK:   -0.53 KCAL/MOL
REMARK 927      BINDING AFFINITY PREDICTED BY RF-SCORE:    0.00 PKD
ROOT
HETATM    1  C   UNL     1     -10.825   6.321  67.753  1.00  0.00    -0.424 C  
HETATM    2  C   UNL     1     -11.305   6.226  69.188  1.00  0.00    -0.358 C  
ENDROOT
BRANCH   2   3
HETATM    3  C   UNL     1     -10.287   5.548  70.103  1.00  0.00    -0.354 C  
BRANCH   3   4
HETATM    4  C   UNL     1     -10.748   5.675  71.547  1.00  0.00    -0.242 C  
BRANCH   4   5
HETATM    5  O   UNL     1     -11.818   6.612  71.686  1.00  0.00    -0.304 OA 
BRANCH   5   6
HETATM    6  C   UNL     1     -11.523   7.686  72.457  1.00  0.00    -0.352 C  
HETATM    7  O   UNL     1     -11.013   7.658  73.567  1.00  0.00    -0.326 OA 
BRANCH   6   8
HETATM    8  C   UNL     1     -11.734   8.928  71.663  1.00  0.00    -0.411 A  
HETATM    9  C   UNL     1     -12.861   9.711  71.942  1.00  0.00    -0.515 A  
HETATM   10  C   UNL     1     -13.030  10.949  71.316  1.00  0.00    -0.492 A  
HETATM   11  C   UNL     1     -12.070  11.395  70.411  1.00  0.00    -0.384 A  
HETATM   12  C   UNL     1     -10.950  10.627  70.120  1.00  0.00    -0.292 A  
HETATM   13  O   UNL     1     -12.187  12.600  69.785  1.00  0.00    -0.244 OA 
HETATM   14  C   UNL     1     -10.780   9.388  70.741  1.00  0.00    -0.373 A  
HETATM   15  H   UNL     1     -11.533  12.904  69.168  1.00  0.00     0.000 HD 
ENDBRANCH   6   8
ENDBRANCH   5   6
ENDBRANCH   4   5
ENDBRANCH   3   4
ENDBRANCH   2   3
TORSDOF 5
ENDMDL
MODEL       68
REMARK 921   NORMALIZED FREE ENERGY PREDICTED BY IDOCK:   -4.07 KCAL/MOL
REMARK 922        TOTAL FREE ENERGY PREDICTED BY IDOCK:   -5.57 KCAL/MOL
REMARK 923 INTER-LIGAND FREE ENERGY PREDICTED BY IDOCK:   -5.32 KCAL/MOL
REMARK 924 INTRA-LIGAND FREE ENERGY PREDICTED BY IDOCK:   -0.25 KCAL/MOL
REMARK 927      BINDING AFFINITY PREDICTED BY RF-SCORE:    0.00 PKD
ROOT
HETATM    1  C   UNL     1     -12.808   9.396  72.038  1.00  0.00    -0.496 C  
HETATM    2  C   UNL     1     -11.588   8.560  71.705  1.00  0.00    -0.380 C  
ENDROOT
BRANCH   2   3
HETATM    3  C   UNL     1     -10.473   9.381  71.059  1.00  0.00    -0.392 C  
BRANCH   3   4
HETATM    4  C   UNL     1     -10.378   9.025  69.584  1.00  0.00    -0.212 C  
BRANCH   4   5
HETATM    5  O   UNL     1     -10.095  10.169  68.775  1.00  0.00    -0.171 OA 
BRANCH   5   6
HETATM    6  C   UNL     1     -11.186  10.740  68.212  1.00  0.00    -0.297 C  
HETATM    7  O   UNL     1     -12.202  11.085  68.799  1.00  0.00    -0.546 OA 
BRANCH   6   8
HETATM    8  C   UNL     1     -10.886  11.070  66.792  1.00  0.00    -0.307 A  
HETATM    9  C   UNL     1     -10.068  10.194  66.066  1.00  0.00    -0.317 A  
HETATM   10  C   UNL     1      -9.867  10.392  64.698  1.00  0.00    -0.405 A  
HETATM   11  C   UNL     1     -10.484  11.468  64.063  1.00  0.00    -0.370 A  
HETATM   12  C   UNL     1     -11.293  12.347  64.771  1.00  0.00    -0.360 A  
HETATM   13  O   UNL     1     -10.325  11.693  62.729  1.00  0.00    -0.635 OA 
HETATM   14  C   UNL     1     -11.493  12.155  66.139  1.00  0.00    -0.429 A  
HETATM   15  H   UNL     1     -10.746  12.426  62.296  1.00  0.00     0.000 HD 
ENDBRANCH   6   8
ENDBRANCH   5   6
ENDBRANCH   4   5
ENDBRANCH   3   4
ENDBRANCH   2   3
TORSDOF 5
ENDMDL
MODEL       69
REMARK 921   NORMALIZED FREE ENERGY PREDICTED BY IDOCK:   -4.07 KCAL/MOL
REMARK 922        TOTAL FREE ENERGY PREDICTED BY IDOCK:   -5.56 KCAL/MOL
REMARK 923 INTER-LIGAND FREE ENERGY PREDICTED BY IDOCK:   -5.31 KCAL/MOL
REMARK 924 INTRA-LIGAND FREE ENERGY PREDICTED BY IDOCK:   -0.25 KCAL/MOL
REMARK 927      BINDING AFFINITY PREDICTED BY RF-SCORE:    0.00 PKD
ROOT
HETATM    1  C   UNL     1     -12.501  15.543  74.112  1.00  0.00    -0.805 C  
HETATM    2  C   UNL     1     -12.043  16.184  72.817  1.00  0.00    -0.653 C  
ENDROOT
BRANCH   2   3
HETATM    3  C   UNL     1     -12.869  15.731  71.614  1.00  0.00    -0.514 C  
BRANCH   3   4
HETATM    4  C   UNL     1     -11.954  15.066  70.598  1.00  0.00    -0.318 C  
BRANCH   4   5
HETATM    5  O   UNL     1     -12.484  15.138  69.273  1.00  0.00    -0.126 OA 
BRANCH   5   6
HETATM    6  C   UNL     1     -11.604  15.574  68.341  1.00  0.00    -0.357 C  
HETATM    7  O   UNL     1     -11.095  16.684  68.296  1.00  0.00    -0.361 OA 
BRANCH   6   8
HETATM    8  C   UNL     1     -11.192  14.428  67.485  1.00  0.00    -0.329 A  
HETATM    9  C   UNL     1      -9.834  14.089  67.438  1.00  0.00    -0.240 A  
HETATM   10  C   UNL     1      -9.419  12.943  66.755  1.00  0.00    -0.245 A  
HETATM   11  C   UNL     1     -10.366  12.142  66.121  1.00  0.00    -0.234 A  
HETATM   12  C   UNL     1     -11.716  12.469  66.156  1.00  0.00    -0.466 A  
HETATM   13  O   UNL     1     -10.008  11.010  65.453  1.00  0.00    -0.232 OA 
HETATM   14  C   UNL     1     -12.133  13.615  66.833  1.00  0.00    -0.431 A  
HETATM   15  H   UNL     1     -10.654  10.463  65.021  1.00  0.00     0.000 HD 
ENDBRANCH   6   8
ENDBRANCH   5   6
ENDBRANCH   4   5
ENDBRANCH   3   4
ENDBRANCH   2   3
TORSDOF 5
ENDMDL
MODEL       70
REMARK 921   NORMALIZED FREE ENERGY PREDICTED BY IDOCK:   -4.03 KCAL/MOL
REMARK 922        TOTAL FREE ENERGY PREDICTED BY IDOCK:   -5.51 KCAL/MOL
REMARK 923 INTER-LIGAND FREE ENERGY PREDICTED BY IDOCK:   -5.13 KCAL/MOL
REMARK 924 INTRA-LIGAND FREE ENERGY PREDICTED BY IDOCK:   -0.37 KCAL/MOL
REMARK 927      BINDING AFFINITY PREDICTED BY RF-SCORE:    0.00 PKD
ROOT
HETATM    1  C   UNL     1     -10.746   7.736  70.485  1.00  0.00    -0.238 C  
HETATM    2  C   UNL     1     -10.886   9.245  70.461  1.00  0.00    -0.318 C  
ENDROOT
BRANCH   2   3
HETATM    3  C   UNL     1     -11.927   9.753  71.457  1.00  0.00    -0.488 C  
BRANCH   3   4
HETATM    4  C   UNL     1     -12.660  10.942  70.855  1.00  0.00    -0.397 C  
BRANCH   4   5
HETATM    5  O   UNL     1     -12.142  11.294  69.570  1.00  0.00    -0.321 OA 
BRANCH   5   6
HETATM    6  C   UNL     1     -12.032  12.627  69.357  1.00  0.00    -0.260 C  
HETATM    7  O   UNL     1     -12.081  13.499  70.212  1.00  0.00    -0.335 OA 
BRANCH   6   8
HETATM    8  C   UNL     1     -11.642  12.864  67.940  1.00  0.00    -0.391 A  
HETATM    9  C   UNL     1     -11.359  14.176  67.540  1.00  0.00    -0.343 A  
HETATM   10  C   UNL     1     -10.862  14.428  66.258  1.00  0.00    -0.313 A  
HETATM   11  C   UNL     1     -10.654  13.366  65.383  1.00  0.00    -0.303 A  
HETATM   12  C   UNL     1     -10.935  12.059  65.764  1.00  0.00    -0.351 A  
HETATM   13  O   UNL     1     -10.161  13.563  64.128  1.00  0.00    -0.708 OA 
HETATM   14  C   UNL     1     -11.435  11.804  67.042  1.00  0.00    -0.368 A  
HETATM   15  H   UNL     1     -10.019  12.838  63.531  1.00  0.00     0.000 HD 
ENDBRANCH   6   8
ENDBRANCH   5   6
ENDBRANCH   4   5
ENDBRANCH   3   4
ENDBRANCH   2   3
TORSDOF 5
ENDMDL
MODEL       71
REMARK 921   NORMALIZED FREE ENERGY PREDICTED BY IDOCK:   -4.02 KCAL/MOL
REMARK 922        TOTAL FREE ENERGY PREDICTED BY IDOCK:   -5.50 KCAL/MOL
REMARK 923 INTER-LIGAND FREE ENERGY PREDICTED BY IDOCK:   -5.18 KCAL/MOL
REMARK 924 INTRA-LIGAND FREE ENERGY PREDICTED BY IDOCK:   -0.32 KCAL/MOL
REMARK 927      BINDING AFFINITY PREDICTED BY RF-SCORE:    0.00 PKD
ROOT
HETATM    1  C   UNL     1     -11.534   6.279  69.453  1.00  0.00    -0.348 C  
HETATM    2  C   UNL     1     -10.321   7.105  69.075  1.00  0.00    -0.204 C  
ENDROOT
BRANCH   2   3
HETATM    3  C   UNL     1     -10.364   8.514  69.664  1.00  0.00    -0.218 C  
BRANCH   3   4
HETATM    4  C   UNL     1     -10.244   9.532  68.541  1.00  0.00    -0.199 C  
BRANCH   4   5
HETATM    5  O   UNL     1     -10.359  10.874  69.020  1.00  0.00    -0.198 OA 
BRANCH   5   6
HETATM    6  C   UNL     1     -11.521  11.488  68.693  1.00  0.00    -0.293 C  
HETATM    7  O   UNL     1     -12.151  11.330  67.658  1.00  0.00    -0.600 OA 
BRANCH   6   8
HETATM    8  C   UNL     1     -12.023  12.241  69.875  1.00  0.00    -0.377 A  
HETATM    9  C   UNL     1     -12.089  13.638  69.792  1.00  0.00    -0.396 A  
HETATM   10  C   UNL     1     -12.675  14.376  70.824  1.00  0.00    -0.427 A  
HETATM   11  C   UNL     1     -13.192  13.712  71.934  1.00  0.00    -0.411 A  
HETATM   12  C   UNL     1     -13.129  12.327  72.031  1.00  0.00    -0.461 A  
HETATM   13  O   UNL     1     -13.782  14.389  72.958  1.00  0.00    -0.596 OA 
HETATM   14  C   UNL     1     -12.540  11.587  71.004  1.00  0.00    -0.457 A  
HETATM   15  H   UNL     1     -14.135  13.936  73.715  1.00  0.00     0.000 HD 
ENDBRANCH   6   8
ENDBRANCH   5   6
ENDBRANCH   4   5
ENDBRANCH   3   4
ENDBRANCH   2   3
TORSDOF 5
ENDMDL
MODEL       72
REMARK 921   NORMALIZED FREE ENERGY PREDICTED BY IDOCK:   -4.02 KCAL/MOL
REMARK 922        TOTAL FREE ENERGY PREDICTED BY IDOCK:   -5.50 KCAL/MOL
REMARK 923 INTER-LIGAND FREE ENERGY PREDICTED BY IDOCK:   -5.18 KCAL/MOL
REMARK 924 INTRA-LIGAND FREE ENERGY PREDICTED BY IDOCK:   -0.32 KCAL/MOL
REMARK 927      BINDING AFFINITY PREDICTED BY RF-SCORE:    0.00 PKD
ROOT
HETATM    1  C   UNL     1      -9.785  10.778  64.273  1.00  0.00    -0.357 C  
HETATM    2  C   UNL     1     -10.434  11.695  63.255  1.00  0.00    -0.438 C  
ENDROOT
BRANCH   2   3
HETATM    3  C   UNL     1     -11.889  12.014  63.598  1.00  0.00    -0.602 C  
BRANCH   3   4
HETATM    4  C   UNL     1     -12.013  13.491  63.937  1.00  0.00    -0.440 C  
BRANCH   4   5
HETATM    5  O   UNL     1     -10.951  13.936  64.784  1.00  0.00    -0.361 OA 
BRANCH   5   6
HETATM    6  C   UNL     1     -11.258  13.957  66.102  1.00  0.00    -0.303 C  
HETATM    7  O   UNL     1     -11.512  12.984  66.797  1.00  0.00    -0.312 OA 
BRANCH   6   8
HETATM    8  C   UNL     1     -11.047  15.332  66.631  1.00  0.00    -0.276 A  
HETATM    9  C   UNL     1     -11.152  15.536  68.013  1.00  0.00    -0.322 A  
HETATM   10  C   UNL     1     -10.833  16.779  68.566  1.00  0.00    -0.345 A  
HETATM   11  C   UNL     1     -10.413  17.812  67.733  1.00  0.00    -0.397 A  
HETATM   12  C   UNL     1     -10.308  17.626  66.360  1.00  0.00    -0.345 A  
HETATM   13  O   UNL     1     -10.081  19.037  68.230  1.00  0.00    -0.359 OA 
HETATM   14  C   UNL     1     -10.631  16.387  65.804  1.00  0.00    -0.327 A  
HETATM   15  H   UNL     1      -9.793  19.742  67.662  1.00  0.00     0.000 HD 
ENDBRANCH   6   8
ENDBRANCH   5   6
ENDBRANCH   4   5
ENDBRANCH   3   4
ENDBRANCH   2   3
TORSDOF 5
ENDMDL
MODEL       73
REMARK 921   NORMALIZED FREE ENERGY PREDICTED BY IDOCK:   -4.01 KCAL/MOL
REMARK 922        TOTAL FREE ENERGY PREDICTED BY IDOCK:   -5.49 KCAL/MOL
REMARK 923 INTER-LIGAND FREE ENERGY PREDICTED BY IDOCK:   -5.00 KCAL/MOL
REMARK 924 INTRA-LIGAND FREE ENERGY PREDICTED BY IDOCK:   -0.49 KCAL/MOL
REMARK 927      BINDING AFFINITY PREDICTED BY RF-SCORE:    0.00 PKD
ROOT
HETATM    1  C   UNL     1     -14.374   8.703  72.027  1.00  0.00    -0.512 C  
HETATM    2  C   UNL     1     -14.052   7.312  71.517  1.00  0.00    -0.515 C  
ENDROOT
BRANCH   2   3
HETATM    3  C   UNL     1     -12.567   7.129  71.211  1.00  0.00    -0.421 C  
BRANCH   3   4
HETATM    4  C   UNL     1     -11.753   7.474  72.449  1.00  0.00    -0.290 C  
BRANCH   4   5
HETATM    5  O   UNL     1     -11.115   8.747  72.331  1.00  0.00    -0.327 OA 
BRANCH   5   6
HETATM    6  C   UNL     1     -10.172   8.813  71.361  1.00  0.00    -0.280 C  
HETATM    7  O   UNL     1      -9.179   8.107  71.274  1.00  0.00    -0.143 OA 
BRANCH   6   8
HETATM    8  C   UNL     1     -10.631   9.749  70.298  1.00  0.00    -0.348 A  
HETATM    9  C   UNL     1     -10.114   9.591  69.006  1.00  0.00    -0.201 A  
HETATM   10  C   UNL     1     -10.613  10.360  67.951  1.00  0.00    -0.273 A  
HETATM   11  C   UNL     1     -11.626  11.284  68.195  1.00  0.00    -0.289 A  
HETATM   12  C   UNL     1     -12.145  11.454  69.472  1.00  0.00    -0.370 A  
HETATM   13  O   UNL     1     -12.151  12.046  67.195  1.00  0.00    -0.587 OA 
HETATM   14  C   UNL     1     -11.646  10.692  70.530  1.00  0.00    -0.444 A  
HETATM   15  H   UNL     1     -12.842  12.676  67.361  1.00  0.00     0.000 HD 
ENDBRANCH   6   8
ENDBRANCH   5   6
ENDBRANCH   4   5
ENDBRANCH   3   4
ENDBRANCH   2   3
TORSDOF 5
ENDMDL
MODEL       74
REMARK 921   NORMALIZED FREE ENERGY PREDICTED BY IDOCK:   -3.97 KCAL/MOL
REMARK 922        TOTAL FREE ENERGY PREDICTED BY IDOCK:   -5.44 KCAL/MOL
REMARK 923 INTER-LIGAND FREE ENERGY PREDICTED BY IDOCK:   -5.10 KCAL/MOL
REMARK 924 INTRA-LIGAND FREE ENERGY PREDICTED BY IDOCK:   -0.34 KCAL/MOL
REMARK 927      BINDING AFFINITY PREDICTED BY RF-SCORE:    0.00 PKD
ROOT
HETATM    1  C   UNL     1      -7.258  13.242  67.495  1.00  0.00    -0.157 C  
HETATM    2  C   UNL     1      -6.975  14.344  68.497  1.00  0.00    -0.100 C  
ENDROOT
BRANCH   2   3
HETATM    3  C   UNL     1      -8.246  15.043  68.975  1.00  0.00    -0.187 C  
BRANCH   3   4
HETATM    4  C   UNL     1      -9.447  14.447  68.258  1.00  0.00    -0.207 C  
BRANCH   4   5
HETATM    5  O   UNL     1     -10.331  13.777  69.159  1.00  0.00    -0.121 OA 
BRANCH   5   6
HETATM    6  C   UNL     1     -11.620  14.186  69.086  1.00  0.00    -0.307 C  
HETATM    7  O   UNL     1     -12.377  14.015  68.143  1.00  0.00    -0.248 OA 
BRANCH   6   8
HETATM    8  C   UNL     1     -12.042  14.707  70.416  1.00  0.00    -0.383 A  
HETATM    9  C   UNL     1     -12.864  13.901  71.214  1.00  0.00    -0.435 A  
HETATM   10  C   UNL     1     -13.176  14.290  72.519  1.00  0.00    -0.581 A  
HETATM   11  C   UNL     1     -12.665  15.485  73.018  1.00  0.00    -0.454 A  
HETATM   12  C   UNL     1     -11.852  16.297  72.237  1.00  0.00    -0.601 A  
HETATM   13  O   UNL     1     -12.933  15.899  74.289  1.00  0.00    -0.860 OA 
HETATM   14  C   UNL     1     -11.542  15.913  70.931  1.00  0.00    -0.456 A  
HETATM   15  H   UNL     1     -12.584  16.714  74.629  1.00  0.00     0.000 HD 
ENDBRANCH   6   8
ENDBRANCH   5   6
ENDBRANCH   4   5
ENDBRANCH   3   4
ENDBRANCH   2   3
TORSDOF 5
ENDMDL
MODEL       75
REMARK 921   NORMALIZED FREE ENERGY PREDICTED BY IDOCK:   -3.96 KCAL/MOL
REMARK 922        TOTAL FREE ENERGY PREDICTED BY IDOCK:   -5.41 KCAL/MOL
REMARK 923 INTER-LIGAND FREE ENERGY PREDICTED BY IDOCK:   -5.10 KCAL/MOL
REMARK 924 INTRA-LIGAND FREE ENERGY PREDICTED BY IDOCK:   -0.31 KCAL/MOL
REMARK 927      BINDING AFFINITY PREDICTED BY RF-SCORE:    0.00 PKD
ROOT
HETATM    1  C   UNL     1      -8.846  19.342  68.524  1.00  0.00    -0.411 C  
HETATM    2  C   UNL     1     -10.182  19.900  68.075  1.00  0.00    -0.572 C  
ENDROOT
BRANCH   2   3
HETATM    3  C   UNL     1     -10.538  19.491  66.647  1.00  0.00    -0.583 C  
BRANCH   3   4
HETATM    4  C   UNL     1     -10.069  18.065  66.401  1.00  0.00    -0.384 C  
BRANCH   4   5
HETATM    5  O   UNL     1     -10.967  17.103  66.960  1.00  0.00    -0.113 OA 
BRANCH   5   6
HETATM    6  C   UNL     1     -10.771  15.836  66.524  1.00  0.00    -0.283 C  
HETATM    7  O   UNL     1     -10.302  15.511  65.444  1.00  0.00    -0.350 OA 
BRANCH   6   8
HETATM    8  C   UNL     1     -11.032  14.890  67.644  1.00  0.00    -0.300 A  
HETATM    9  C   UNL     1     -11.660  15.382  68.795  1.00  0.00    -0.382 A  
HETATM   10  C   UNL     1     -12.043  14.507  69.815  1.00  0.00    -0.380 A  
HETATM   11  C   UNL     1     -11.794  13.144  69.678  1.00  0.00    -0.324 A  
HETATM   12  C   UNL     1     -11.168  12.642  68.543  1.00  0.00    -0.315 A  
HETATM   13  O   UNL     1     -12.160  12.252  70.641  1.00  0.00    -0.439 OA 
HETATM   14  C   UNL     1     -10.780  13.514  67.525  1.00  0.00    -0.266 A  
HETATM   15  H   UNL     1     -11.991  11.322  70.547  1.00  0.00     0.000 HD 
ENDBRANCH   6   8
ENDBRANCH   5   6
ENDBRANCH   4   5
ENDBRANCH   3   4
ENDBRANCH   2   3
TORSDOF 5
ENDMDL
MODEL       76
REMARK 921   NORMALIZED FREE ENERGY PREDICTED BY IDOCK:   -3.93 KCAL/MOL
REMARK 922        TOTAL FREE ENERGY PREDICTED BY IDOCK:   -5.39 KCAL/MOL
REMARK 923 INTER-LIGAND FREE ENERGY PREDICTED BY IDOCK:   -4.82 KCAL/MOL
REMARK 924 INTRA-LIGAND FREE ENERGY PREDICTED BY IDOCK:   -0.57 KCAL/MOL
REMARK 927      BINDING AFFINITY PREDICTED BY RF-SCORE:    0.00 PKD
ROOT
HETATM    1  C   UNL     1     -13.040  11.820  71.723  1.00  0.00    -0.480 C  
HETATM    2  C   UNL     1     -12.719  10.510  71.030  1.00  0.00    -0.504 C  
ENDROOT
BRANCH   2   3
HETATM    3  C   UNL     1     -11.222  10.326  70.789  1.00  0.00    -0.373 C  
BRANCH   3   4
HETATM    4  C   UNL     1     -10.960  10.250  69.293  1.00  0.00    -0.241 C  
BRANCH   4   5
HETATM    5  O   UNL     1     -10.422  11.471  68.781  1.00  0.00    -0.201 OA 
BRANCH   5   6
HETATM    6  C   UNL     1     -11.247  12.134  67.935  1.00  0.00    -0.272 C  
HETATM    7  O   UNL     1     -12.154  11.642  67.281  1.00  0.00    -0.595 OA 
BRANCH   6   8
HETATM    8  C   UNL     1     -11.009  13.597  68.071  1.00  0.00    -0.270 A  
HETATM    9  C   UNL     1     -10.763  14.340  66.909  1.00  0.00    -0.290 A  
HETATM   10  C   UNL     1     -10.666  15.732  66.973  1.00  0.00    -0.306 A  
HETATM   11  C   UNL     1     -10.814  16.374  68.200  1.00  0.00    -0.346 A  
HETATM   12  C   UNL     1     -11.053  15.650  69.361  1.00  0.00    -0.303 A  
HETATM   13  O   UNL     1     -10.738  17.731  68.308  1.00  0.00    -0.343 OA 
HETATM   14  C   UNL     1     -11.146  14.259  69.302  1.00  0.00    -0.297 A  
HETATM   15  H   UNL     1     -10.839  18.169  69.144  1.00  0.00     0.000 HD 
ENDBRANCH   6   8
ENDBRANCH   5   6
ENDBRANCH   4   5
ENDBRANCH   3   4
ENDBRANCH   2   3
TORSDOF 5
ENDMDL
MODEL       77
REMARK 921   NORMALIZED FREE ENERGY PREDICTED BY IDOCK:   -3.93 KCAL/MOL
REMARK 922        TOTAL FREE ENERGY PREDICTED BY IDOCK:   -5.38 KCAL/MOL
REMARK 923 INTER-LIGAND FREE ENERGY PREDICTED BY IDOCK:   -5.10 KCAL/MOL
REMARK 924 INTRA-LIGAND FREE ENERGY PREDICTED BY IDOCK:   -0.28 KCAL/MOL
REMARK 927      BINDING AFFINITY PREDICTED BY RF-SCORE:    0.00 PKD
ROOT
HETATM    1  C   UNL     1     -10.755  10.929  66.753  1.00  0.00    -0.309 C  
HETATM    2  C   UNL     1      -9.931  11.883  65.910  1.00  0.00    -0.261 C  
ENDROOT
BRANCH   2   3
HETATM    3  C   UNL     1      -9.738  13.241  66.583  1.00  0.00    -0.270 C  
BRANCH   3   4
HETATM    4  C   UNL     1     -11.096  13.817  66.950  1.00  0.00    -0.302 C  
BRANCH   4   5
HETATM    5  O   UNL     1     -11.125  15.241  66.826  1.00  0.00    -0.320 OA 
BRANCH   5   6
HETATM    6  C   UNL     1     -11.047  15.907  68.002  1.00  0.00    -0.334 C  
HETATM    7  O   UNL     1     -11.209  15.425  69.114  1.00  0.00    -0.251 OA 
BRANCH   6   8
HETATM    8  C   UNL     1     -10.538  17.283  67.751  1.00  0.00    -0.367 A  
HETATM    9  C   UNL     1     -10.522  17.754  66.432  1.00  0.00    -0.297 A  
HETATM   10  C   UNL     1     -10.178  19.081  66.163  1.00  0.00    -0.508 A  
HETATM   11  C   UNL     1      -9.849  19.930  67.217  1.00  0.00    -0.403 A  
HETATM   12  C   UNL     1      -9.856  19.476  68.530  1.00  0.00    -0.518 A  
HETATM   13  O   UNL     1      -9.518  21.235  67.004  1.00  0.00    -0.609 OA 
HETATM   14  C   UNL     1     -10.195  18.149  68.801  1.00  0.00    -0.353 A  
HETATM   15  H   UNL     1      -9.294  21.814  67.723  1.00  0.00     0.000 HD 
ENDBRANCH   6   8
ENDBRANCH   5   6
ENDBRANCH   4   5
ENDBRANCH   3   4
ENDBRANCH   2   3
TORSDOF 5
ENDMDL
MODEL       78
REMARK 921   NORMALIZED FREE ENERGY PREDICTED BY IDOCK:   -3.89 KCAL/MOL
REMARK 922        TOTAL FREE ENERGY PREDICTED BY IDOCK:   -5.32 KCAL/MOL
REMARK 923 INTER-LIGAND FREE ENERGY PREDICTED BY IDOCK:   -5.02 KCAL/MOL
REMARK 924 INTRA-LIGAND FREE ENERGY PREDICTED BY IDOCK:   -0.30 KCAL/MOL
REMARK 927      BINDING AFFINITY PREDICTED BY RF-SCORE:    0.00 PKD
ROOT
HETATM    1  C   UNL     1     -11.837  12.802  68.700  1.00  0.00    -0.341 C  
HETATM    2  C   UNL     1     -11.493  12.042  67.434  1.00  0.00    -0.406 C  
ENDROOT
BRANCH   2   3
HETATM    3  C   UNL     1     -11.948  12.772  66.171  1.00  0.00    -0.476 C  
BRANCH   3   4
HETATM    4  C   UNL     1     -11.913  14.272  66.418  1.00  0.00    -0.419 C  
BRANCH   4   5
HETATM    5  O   UNL     1     -10.789  14.892  65.787  1.00  0.00    -0.315 OA 
BRANCH   5   6
HETATM    6  C   UNL     1      -9.743  15.128  66.615  1.00  0.00    -0.258 C  
HETATM    7  O   UNL     1      -8.924  14.303  66.992  1.00  0.00    -0.216 OA 
BRANCH   6   8
HETATM    8  C   UNL     1      -9.624  16.594  66.843  1.00  0.00    -0.259 A  
HETATM    9  C   UNL     1      -8.493  17.253  66.343  1.00  0.00    -0.304 A  
HETATM   10  C   UNL     1      -8.401  18.645  66.417  1.00  0.00    -0.292 A  
HETATM   11  C   UNL     1      -9.441  19.371  66.992  1.00  0.00    -0.323 A  
HETATM   12  C   UNL     1     -10.566  18.730  67.497  1.00  0.00    -0.497 A  
HETATM   13  O   UNL     1      -9.400  20.730  67.076  1.00  0.00    -0.615 OA 
HETATM   14  C   UNL     1     -10.659  17.339  67.429  1.00  0.00    -0.303 A  
HETATM   15  H   UNL     1     -10.109  21.225  67.468  1.00  0.00     0.000 HD 
ENDBRANCH   6   8
ENDBRANCH   5   6
ENDBRANCH   4   5
ENDBRANCH   3   4
ENDBRANCH   2   3
TORSDOF 5
ENDMDL
MODEL       79
REMARK 921   NORMALIZED FREE ENERGY PREDICTED BY IDOCK:   -3.88 KCAL/MOL
REMARK 922        TOTAL FREE ENERGY PREDICTED BY IDOCK:   -5.32 KCAL/MOL
REMARK 923 INTER-LIGAND FREE ENERGY PREDICTED BY IDOCK:   -4.99 KCAL/MOL
REMARK 924 INTRA-LIGAND FREE ENERGY PREDICTED BY IDOCK:   -0.33 KCAL/MOL
REMARK 927      BINDING AFFINITY PREDICTED BY RF-SCORE:    0.00 PKD
ROOT
HETATM    1  C   UNL     1     -10.561   4.873  66.108  1.00  0.00    -0.322 C  
HETATM    2  C   UNL     1     -10.031   5.390  67.431  1.00  0.00    -0.198 C  
ENDROOT
BRANCH   2   3
HETATM    3  C   UNL     1     -11.003   6.347  68.119  1.00  0.00    -0.393 C  
BRANCH   3   4
HETATM    4  C   UNL     1     -11.118   5.975  69.589  1.00  0.00    -0.404 C  
BRANCH   4   5
HETATM    5  O   UNL     1     -10.960   7.111  70.442  1.00  0.00    -0.249 OA 
BRANCH   5   6
HETATM    6  C   UNL     1     -12.087   7.481  71.095  1.00  0.00    -0.307 C  
HETATM    7  O   UNL     1     -12.840   6.739  71.709  1.00  0.00    -0.358 OA 
BRANCH   6   8
HETATM    8  C   UNL     1     -12.170   8.967  71.121  1.00  0.00    -0.331 A  
HETATM    9  C   UNL     1     -11.394   9.691  70.206  1.00  0.00    -0.311 A  
HETATM   10  C   UNL     1     -11.538  11.077  70.105  1.00  0.00    -0.421 A  
HETATM   11  C   UNL     1     -12.455  11.732  70.923  1.00  0.00    -0.318 A  
HETATM   12  C   UNL     1     -13.227  11.028  71.839  1.00  0.00    -0.503 A  
HETATM   13  O   UNL     1     -12.637  13.081  70.852  1.00  0.00    -0.343 OA 
HETATM   14  C   UNL     1     -13.083   9.644  71.945  1.00  0.00    -0.530 A  
HETATM   15  H   UNL     1     -13.263  13.528  71.409  1.00  0.00     0.000 HD 
ENDBRANCH   6   8
ENDBRANCH   5   6
ENDBRANCH   4   5
ENDBRANCH   3   4
ENDBRANCH   2   3
TORSDOF 5
ENDMDL
MODEL       80
REMARK 921   NORMALIZED FREE ENERGY PREDICTED BY IDOCK:   -3.88 KCAL/MOL
REMARK 922        TOTAL FREE ENERGY PREDICTED BY IDOCK:   -5.31 KCAL/MOL
REMARK 923 INTER-LIGAND FREE ENERGY PREDICTED BY IDOCK:   -5.08 KCAL/MOL
REMARK 924 INTRA-LIGAND FREE ENERGY PREDICTED BY IDOCK:   -0.24 KCAL/MOL
REMARK 927      BINDING AFFINITY PREDICTED BY RF-SCORE:    0.00 PKD
ROOT
HETATM    1  C   UNL     1      -9.031  15.356  66.551  1.00  0.00    -0.344 C  
HETATM    2  C   UNL     1     -10.328  14.648  66.887  1.00  0.00    -0.264 C  
ENDROOT
BRANCH   2   3
HETATM    3  C   UNL     1     -10.234  13.836  68.178  1.00  0.00    -0.253 C  
BRANCH   3   4
HETATM    4  C   UNL     1     -11.595  13.813  68.856  1.00  0.00    -0.319 C  
BRANCH   4   5
HETATM    5  O   UNL     1     -11.950  12.501  69.298  1.00  0.00    -0.296 OA 
BRANCH   5   6
HETATM    6  C   UNL     1     -12.399  12.442  70.574  1.00  0.00    -0.262 C  
HETATM    7  O   UNL     1     -12.934  13.352  71.191  1.00  0.00    -0.304 OA 
BRANCH   6   8
HETATM    8  C   UNL     1     -12.323  11.035  71.054  1.00  0.00    -0.490 A  
HETATM    9  C   UNL     1     -13.241  10.614  72.025  1.00  0.00    -0.473 A  
HETATM   10  C   UNL     1     -13.293   9.271  72.407  1.00  0.00    -0.521 A  
HETATM   11  C   UNL     1     -12.423   8.357  71.818  1.00  0.00    -0.335 A  
HETATM   12  C   UNL     1     -11.505   8.761  70.857  1.00  0.00    -0.330 A  
HETATM   13  O   UNL     1     -12.446   7.036  72.152  1.00  0.00    -0.471 OA 
HETATM   14  C   UNL     1     -11.447  10.102  70.476  1.00  0.00    -0.417 A  
HETATM   15  H   UNL     1     -11.853   6.412  71.750  1.00  0.00     0.000 HD 
ENDBRANCH   6   8
ENDBRANCH   5   6
ENDBRANCH   4   5
ENDBRANCH   3   4
ENDBRANCH   2   3
TORSDOF 5
ENDMDL
MODEL       81
REMARK 921   NORMALIZED FREE ENERGY PREDICTED BY IDOCK:   -3.86 KCAL/MOL
REMARK 922        TOTAL FREE ENERGY PREDICTED BY IDOCK:   -5.29 KCAL/MOL
REMARK 923 INTER-LIGAND FREE ENERGY PREDICTED BY IDOCK:   -5.34 KCAL/MOL
REMARK 924 INTRA-LIGAND FREE ENERGY PREDICTED BY IDOCK:    0.05 KCAL/MOL
REMARK 927      BINDING AFFINITY PREDICTED BY RF-SCORE:    0.00 PKD
ROOT
HETATM    1  C   UNL     1     -12.369  12.158  63.371  1.00  0.00    -0.648 C  
HETATM    2  C   UNL     1     -12.136  12.107  64.869  1.00  0.00    -0.342 C  
ENDROOT
BRANCH   2   3
HETATM    3  C   UNL     1     -12.187  13.489  65.517  1.00  0.00    -0.490 C  
BRANCH   3   4
HETATM    4  C   UNL     1     -12.251  13.332  67.028  1.00  0.00    -0.253 C  
BRANCH   4   5
HETATM    5  O   UNL     1     -11.565  12.160  67.475  1.00  0.00    -0.325 OA 
BRANCH   5   6
HETATM    6  C   UNL     1     -10.830  12.336  68.598  1.00  0.00    -0.236 C  
HETATM    7  O   UNL     1      -9.615  12.453  68.653  1.00  0.00    -0.147 OA 
BRANCH   6   8
HETATM    8  C   UNL     1     -11.747  12.566  69.749  1.00  0.00    -0.355 A  
HETATM    9  C   UNL     1     -12.128  11.463  70.524  1.00  0.00    -0.487 A  
HETATM   10  C   UNL     1     -12.878  11.648  71.688  1.00  0.00    -0.454 A  
HETATM   11  C   UNL     1     -13.245  12.936  72.070  1.00  0.00    -0.448 A  
HETATM   12  C   UNL     1     -12.878  14.039  71.308  1.00  0.00    -0.430 A  
HETATM   13  O   UNL     1     -13.966  13.165  73.203  1.00  0.00    -0.306 OA 
HETATM   14  C   UNL     1     -12.132  13.857  70.142  1.00  0.00    -0.418 A  
HETATM   15  H   UNL     1     -14.216  14.044  73.463  1.00  0.00     0.000 HD 
ENDBRANCH   6   8
ENDBRANCH   5   6
ENDBRANCH   4   5
ENDBRANCH   3   4
ENDBRANCH   2   3
TORSDOF 5
ENDMDL
MODEL       82
REMARK 921   NORMALIZED FREE ENERGY PREDICTED BY IDOCK:   -3.86 KCAL/MOL
REMARK 922        TOTAL FREE ENERGY PREDICTED BY IDOCK:   -5.29 KCAL/MOL
REMARK 923 INTER-LIGAND FREE ENERGY PREDICTED BY IDOCK:   -4.68 KCAL/MOL
REMARK 924 INTRA-LIGAND FREE ENERGY PREDICTED BY IDOCK:   -0.62 KCAL/MOL
REMARK 927      BINDING AFFINITY PREDICTED BY RF-SCORE:    0.00 PKD
ROOT
HETATM    1  C   UNL     1     -11.519  13.006  66.488  1.00  0.00    -0.385 C  
HETATM    2  C   UNL     1     -12.250  14.173  67.123  1.00  0.00    -0.348 C  
ENDROOT
BRANCH   2   3
HETATM    3  C   UNL     1     -11.829  14.410  68.572  1.00  0.00    -0.369 C  
BRANCH   3   4
HETATM    4  C   UNL     1     -10.374  14.005  68.744  1.00  0.00    -0.222 C  
BRANCH   4   5
HETATM    5  O   UNL     1      -9.520  15.138  68.914  1.00  0.00    -0.196 OA 
BRANCH   5   6
HETATM    6  C   UNL     1      -8.957  15.591  67.768  1.00  0.00    -0.173 C  
HETATM    7  O   UNL     1      -8.476  14.901  66.881  1.00  0.00    -0.228 OA 
BRANCH   6   8
HETATM    8  C   UNL     1      -9.189  17.057  67.657  1.00  0.00    -0.233 A  
HETATM    9  C   UNL     1      -8.378  17.916  68.411  1.00  0.00    -0.307 A  
HETATM   10  C   UNL     1      -8.471  19.299  68.240  1.00  0.00    -0.366 A  
HETATM   11  C   UNL     1      -9.376  19.817  67.316  1.00  0.00    -0.346 A  
HETATM   12  C   UNL     1     -10.189  18.977  66.565  1.00  0.00    -0.487 A  
HETATM   13  O   UNL     1      -9.492  21.158  67.108  1.00  0.00    -0.681 OA 
HETATM   14  C   UNL     1     -10.102  17.595  66.737  1.00  0.00    -0.334 A  
HETATM   15  H   UNL     1     -10.109  21.511  66.478  1.00  0.00     0.000 HD 
ENDBRANCH   6   8
ENDBRANCH   5   6
ENDBRANCH   4   5
ENDBRANCH   3   4
ENDBRANCH   2   3
TORSDOF 5
ENDMDL
MODEL       83
REMARK 921   NORMALIZED FREE ENERGY PREDICTED BY IDOCK:   -3.86 KCAL/MOL
REMARK 922        TOTAL FREE ENERGY PREDICTED BY IDOCK:   -5.29 KCAL/MOL
REMARK 923 INTER-LIGAND FREE ENERGY PREDICTED BY IDOCK:   -5.07 KCAL/MOL
REMARK 924 INTRA-LIGAND FREE ENERGY PREDICTED BY IDOCK:   -0.22 KCAL/MOL
REMARK 927      BINDING AFFINITY PREDICTED BY RF-SCORE:    0.00 PKD
ROOT
HETATM    1  C   UNL     1     -10.923   7.577  73.161  1.00  0.00    -0.420 C  
HETATM    2  C   UNL     1     -10.458   8.377  71.960  1.00  0.00    -0.384 C  
ENDROOT
BRANCH   2   3
HETATM    3  C   UNL     1     -11.483   9.420  71.518  1.00  0.00    -0.467 C  
BRANCH   3   4
HETATM    4  C   UNL     1     -11.009  10.077  70.231  1.00  0.00    -0.316 C  
BRANCH   4   5
HETATM    5  O   UNL     1     -11.868  11.146  69.828  1.00  0.00    -0.287 OA 
BRANCH   5   6
HETATM    6  C   UNL     1     -11.688  11.556  68.550  1.00  0.00    -0.313 C  
HETATM    7  O   UNL     1     -11.735  10.849  67.554  1.00  0.00    -0.543 OA 
BRANCH   6   8
HETATM    8  C   UNL     1     -11.620  13.043  68.521  1.00  0.00    -0.363 A  
HETATM    9  C   UNL     1     -11.539  13.728  69.740  1.00  0.00    -0.324 A  
HETATM   10  C   UNL     1     -11.341  15.111  69.757  1.00  0.00    -0.307 A  
HETATM   11  C   UNL     1     -11.227  15.802  68.554  1.00  0.00    -0.354 A  
HETATM   12  C   UNL     1     -11.311  15.137  67.337  1.00  0.00    -0.309 A  
HETATM   13  O   UNL     1     -11.023  17.149  68.523  1.00  0.00    -0.317 OA 
HETATM   14  C   UNL     1     -11.513  13.756  67.316  1.00  0.00    -0.367 A  
HETATM   15  H   UNL     1     -10.945  17.620  67.702  1.00  0.00     0.000 HD 
ENDBRANCH   6   8
ENDBRANCH   5   6
ENDBRANCH   4   5
ENDBRANCH   3   4
ENDBRANCH   2   3
TORSDOF 5
ENDMDL
MODEL       84
REMARK 921   NORMALIZED FREE ENERGY PREDICTED BY IDOCK:   -3.86 KCAL/MOL
REMARK 922        TOTAL FREE ENERGY PREDICTED BY IDOCK:   -5.29 KCAL/MOL
REMARK 923 INTER-LIGAND FREE ENERGY PREDICTED BY IDOCK:   -4.74 KCAL/MOL
REMARK 924 INTRA-LIGAND FREE ENERGY PREDICTED BY IDOCK:   -0.54 KCAL/MOL
REMARK 927      BINDING AFFINITY PREDICTED BY RF-SCORE:    0.00 PKD
ROOT
HETATM    1  C   UNL     1     -12.374  12.015  63.439  1.00  0.00    -0.635 C  
HETATM    2  C   UNL     1     -11.591  12.794  64.478  1.00  0.00    -0.397 C  
ENDROOT
BRANCH   2   3
HETATM    3  C   UNL     1     -11.999  14.265  64.538  1.00  0.00    -0.478 C  
BRANCH   3   4
HETATM    4  C   UNL     1     -10.810  15.097  64.990  1.00  0.00    -0.440 C  
BRANCH   4   5
HETATM    5  O   UNL     1      -9.795  14.295  65.598  1.00  0.00    -0.316 OA 
BRANCH   5   6
HETATM    6  C   UNL     1      -9.625  14.517  66.923  1.00  0.00    -0.250 C  
HETATM    7  O   UNL     1      -9.284  15.572  67.437  1.00  0.00    -0.198 OA 
BRANCH   6   8
HETATM    8  C   UNL     1     -10.108  13.332  67.682  1.00  0.00    -0.229 A  
HETATM    9  C   UNL     1     -11.084  13.528  68.668  1.00  0.00    -0.299 A  
HETATM   10  C   UNL     1     -11.661  12.431  69.313  1.00  0.00    -0.386 A  
HETATM   11  C   UNL     1     -11.258  11.143  68.969  1.00  0.00    -0.256 A  
HETATM   12  C   UNL     1     -10.289  10.934  67.996  1.00  0.00    -0.212 A  
HETATM   13  O   UNL     1     -11.802  10.044  69.563  1.00  0.00    -0.462 OA 
HETATM   14  C   UNL     1      -9.706  12.027  67.353  1.00  0.00    -0.185 A  
HETATM   15  H   UNL     1     -11.527   9.166  69.328  1.00  0.00     0.000 HD 
ENDBRANCH   6   8
ENDBRANCH   5   6
ENDBRANCH   4   5
ENDBRANCH   3   4
ENDBRANCH   2   3
TORSDOF 5
ENDMDL
MODEL       85
REMARK 921   NORMALIZED FREE ENERGY PREDICTED BY IDOCK:   -3.85 KCAL/MOL
REMARK 922        TOTAL FREE ENERGY PREDICTED BY IDOCK:   -5.28 KCAL/MOL
REMARK 923 INTER-LIGAND FREE ENERGY PREDICTED BY IDOCK:   -5.06 KCAL/MOL
REMARK 924 INTRA-LIGAND FREE ENERGY PREDICTED BY IDOCK:   -0.22 KCAL/MOL
REMARK 927      BINDING AFFINITY PREDICTED BY RF-SCORE:    0.00 PKD
ROOT
HETATM    1  C   UNL     1     -11.636   8.200  70.896  1.00  0.00    -0.283 C  
HETATM    2  C   UNL     1     -11.102   7.054  70.058  1.00  0.00    -0.316 C  
ENDROOT
BRANCH   2   3
HETATM    3  C   UNL     1     -10.483   7.528  68.744  1.00  0.00    -0.212 C  
BRANCH   3   4
HETATM    4  C   UNL     1     -10.381   9.045  68.755  1.00  0.00    -0.215 C  
BRANCH   4   5
HETATM    5  O   UNL     1     -10.884   9.624  67.549  1.00  0.00    -0.286 OA 
BRANCH   5   6
HETATM    6  C   UNL     1      -9.927  10.026  66.680  1.00  0.00    -0.216 C  
HETATM    7  O   UNL     1      -8.801   9.562  66.584  1.00  0.00    -0.132 OA 
BRANCH   6   8
HETATM    8  C   UNL     1     -10.521  10.993  65.716  1.00  0.00    -0.290 A  
HETATM    9  C   UNL     1     -10.247  10.824  64.352  1.00  0.00    -0.432 A  
HETATM   10  C   UNL     1     -10.886  11.624  63.402  1.00  0.00    -0.453 A  
HETATM   11  C   UNL     1     -11.794  12.593  63.822  1.00  0.00    -0.498 A  
HETATM   12  C   UNL     1     -12.072  12.775  65.171  1.00  0.00    -0.498 A  
HETATM   13  O   UNL     1     -12.449  13.389  62.931  1.00  0.00    -0.828 OA 
HETATM   14  C   UNL     1     -11.432  11.980  66.123  1.00  0.00    -0.401 A  
HETATM   15  H   UNL     1     -13.070  14.049  63.217  1.00  0.00     0.000 HD 
ENDBRANCH   6   8
ENDBRANCH   5   6
ENDBRANCH   4   5
ENDBRANCH   3   4
ENDBRANCH   2   3
TORSDOF 5
ENDMDL
MODEL       86
REMARK 921   NORMALIZED FREE ENERGY PREDICTED BY IDOCK:   -3.85 KCAL/MOL
REMARK 922        TOTAL FREE ENERGY PREDICTED BY IDOCK:   -5.28 KCAL/MOL
REMARK 923 INTER-LIGAND FREE ENERGY PREDICTED BY IDOCK:   -4.75 KCAL/MOL
REMARK 924 INTRA-LIGAND FREE ENERGY PREDICTED BY IDOCK:   -0.53 KCAL/MOL
REMARK 927      BINDING AFFINITY PREDICTED BY RF-SCORE:    0.00 PKD
ROOT
HETATM    1  C   UNL     1     -10.999   6.639  67.043  1.00  0.00    -0.463 C  
HETATM    2  C   UNL     1     -10.277   6.660  68.375  1.00  0.00    -0.188 C  
ENDROOT
BRANCH   2   3
HETATM    3  C   UNL     1     -11.178   6.246  69.537  1.00  0.00    -0.500 C  
BRANCH   3   4
HETATM    4  C   UNL     1     -11.171   7.340  70.593  1.00  0.00    -0.274 C  
BRANCH   4   5
HETATM    5  O   UNL     1     -10.805   8.609  70.046  1.00  0.00    -0.232 OA 
BRANCH   5   6
HETATM    6  C   UNL     1     -11.506   9.655  70.545  1.00  0.00    -0.285 C  
HETATM    7  O   UNL     1     -11.880   9.786  71.700  1.00  0.00    -0.389 OA 
BRANCH   6   8
HETATM    8  C   UNL     1     -11.582  10.725  69.512  1.00  0.00    -0.375 A  
HETATM    9  C   UNL     1     -12.005  12.001  69.909  1.00  0.00    -0.391 A  
HETATM   10  C   UNL     1     -11.967  13.066  69.006  1.00  0.00    -0.312 A  
HETATM   11  C   UNL     1     -11.507  12.849  67.709  1.00  0.00    -0.323 A  
HETATM   12  C   UNL     1     -11.089  11.589  67.301  1.00  0.00    -0.351 A  
HETATM   13  O   UNL     1     -11.442  13.861  66.799  1.00  0.00    -0.323 OA 
HETATM   14  C   UNL     1     -11.130  10.521  68.199  1.00  0.00    -0.346 A  
HETATM   15  H   UNL     1     -11.127  13.713  65.914  1.00  0.00     0.000 HD 
ENDBRANCH   6   8
ENDBRANCH   5   6
ENDBRANCH   4   5
ENDBRANCH   3   4
ENDBRANCH   2   3
TORSDOF 5
ENDMDL
MODEL       87
REMARK 921   NORMALIZED FREE ENERGY PREDICTED BY IDOCK:   -3.85 KCAL/MOL
REMARK 922        TOTAL FREE ENERGY PREDICTED BY IDOCK:   -5.28 KCAL/MOL
REMARK 923 INTER-LIGAND FREE ENERGY PREDICTED BY IDOCK:   -4.96 KCAL/MOL
REMARK 924 INTRA-LIGAND FREE ENERGY PREDICTED BY IDOCK:   -0.32 KCAL/MOL
REMARK 927      BINDING AFFINITY PREDICTED BY RF-SCORE:    0.00 PKD
ROOT
HETATM    1  C   UNL     1      -7.823   8.903  70.152  1.00  0.00    -0.097 C  
HETATM    2  C   UNL     1      -7.157   9.853  69.176  1.00  0.00    -0.069 C  
ENDROOT
BRANCH   2   3
HETATM    3  C   UNL     1      -8.131  10.879  68.600  1.00  0.00    -0.143 C  
BRANCH   3   4
HETATM    4  C   UNL     1      -9.535  10.570  69.092  1.00  0.00    -0.191 C  
BRANCH   4   5
HETATM    5  O   UNL     1     -10.537  11.096  68.219  1.00  0.00    -0.173 OA 
BRANCH   5   6
HETATM    6  C   UNL     1     -10.610  10.479  67.015  1.00  0.00    -0.253 C  
HETATM    7  O   UNL     1     -10.518   9.277  66.816  1.00  0.00    -0.244 OA 
BRANCH   6   8
HETATM    8  C   UNL     1     -11.019  11.471  65.983  1.00  0.00    -0.316 A  
HETATM    9  C   UNL     1     -10.607  11.261  64.661  1.00  0.00    -0.392 A  
HETATM   10  C   UNL     1     -11.076  12.091  63.639  1.00  0.00    -0.525 A  
HETATM   11  C   UNL     1     -11.953  13.129  63.947  1.00  0.00    -0.488 A  
HETATM   12  C   UNL     1     -12.366  13.351  65.254  1.00  0.00    -0.513 A  
HETATM   13  O   UNL     1     -12.444  13.956  62.981  1.00  0.00    -1.099 OA 
HETATM   14  C   UNL     1     -11.896  12.527  66.278  1.00  0.00    -0.453 A  
HETATM   15  H   UNL     1     -13.042  14.663  63.191  1.00  0.00     0.000 HD 
ENDBRANCH   6   8
ENDBRANCH   5   6
ENDBRANCH   4   5
ENDBRANCH   3   4
ENDBRANCH   2   3
TORSDOF 5
ENDMDL
MODEL       88
REMARK 921   NORMALIZED FREE ENERGY PREDICTED BY IDOCK:   -3.84 KCAL/MOL
REMARK 922        TOTAL FREE ENERGY PREDICTED BY IDOCK:   -5.27 KCAL/MOL
REMARK 923 INTER-LIGAND FREE ENERGY PREDICTED BY IDOCK:   -5.04 KCAL/MOL
REMARK 924 INTRA-LIGAND FREE ENERGY PREDICTED BY IDOCK:   -0.22 KCAL/MOL
REMARK 927      BINDING AFFINITY PREDICTED BY RF-SCORE:    0.00 PKD
ROOT
HETATM    1  C   UNL     1      -9.626  19.675  66.179  1.00  0.00    -0.464 C  
HETATM    2  C   UNL     1      -9.693  20.102  67.632  1.00  0.00    -0.551 C  
ENDROOT
BRANCH   2   3
HETATM    3  C   UNL     1     -10.533  19.151  68.484  1.00  0.00    -0.231 C  
BRANCH   3   4
HETATM    4  C   UNL     1      -9.968  17.744  68.372  1.00  0.00    -0.362 C  
BRANCH   4   5
HETATM    5  O   UNL     1     -10.997  16.764  68.225  1.00  0.00    -0.361 OA 
BRANCH   5   6
HETATM    6  C   UNL     1     -11.305  16.100  69.364  1.00  0.00    -0.323 C  
HETATM    7  O   UNL     1     -11.510  16.604  70.458  1.00  0.00    -0.152 OA 
BRANCH   6   8
HETATM    8  C   UNL     1     -11.552  14.668  69.042  1.00  0.00    -0.328 A  
HETATM    9  C   UNL     1     -11.126  14.184  67.798  1.00  0.00    -0.292 A  
HETATM   10  C   UNL     1     -11.218  12.821  67.505  1.00  0.00    -0.332 A  
HETATM   11  C   UNL     1     -11.738  11.949  68.458  1.00  0.00    -0.330 A  
HETATM   12  C   UNL     1     -12.169  12.415  69.693  1.00  0.00    -0.171 A  
HETATM   13  O   UNL     1     -11.836  10.611  68.220  1.00  0.00    -0.731 OA 
HETATM   14  C   UNL     1     -12.083  13.777  69.988  1.00  0.00    -0.416 A  
HETATM   15  H   UNL     1     -12.191  10.016  68.870  1.00  0.00     0.000 HD 
ENDBRANCH   6   8
ENDBRANCH   5   6
ENDBRANCH   4   5
ENDBRANCH   3   4
ENDBRANCH   2   3
TORSDOF 5
ENDMDL
MODEL       89
REMARK 921   NORMALIZED FREE ENERGY PREDICTED BY IDOCK:   -3.83 KCAL/MOL
REMARK 922        TOTAL FREE ENERGY PREDICTED BY IDOCK:   -5.25 KCAL/MOL
REMARK 923 INTER-LIGAND FREE ENERGY PREDICTED BY IDOCK:   -4.66 KCAL/MOL
REMARK 924 INTRA-LIGAND FREE ENERGY PREDICTED BY IDOCK:   -0.59 KCAL/MOL
REMARK 927      BINDING AFFINITY PREDICTED BY RF-SCORE:    0.00 PKD
ROOT
HETATM    1  C   UNL     1     -12.904  11.040  71.517  1.00  0.00    -0.555 C  
HETATM    2  C   UNL     1     -12.609   9.585  71.207  1.00  0.00    -0.425 C  
ENDROOT
BRANCH   2   3
HETATM    3  C   UNL     1     -11.122   9.252  71.321  1.00  0.00    -0.427 C  
BRANCH   3   4
HETATM    4  C   UNL     1     -10.736   8.292  70.207  1.00  0.00    -0.235 C  
BRANCH   4   5
HETATM    5  O   UNL     1      -9.960   8.934  69.192  1.00  0.00    -0.179 OA 
BRANCH   5   6
HETATM    6  C   UNL     1     -10.478   8.834  67.945  1.00  0.00    -0.216 C  
HETATM    7  O   UNL     1     -10.883   7.810  67.414  1.00  0.00    -0.248 OA 
BRANCH   6   8
HETATM    8  C   UNL     1     -10.667  10.200  67.384  1.00  0.00    -0.336 A  
HETATM    9  C   UNL     1     -10.218  10.450  66.081  1.00  0.00    -0.288 A  
HETATM   10  C   UNL     1     -10.491  11.675  65.467  1.00  0.00    -0.321 A  
HETATM   11  C   UNL     1     -11.210  12.645  66.161  1.00  0.00    -0.309 A  
HETATM   12  C   UNL     1     -11.657  12.412  67.456  1.00  0.00    -0.431 A  
HETATM   13  O   UNL     1     -11.509  13.849  65.598  1.00  0.00    -0.309 OA 
HETATM   14  C   UNL     1     -11.382  11.191  68.074  1.00  0.00    -0.380 A  
HETATM   15  H   UNL     1     -11.999  14.510  66.072  1.00  0.00     0.000 HD 
ENDBRANCH   6   8
ENDBRANCH   5   6
ENDBRANCH   4   5
ENDBRANCH   3   4
ENDBRANCH   2   3
TORSDOF 5
ENDMDL
MODEL       90
REMARK 921   NORMALIZED FREE ENERGY PREDICTED BY IDOCK:   -3.83 KCAL/MOL
REMARK 922        TOTAL FREE ENERGY PREDICTED BY IDOCK:   -5.25 KCAL/MOL
REMARK 923 INTER-LIGAND FREE ENERGY PREDICTED BY IDOCK:   -4.94 KCAL/MOL
REMARK 924 INTRA-LIGAND FREE ENERGY PREDICTED BY IDOCK:   -0.31 KCAL/MOL
REMARK 927      BINDING AFFINITY PREDICTED BY RF-SCORE:    0.00 PKD
ROOT
HETATM    1  C   UNL     1      -7.341   9.513  70.518  1.00  0.00    -0.147 C  
HETATM    2  C   UNL     1      -8.290  10.151  69.523  1.00  0.00    -0.178 C  
ENDROOT
BRANCH   2   3
HETATM    3  C   UNL     1      -9.757   9.918  69.880  1.00  0.00    -0.274 C  
BRANCH   3   4
HETATM    4  C   UNL     1     -10.623  10.907  69.117  1.00  0.00    -0.220 C  
BRANCH   4   5
HETATM    5  O   UNL     1      -9.840  11.804  68.325  1.00  0.00    -0.187 OA 
BRANCH   5   6
HETATM    6  C   UNL     1     -10.394  13.028  68.155  1.00  0.00    -0.240 C  
HETATM    7  O   UNL     1     -10.298  13.975  68.922  1.00  0.00    -0.231 OA 
BRANCH   6   8
HETATM    8  C   UNL     1     -10.977  13.113  66.788  1.00  0.00    -0.298 A  
HETATM    9  C   UNL     1     -12.232  13.717  66.638  1.00  0.00    -0.437 A  
HETATM   10  C   UNL     1     -12.758  13.936  65.362  1.00  0.00    -0.525 A  
HETATM   11  C   UNL     1     -12.026  13.549  64.243  1.00  0.00    -0.432 A  
HETATM   12  C   UNL     1     -10.782  12.944  64.376  1.00  0.00    -0.407 A  
HETATM   13  O   UNL     1     -12.494  13.753  62.979  1.00  0.00    -1.068 OA 
HETATM   14  C   UNL     1     -10.255  12.719  65.649  1.00  0.00    -0.292 A  
HETATM   15  H   UNL     1     -11.995  13.489  62.216  1.00  0.00     0.000 HD 
ENDBRANCH   6   8
ENDBRANCH   5   6
ENDBRANCH   4   5
ENDBRANCH   3   4
ENDBRANCH   2   3
TORSDOF 5
ENDMDL
MODEL       91
REMARK 921   NORMALIZED FREE ENERGY PREDICTED BY IDOCK:   -3.81 KCAL/MOL
REMARK 922        TOTAL FREE ENERGY PREDICTED BY IDOCK:   -5.23 KCAL/MOL
REMARK 923 INTER-LIGAND FREE ENERGY PREDICTED BY IDOCK:   -5.04 KCAL/MOL
REMARK 924 INTRA-LIGAND FREE ENERGY PREDICTED BY IDOCK:   -0.18 KCAL/MOL
REMARK 927      BINDING AFFINITY PREDICTED BY RF-SCORE:    0.00 PKD
ROOT
HETATM    1  C   UNL     1     -10.159  20.026  68.229  1.00  0.00    -0.531 C  
HETATM    2  C   UNL     1      -9.690  19.896  66.793  1.00  0.00    -0.538 C  
ENDROOT
BRANCH   2   3
HETATM    3  C   UNL     1     -10.434  18.800  66.031  1.00  0.00    -0.483 C  
BRANCH   3   4
HETATM    4  C   UNL     1     -10.578  17.577  66.924  1.00  0.00    -0.219 C  
BRANCH   4   5
HETATM    5  O   UNL     1     -10.477  16.359  66.183  1.00  0.00    -0.324 OA 
BRANCH   5   6
HETATM    6  C   UNL     1      -9.475  15.541  66.586  1.00  0.00    -0.259 C  
HETATM    7  O   UNL     1      -8.308  15.861  66.754  1.00  0.00    -0.219 OA 
BRANCH   6   8
HETATM    8  C   UNL     1     -10.051  14.228  66.989  1.00  0.00    -0.260 A  
HETATM    9  C   UNL     1     -11.136  14.223  67.874  1.00  0.00    -0.293 A  
HETATM   10  C   UNL     1     -11.791  13.026  68.176  1.00  0.00    -0.381 A  
HETATM   11  C   UNL     1     -11.355  11.840  67.591  1.00  0.00    -0.302 A  
HETATM   12  C   UNL     1     -10.277  11.830  66.715  1.00  0.00    -0.240 A  
HETATM   13  O   UNL     1     -11.970  10.652  67.848  1.00  0.00    -0.737 OA 
HETATM   14  C   UNL     1      -9.617  13.023  66.415  1.00  0.00    -0.258 A  
HETATM   15  H   UNL     1     -11.672   9.842  67.448  1.00  0.00     0.000 HD 
ENDBRANCH   6   8
ENDBRANCH   5   6
ENDBRANCH   4   5
ENDBRANCH   3   4
ENDBRANCH   2   3
TORSDOF 5
ENDMDL
MODEL       92
REMARK 921   NORMALIZED FREE ENERGY PREDICTED BY IDOCK:   -3.81 KCAL/MOL
REMARK 922        TOTAL FREE ENERGY PREDICTED BY IDOCK:   -5.22 KCAL/MOL
REMARK 923 INTER-LIGAND FREE ENERGY PREDICTED BY IDOCK:   -4.94 KCAL/MOL
REMARK 924 INTRA-LIGAND FREE ENERGY PREDICTED BY IDOCK:   -0.28 KCAL/MOL
REMARK 927      BINDING AFFINITY PREDICTED BY RF-SCORE:    0.00 PKD
ROOT
HETATM    1  C   UNL     1     -12.611  12.313  64.242  1.00  0.00    -0.470 C  
HETATM    2  C   UNL     1     -12.182  13.336  65.275  1.00  0.00    -0.492 C  
ENDROOT
BRANCH   2   3
HETATM    3  C   UNL     1     -11.995  14.730  64.676  1.00  0.00    -0.448 C  
BRANCH   3   4
HETATM    4  C   UNL     1     -10.916  15.469  65.451  1.00  0.00    -0.357 C  
BRANCH   4   5
HETATM    5  O   UNL     1     -10.680  14.881  66.733  1.00  0.00    -0.299 OA 
BRANCH   5   6
HETATM    6  C   UNL     1     -11.036  15.662  67.781  1.00  0.00    -0.316 C  
HETATM    7  O   UNL     1     -11.919  15.421  68.591  1.00  0.00    -0.319 OA 
BRANCH   6   8
HETATM    8  C   UNL     1     -10.052  16.771  67.917  1.00  0.00    -0.284 A  
HETATM    9  C   UNL     1     -10.532  18.087  67.911  1.00  0.00    -0.408 A  
HETATM   10  C   UNL     1      -9.665  19.152  68.168  1.00  0.00    -0.429 A  
HETATM   11  C   UNL     1      -8.321  18.894  68.427  1.00  0.00    -0.347 A  
HETATM   12  C   UNL     1      -7.830  17.594  68.431  1.00  0.00    -0.268 A  
HETATM   13  O   UNL     1      -7.441  19.900  68.693  1.00  0.00    -0.308 OA 
HETATM   14  C   UNL     1      -8.693  16.529  68.170  1.00  0.00    -0.194 A  
HETATM   15  H   UNL     1      -6.525  19.724  68.870  1.00  0.00     0.000 HD 
ENDBRANCH   6   8
ENDBRANCH   5   6
ENDBRANCH   4   5
ENDBRANCH   3   4
ENDBRANCH   2   3
TORSDOF 5
ENDMDL
MODEL       93
REMARK 921   NORMALIZED FREE ENERGY PREDICTED BY IDOCK:   -3.78 KCAL/MOL
REMARK 922        TOTAL FREE ENERGY PREDICTED BY IDOCK:   -5.19 KCAL/MOL
REMARK 923 INTER-LIGAND FREE ENERGY PREDICTED BY IDOCK:   -4.81 KCAL/MOL
REMARK 924 INTRA-LIGAND FREE ENERGY PREDICTED BY IDOCK:   -0.37 KCAL/MOL
REMARK 927      BINDING AFFINITY PREDICTED BY RF-SCORE:    0.00 PKD
ROOT
HETATM    1  C   UNL     1      -7.764  14.261  68.162  1.00  0.00    -0.141 C  
HETATM    2  C   UNL     1      -7.702  15.728  68.540  1.00  0.00    -0.137 C  
ENDROOT
BRANCH   2   3
HETATM    3  C   UNL     1      -9.087  16.340  68.743  1.00  0.00    -0.245 C  
BRANCH   3   4
HETATM    4  C   UNL     1      -9.880  15.477  69.711  1.00  0.00    -0.262 C  
BRANCH   4   5
HETATM    5  O   UNL     1     -11.290  15.642  69.543  1.00  0.00    -0.278 OA 
BRANCH   5   6
HETATM    6  C   UNL     1     -11.900  14.619  68.898  1.00  0.00    -0.309 C  
HETATM    7  O   UNL     1     -12.030  14.507  67.688  1.00  0.00    -0.374 OA 
BRANCH   6   8
HETATM    8  C   UNL     1     -12.218  13.545  69.879  1.00  0.00    -0.356 A  
HETATM    9  C   UNL     1     -12.970  13.882  71.011  1.00  0.00    -0.357 A  
HETATM   10  C   UNL     1     -13.404  12.885  71.889  1.00  0.00    -0.530 A  
HETATM   11  C   UNL     1     -13.080  11.556  71.630  1.00  0.00    -0.373 A  
HETATM   12  C   UNL     1     -12.330  11.207  70.513  1.00  0.00    -0.454 A  
HETATM   13  O   UNL     1     -13.490  10.550  72.452  1.00  0.00    -0.606 OA 
HETATM   14  C   UNL     1     -11.891  12.201  69.637  1.00  0.00    -0.391 A  
HETATM   15  H   UNL     1     -13.270   9.643  72.275  1.00  0.00     0.000 HD 
ENDBRANCH   6   8
ENDBRANCH   5   6
ENDBRANCH   4   5
ENDBRANCH   3   4
ENDBRANCH   2   3
TORSDOF 5
ENDMDL
MODEL       94
REMARK 921   NORMALIZED FREE ENERGY PREDICTED BY IDOCK:   -3.78 KCAL/MOL
REMARK 922        TOTAL FREE ENERGY PREDICTED BY IDOCK:   -5.18 KCAL/MOL
REMARK 923 INTER-LIGAND FREE ENERGY PREDICTED BY IDOCK:   -4.67 KCAL/MOL
REMARK 924 INTRA-LIGAND FREE ENERGY PREDICTED BY IDOCK:   -0.51 KCAL/MOL
REMARK 927      BINDING AFFINITY PREDICTED BY RF-SCORE:    0.00 PKD
ROOT
HETATM    1  C   UNL     1      -7.981   4.947  71.343  1.00  0.00    -0.105 C  
HETATM    2  C   UNL     1      -7.865   6.379  70.860  1.00  0.00    -0.107 C  
ENDROOT
BRANCH   2   3
HETATM    3  C   UNL     1      -8.151   6.518  69.365  1.00  0.00    -0.119 C  
BRANCH   3   4
HETATM    4  C   UNL     1      -8.318   7.989  69.021  1.00  0.00    -0.129 C  
BRANCH   4   5
HETATM    5  O   UNL     1      -8.632   8.776  70.172  1.00  0.00    -0.130 OA 
BRANCH   5   6
HETATM    6  C   UNL     1      -9.534   9.761  69.947  1.00  0.00    -0.231 C  
HETATM    7  O   UNL     1      -9.432  10.655  69.120  1.00  0.00    -0.200 OA 
BRANCH   6   8
HETATM    8  C   UNL     1     -10.769   9.478  70.728  1.00  0.00    -0.391 A  
HETATM    9  C   UNL     1     -10.690   8.566  71.788  1.00  0.00    -0.373 A  
HETATM   10  C   UNL     1     -11.788   8.369  72.629  1.00  0.00    -0.360 A  
HETATM   11  C   UNL     1     -12.961   9.085  72.404  1.00  0.00    -0.405 A  
HETATM   12  C   UNL     1     -13.056   9.989  71.354  1.00  0.00    -0.512 A  
HETATM   13  O   UNL     1     -14.053   8.933  73.205  1.00  0.00    -1.211 OA 
HETATM   14  C   UNL     1     -11.962  10.185  70.509  1.00  0.00    -0.400 A  
HETATM   15  H   UNL     1     -14.853   9.422  73.052  1.00  0.00     0.000 HD 
ENDBRANCH   6   8
ENDBRANCH   5   6
ENDBRANCH   4   5
ENDBRANCH   3   4
ENDBRANCH   2   3
TORSDOF 5
ENDMDL
MODEL       95
REMARK 921   NORMALIZED FREE ENERGY PREDICTED BY IDOCK:   -3.77 KCAL/MOL
REMARK 922        TOTAL FREE ENERGY PREDICTED BY IDOCK:   -5.18 KCAL/MOL
REMARK 923 INTER-LIGAND FREE ENERGY PREDICTED BY IDOCK:   -4.85 KCAL/MOL
REMARK 924 INTRA-LIGAND FREE ENERGY PREDICTED BY IDOCK:   -0.32 KCAL/MOL
REMARK 927      BINDING AFFINITY PREDICTED BY RF-SCORE:    0.00 PKD
ROOT
HETATM    1  C   UNL     1     -10.715   2.736  72.989  1.00  0.00    -0.227 C  
HETATM    2  C   UNL     1     -10.694   3.801  74.068  1.00  0.00    -0.289 C  
ENDROOT
BRANCH   2   3
HETATM    3  C   UNL     1     -10.953   5.201  73.515  1.00  0.00    -0.370 C  
BRANCH   3   4
HETATM    4  C   UNL     1     -10.505   5.258  72.063  1.00  0.00    -0.222 C  
BRANCH   4   5
HETATM    5  O   UNL     1     -10.312   6.601  71.614  1.00  0.00    -0.203 OA 
BRANCH   5   6
HETATM    6  C   UNL     1     -11.091   6.958  70.565  1.00  0.00    -0.288 C  
HETATM    7  O   UNL     1     -11.366   6.258  69.602  1.00  0.00    -0.405 OA 
BRANCH   6   8
HETATM    8  C   UNL     1     -11.730   8.271  70.857  1.00  0.00    -0.256 A  
HETATM    9  C   UNL     1     -12.754   8.313  71.813  1.00  0.00    -0.364 A  
HETATM   10  C   UNL     1     -13.290   9.539  72.214  1.00  0.00    -0.526 A  
HETATM   11  C   UNL     1     -12.801  10.717  71.655  1.00  0.00    -0.465 A  
HETATM   12  C   UNL     1     -11.789  10.690  70.703  1.00  0.00    -0.463 A  
HETATM   13  O   UNL     1     -13.286  11.936  72.024  1.00  0.00    -0.487 OA 
HETATM   14  C   UNL     1     -11.254   9.467  70.297  1.00  0.00    -0.286 A  
HETATM   15  H   UNL     1     -12.952  12.739  71.644  1.00  0.00     0.000 HD 
ENDBRANCH   6   8
ENDBRANCH   5   6
ENDBRANCH   4   5
ENDBRANCH   3   4
ENDBRANCH   2   3
TORSDOF 5
ENDMDL
MODEL       96
REMARK 921   NORMALIZED FREE ENERGY PREDICTED BY IDOCK:   -3.77 KCAL/MOL
REMARK 922        TOTAL FREE ENERGY PREDICTED BY IDOCK:   -5.17 KCAL/MOL
REMARK 923 INTER-LIGAND FREE ENERGY PREDICTED BY IDOCK:   -4.92 KCAL/MOL
REMARK 924 INTRA-LIGAND FREE ENERGY PREDICTED BY IDOCK:   -0.25 KCAL/MOL
REMARK 927      BINDING AFFINITY PREDICTED BY RF-SCORE:    0.00 PKD
ROOT
HETATM    1  C   UNL     1     -12.063  15.588  71.225  1.00  0.00    -0.441 C  
HETATM    2  C   UNL     1     -11.476  16.072  69.914  1.00  0.00    -0.327 C  
ENDROOT
BRANCH   2   3
HETATM    3  C   UNL     1     -11.687  15.075  68.775  1.00  0.00    -0.360 C  
BRANCH   3   4
HETATM    4  C   UNL     1     -11.067  15.630  67.502  1.00  0.00    -0.289 C  
BRANCH   4   5
HETATM    5  O   UNL     1     -10.606  14.591  66.635  1.00  0.00    -0.277 OA 
BRANCH   5   6
HETATM    6  C   UNL     1     -11.569  13.728  66.234  1.00  0.00    -0.350 C  
HETATM    7  O   UNL     1     -12.680  14.030  65.822  1.00  0.00    -0.516 OA 
BRANCH   6   8
HETATM    8  C   UNL     1     -11.001  12.353  66.181  1.00  0.00    -0.321 A  
HETATM    9  C   UNL     1     -11.183  11.517  67.290  1.00  0.00    -0.365 A  
HETATM   10  C   UNL     1     -10.783  10.179  67.234  1.00  0.00    -0.316 A  
HETATM   11  C   UNL     1     -10.201   9.686  66.070  1.00  0.00    -0.185 A  
HETATM   12  C   UNL     1     -10.010  10.505  64.964  1.00  0.00    -0.388 A  
HETATM   13  O   UNL     1      -9.806   8.386  65.966  1.00  0.00    -0.456 OA 
HETATM   14  C   UNL     1     -10.404  11.843  65.017  1.00  0.00    -0.330 A  
HETATM   15  H   UNL     1      -9.410   8.049  65.171  1.00  0.00     0.000 HD 
ENDBRANCH   6   8
ENDBRANCH   5   6
ENDBRANCH   4   5
ENDBRANCH   3   4
ENDBRANCH   2   3
TORSDOF 5
ENDMDL
MODEL       97
REMARK 921   NORMALIZED FREE ENERGY PREDICTED BY IDOCK:   -3.77 KCAL/MOL
REMARK 922        TOTAL FREE ENERGY PREDICTED BY IDOCK:   -5.17 KCAL/MOL
REMARK 923 INTER-LIGAND FREE ENERGY PREDICTED BY IDOCK:   -4.66 KCAL/MOL
REMARK 924 INTRA-LIGAND FREE ENERGY PREDICTED BY IDOCK:   -0.50 KCAL/MOL
REMARK 927      BINDING AFFINITY PREDICTED BY RF-SCORE:    0.00 PKD
ROOT
HETATM    1  C   UNL     1      -7.900   9.381  70.596  1.00  0.00    -0.178 C  
HETATM    2  C   UNL     1      -9.406   9.248  70.485  1.00  0.00    -0.316 C  
ENDROOT
BRANCH   2   3
HETATM    3  C   UNL     1      -9.863   8.914  69.065  1.00  0.00    -0.182 C  
BRANCH   3   4
HETATM    4  C   UNL     1      -9.816  10.173  68.215  1.00  0.00    -0.145 C  
BRANCH   4   5
HETATM    5  O   UNL     1     -10.249  11.326  68.940  1.00  0.00    -0.200 OA 
BRANCH   5   6
HETATM    6  C   UNL     1     -11.458  11.804  68.561  1.00  0.00    -0.296 C  
HETATM    7  O   UNL     1     -11.988  11.639  67.473  1.00  0.00    -0.622 OA 
BRANCH   6   8
HETATM    8  C   UNL     1     -12.139  12.400  69.743  1.00  0.00    -0.292 A  
HETATM    9  C   UNL     1     -12.572  11.542  70.762  1.00  0.00    -0.390 A  
HETATM   10  C   UNL     1     -13.096  12.065  71.947  1.00  0.00    -0.475 A  
HETATM   11  C   UNL     1     -13.185  13.446  72.105  1.00  0.00    -0.462 A  
HETATM   12  C   UNL     1     -12.764  14.309  71.102  1.00  0.00    -0.430 A  
HETATM   13  O   UNL     1     -13.679  14.001  73.248  1.00  0.00    -0.291 OA 
HETATM   14  C   UNL     1     -12.244  13.790  69.915  1.00  0.00    -0.383 A  
HETATM   15  H   UNL     1     -13.739  14.943  73.356  1.00  0.00     0.000 HD 
ENDBRANCH   6   8
ENDBRANCH   5   6
ENDBRANCH   4   5
ENDBRANCH   3   4
ENDBRANCH   2   3
TORSDOF 5
ENDMDL
MODEL       98
REMARK 921   NORMALIZED FREE ENERGY PREDICTED BY IDOCK:   -3.75 KCAL/MOL
REMARK 922        TOTAL FREE ENERGY PREDICTED BY IDOCK:   -5.15 KCAL/MOL
REMARK 923 INTER-LIGAND FREE ENERGY PREDICTED BY IDOCK:   -4.70 KCAL/MOL
REMARK 924 INTRA-LIGAND FREE ENERGY PREDICTED BY IDOCK:   -0.45 KCAL/MOL
REMARK 927      BINDING AFFINITY PREDICTED BY RF-SCORE:    0.00 PKD
ROOT
HETATM    1  C   UNL     1     -13.170  10.227  71.928  1.00  0.00    -0.550 C  
HETATM    2  C   UNL     1     -11.942  10.003  71.067  1.00  0.00    -0.469 C  
ENDROOT
BRANCH   2   3
HETATM    3  C   UNL     1     -11.126   8.791  71.514  1.00  0.00    -0.377 C  
BRANCH   3   4
HETATM    4  C   UNL     1     -12.071   7.691  71.971  1.00  0.00    -0.299 C  
BRANCH   4   5
HETATM    5  O   UNL     1     -12.097   6.593  71.055  1.00  0.00    -0.369 OA 
BRANCH   5   6
HETATM    6  C   UNL     1     -10.928   5.916  70.960  1.00  0.00    -0.266 C  
HETATM    7  O   UNL     1     -10.315   5.404  71.885  1.00  0.00    -0.200 OA 
BRANCH   6   8
HETATM    8  C   UNL     1     -10.597   5.716  69.522  1.00  0.00    -0.384 A  
HETATM    9  C   UNL     1      -9.837   4.595  69.166  1.00  0.00    -0.242 A  
HETATM   10  C   UNL     1      -9.614   4.296  67.819  1.00  0.00    -0.210 A  
HETATM   11  C   UNL     1     -10.152   5.122  66.836  1.00  0.00    -0.226 A  
HETATM   12  C   UNL     1     -10.904   6.240  67.174  1.00  0.00    -0.460 A  
HETATM   13  O   UNL     1      -9.970   4.863  65.510  1.00  0.00    -0.298 OA 
HETATM   14  C   UNL     1     -11.125   6.544  68.519  1.00  0.00    -0.347 A  
HETATM   15  H   UNL     1     -10.338   5.426  64.839  1.00  0.00     0.000 HD 
ENDBRANCH   6   8
ENDBRANCH   5   6
ENDBRANCH   4   5
ENDBRANCH   3   4
ENDBRANCH   2   3
TORSDOF 5
ENDMDL
MODEL       99
REMARK 921   NORMALIZED FREE ENERGY PREDICTED BY IDOCK:   -3.75 KCAL/MOL
REMARK 922        TOTAL FREE ENERGY PREDICTED BY IDOCK:   -5.15 KCAL/MOL
REMARK 923 INTER-LIGAND FREE ENERGY PREDICTED BY IDOCK:   -4.92 KCAL/MOL
REMARK 924 INTRA-LIGAND FREE ENERGY PREDICTED BY IDOCK:   -0.23 KCAL/MOL
REMARK 927      BINDING AFFINITY PREDICTED BY RF-SCORE:    0.00 PKD
ROOT
HETATM    1  C   UNL     1     -11.585  12.399  68.238  1.00  0.00    -0.384 C  
HETATM    2  C   UNL     1     -10.830  13.678  68.546  1.00  0.00    -0.275 C  
ENDROOT
BRANCH   2   3
HETATM    3  C   UNL     1     -11.641  14.930  68.218  1.00  0.00    -0.356 C  
BRANCH   3   4
HETATM    4  C   UNL     1     -10.901  15.748  67.172  1.00  0.00    -0.289 C  
BRANCH   4   5
HETATM    5  O   UNL     1     -10.748  17.113  67.569  1.00  0.00    -0.342 OA 
BRANCH   5   6
HETATM    6  C   UNL     1     -10.162  17.904  66.638  1.00  0.00    -0.371 C  
HETATM    7  O   UNL     1     -10.603  18.155  65.527  1.00  0.00    -0.638 OA 
BRANCH   6   8
HETATM    8  C   UNL     1      -8.989  18.587  67.249  1.00  0.00    -0.275 A  
HETATM    9  C   UNL     1      -8.682  19.886  66.824  1.00  0.00    -0.407 A  
HETATM   10  C   UNL     1      -7.673  20.613  67.460  1.00  0.00    -0.319 A  
HETATM   11  C   UNL     1      -6.975  20.036  68.518  1.00  0.00    -0.289 A  
HETATM   12  C   UNL     1      -7.266  18.747  68.947  1.00  0.00    -0.333 A  
HETATM   13  O   UNL     1      -5.991  20.712  69.175  1.00  0.00    -0.348 OA 
HETATM   14  C   UNL     1      -8.269  18.016  68.311  1.00  0.00    -0.298 A  
HETATM   15  H   UNL     1      -5.515  20.318  69.897  1.00  0.00     0.000 HD 
ENDBRANCH   6   8
ENDBRANCH   5   6
ENDBRANCH   4   5
ENDBRANCH   3   4
ENDBRANCH   2   3
TORSDOF 5
ENDMDL
MODEL      100
REMARK 921   NORMALIZED FREE ENERGY PREDICTED BY IDOCK:   -3.74 KCAL/MOL
REMARK 922        TOTAL FREE ENERGY PREDICTED BY IDOCK:   -5.14 KCAL/MOL
REMARK 923 INTER-LIGAND FREE ENERGY PREDICTED BY IDOCK:   -4.91 KCAL/MOL
REMARK 924 INTRA-LIGAND FREE ENERGY PREDICTED BY IDOCK:   -0.22 KCAL/MOL
REMARK 927      BINDING AFFINITY PREDICTED BY RF-SCORE:    0.00 PKD
ROOT
HETATM    1  C   UNL     1     -13.713  13.150  72.228  1.00  0.00    -0.647 C  
HETATM    2  C   UNL     1     -13.313  11.699  72.051  1.00  0.00    -0.405 C  
ENDROOT
BRANCH   2   3
HETATM    3  C   UNL     1     -12.614  11.442  70.717  1.00  0.00    -0.409 C  
BRANCH   3   4
HETATM    4  C   UNL     1     -12.141  12.764  70.135  1.00  0.00    -0.298 C  
BRANCH   4   5
HETATM    5  O   UNL     1     -11.837  12.658  68.742  1.00  0.00    -0.302 OA 
BRANCH   5   6
HETATM    6  C   UNL     1     -10.528  12.834  68.440  1.00  0.00    -0.243 C  
HETATM    7  O   UNL     1      -9.629  12.032  68.644  1.00  0.00    -0.175 OA 
BRANCH   6   8
HETATM    8  C   UNL     1     -10.377  14.078  67.637  1.00  0.00    -0.242 A  
HETATM    9  C   UNL     1     -10.220  13.958  66.250  1.00  0.00    -0.299 A  
HETATM   10  C   UNL     1     -10.207  15.099  65.443  1.00  0.00    -0.402 A  
HETATM   11  C   UNL     1     -10.349  16.354  66.029  1.00  0.00    -0.352 A  
HETATM   12  C   UNL     1     -10.501  16.489  67.403  1.00  0.00    -0.310 A  
HETATM   13  O   UNL     1     -10.353  17.493  65.280  1.00  0.00    -0.590 OA 
HETATM   14  C   UNL     1     -10.510  15.352  68.213  1.00  0.00    -0.241 A  
HETATM   15  H   UNL     1     -10.451  18.349  65.680  1.00  0.00     0.000 HD 
ENDBRANCH   6   8
ENDBRANCH   5   6
ENDBRANCH   4   5
ENDBRANCH   3   4
ENDBRANCH   2   3
TORSDOF 5
ENDMDL
MODEL      101
REMARK 921   NORMALIZED FREE ENERGY PREDICTED BY IDOCK:   -3.73 KCAL/MOL
REMARK 922        TOTAL FREE ENERGY PREDICTED BY IDOCK:   -5.12 KCAL/MOL
REMARK 923 INTER-LIGAND FREE ENERGY PREDICTED BY IDOCK:   -4.53 KCAL/MOL
REMARK 924 INTRA-LIGAND FREE ENERGY PREDICTED BY IDOCK:   -0.59 KCAL/MOL
REMARK 927      BINDING AFFINITY PREDICTED BY RF-SCORE:    0.00 PKD
ROOT
HETATM    1  C   UNL     1     -11.766  11.382  69.343  1.00  0.00    -0.406 C  
HETATM    2  C   UNL     1     -11.188  12.783  69.369  1.00  0.00    -0.198 C  
ENDROOT
BRANCH   2   3
HETATM    3  C   UNL     1     -12.238  13.855  69.082  1.00  0.00    -0.305 C  
BRANCH   3   4
HETATM    4  C   UNL     1     -12.089  14.332  67.646  1.00  0.00    -0.297 C  
BRANCH   4   5
HETATM    5  O   UNL     1     -10.742  14.220  67.182  1.00  0.00    -0.277 OA 
BRANCH   5   6
HETATM    6  C   UNL     1     -10.599  14.351  65.842  1.00  0.00    -0.307 C  
HETATM    7  O   UNL     1     -10.634  15.399  65.214  1.00  0.00    -0.368 OA 
BRANCH   6   8
HETATM    8  C   UNL     1     -10.193  13.040  65.264  1.00  0.00    -0.294 A  
HETATM    9  C   UNL     1      -9.510  12.135  66.088  1.00  0.00    -0.231 A  
HETATM   10  C   UNL     1      -9.227  10.846  65.631  1.00  0.00    -0.227 A  
HETATM   11  C   UNL     1      -9.626  10.469  64.351  1.00  0.00    -0.300 A  
HETATM   12  C   UNL     1     -10.300  11.357  63.522  1.00  0.00    -0.476 A  
HETATM   13  O   UNL     1      -9.381   9.219  63.868  1.00  0.00    -0.391 OA 
HETATM   14  C   UNL     1     -10.581  12.648  63.974  1.00  0.00    -0.457 A  
HETATM   15  H   UNL     1      -9.654   8.961  62.995  1.00  0.00     0.000 HD 
ENDBRANCH   6   8
ENDBRANCH   5   6
ENDBRANCH   4   5
ENDBRANCH   3   4
ENDBRANCH   2   3
TORSDOF 5
ENDMDL
MODEL      102
REMARK 921   NORMALIZED FREE ENERGY PREDICTED BY IDOCK:   -3.73 KCAL/MOL
REMARK 922        TOTAL FREE ENERGY PREDICTED BY IDOCK:   -5.12 KCAL/MOL
REMARK 923 INTER-LIGAND FREE ENERGY PREDICTED BY IDOCK:   -4.80 KCAL/MOL
REMARK 924 INTRA-LIGAND FREE ENERGY PREDICTED BY IDOCK:   -0.33 KCAL/MOL
REMARK 927      BINDING AFFINITY PREDICTED BY RF-SCORE:    0.00 PKD
ROOT
HETATM    1  C   UNL     1     -10.134  20.060  67.919  1.00  0.00    -0.559 C  
HETATM    2  C   UNL     1      -9.408  19.348  66.794  1.00  0.00    -0.395 C  
ENDROOT
BRANCH   2   3
HETATM    3  C   UNL     1     -10.103  18.053  66.376  1.00  0.00    -0.384 C  
BRANCH   3   4
HETATM    4  C   UNL     1     -10.822  17.459  67.577  1.00  0.00    -0.203 C  
BRANCH   4   5
HETATM    5  O   UNL     1     -10.416  16.113  67.831  1.00  0.00    -0.272 OA 
BRANCH   5   6
HETATM    6  C   UNL     1      -9.870  15.914  69.054  1.00  0.00    -0.234 C  
HETATM    7  O   UNL     1      -8.733  16.208  69.391  1.00  0.00    -0.227 OA 
BRANCH   6   8
HETATM    8  C   UNL     1     -10.933  15.461  69.994  1.00  0.00    -0.313 A  
HETATM    9  C   UNL     1     -11.892  14.554  69.524  1.00  0.00    -0.374 A  
HETATM   10  C   UNL     1     -12.826  14.002  70.403  1.00  0.00    -0.231 A  
HETATM   11  C   UNL     1     -12.798  14.361  71.748  1.00  0.00    -0.347 A  
HETATM   12  C   UNL     1     -11.855  15.262  72.227  1.00  0.00    -0.529 A  
HETATM   13  O   UNL     1     -13.682  13.839  72.644  1.00  0.00    -0.647 OA 
HETATM   14  C   UNL     1     -10.923  15.820  71.351  1.00  0.00    -0.082 A  
HETATM   15  H   UNL     1     -13.662  14.083  73.561  1.00  0.00     0.000 HD 
ENDBRANCH   6   8
ENDBRANCH   5   6
ENDBRANCH   4   5
ENDBRANCH   3   4
ENDBRANCH   2   3
TORSDOF 5
ENDMDL
MODEL      103
REMARK 921   NORMALIZED FREE ENERGY PREDICTED BY IDOCK:   -3.71 KCAL/MOL
REMARK 922        TOTAL FREE ENERGY PREDICTED BY IDOCK:   -5.10 KCAL/MOL
REMARK 923 INTER-LIGAND FREE ENERGY PREDICTED BY IDOCK:   -4.67 KCAL/MOL
REMARK 924 INTRA-LIGAND FREE ENERGY PREDICTED BY IDOCK:   -0.43 KCAL/MOL
REMARK 927      BINDING AFFINITY PREDICTED BY RF-SCORE:    0.00 PKD
ROOT
HETATM    1  C   UNL     1      -5.568  13.121  67.833  1.00  0.00    -0.126 C  
HETATM    2  C   UNL     1      -6.719  14.107  67.872  1.00  0.00    -0.176 C  
ENDROOT
BRANCH   2   3
HETATM    3  C   UNL     1      -8.076  13.417  68.006  1.00  0.00    -0.160 C  
BRANCH   3   4
HETATM    4  C   UNL     1      -9.136  14.455  68.342  1.00  0.00    -0.193 C  
BRANCH   4   5
HETATM    5  O   UNL     1     -10.295  14.322  67.517  1.00  0.00    -0.246 OA 
BRANCH   5   6
HETATM    6  C   UNL     1     -10.187  14.910  66.301  1.00  0.00    -0.294 C  
HETATM    7  O   UNL     1      -9.570  15.934  66.049  1.00  0.00    -0.300 OA 
BRANCH   6   8
HETATM    8  C   UNL     1     -10.773  14.009  65.271  1.00  0.00    -0.367 A  
HETATM    9  C   UNL     1     -10.362  12.670  65.249  1.00  0.00    -0.309 A  
HETATM   10  C   UNL     1     -10.980  11.759  64.388  1.00  0.00    -0.397 A  
HETATM   11  C   UNL     1     -12.006  12.194  63.553  1.00  0.00    -0.524 A  
HETATM   12  C   UNL     1     -12.421  13.520  63.561  1.00  0.00    -0.234 A  
HETATM   13  O   UNL     1     -12.645  11.339  62.705  1.00  0.00    -0.912 OA 
HETATM   14  C   UNL     1     -11.803  14.433  64.416  1.00  0.00    -0.433 A  
HETATM   15  H   UNL     1     -13.345  11.635  62.136  1.00  0.00     0.000 HD 
ENDBRANCH   6   8
ENDBRANCH   5   6
ENDBRANCH   4   5
ENDBRANCH   3   4
ENDBRANCH   2   3
TORSDOF 5
ENDMDL
MODEL      104
REMARK 921   NORMALIZED FREE ENERGY PREDICTED BY IDOCK:   -3.69 KCAL/MOL
REMARK 922        TOTAL FREE ENERGY PREDICTED BY IDOCK:   -5.08 KCAL/MOL
REMARK 923 INTER-LIGAND FREE ENERGY PREDICTED BY IDOCK:   -5.17 KCAL/MOL
REMARK 924 INTRA-LIGAND FREE ENERGY PREDICTED BY IDOCK:    0.09 KCAL/MOL
REMARK 927      BINDING AFFINITY PREDICTED BY RF-SCORE:    0.00 PKD
ROOT
HETATM    1  C   UNL     1     -13.275  10.819  71.887  1.00  0.00    -0.524 C  
HETATM    2  C   UNL     1     -12.804  12.164  71.370  1.00  0.00    -0.378 C  
ENDROOT
BRANCH   2   3
HETATM    3  C   UNL     1     -13.414  13.334  72.140  1.00  0.00    -0.655 C  
BRANCH   3   4
HETATM    4  C   UNL     1     -13.883  14.393  71.155  1.00  0.00    -0.186 C  
BRANCH   4   5
HETATM    5  O   UNL     1     -13.186  15.629  71.327  1.00  0.00    -0.494 OA 
BRANCH   5   6
HETATM    6  C   UNL     1     -11.849  15.550  71.126  1.00  0.00    -0.387 C  
HETATM    7  O   UNL     1     -11.007  15.304  71.977  1.00  0.00    -0.265 OA 
BRANCH   6   8
HETATM    8  C   UNL     1     -11.571  15.613  69.665  1.00  0.00    -0.364 A  
HETATM    9  C   UNL     1     -11.033  16.796  69.142  1.00  0.00    -0.223 A  
HETATM   10  C   UNL     1     -10.634  16.856  67.805  1.00  0.00    -0.340 A  
HETATM   11  C   UNL     1     -10.777  15.731  66.996  1.00  0.00    -0.306 A  
HETATM   12  C   UNL     1     -11.313  14.552  67.500  1.00  0.00    -0.355 A  
HETATM   13  O   UNL     1     -10.392  15.740  65.689  1.00  0.00    -0.337 OA 
HETATM   14  C   UNL     1     -11.717  14.491  68.835  1.00  0.00    -0.354 A  
HETATM   15  H   UNL     1     -10.489  14.972  65.138  1.00  0.00     0.000 HD 
ENDBRANCH   6   8
ENDBRANCH   5   6
ENDBRANCH   4   5
ENDBRANCH   3   4
ENDBRANCH   2   3
TORSDOF 5
ENDMDL
MODEL      105
REMARK 921   NORMALIZED FREE ENERGY PREDICTED BY IDOCK:   -3.68 KCAL/MOL
REMARK 922        TOTAL FREE ENERGY PREDICTED BY IDOCK:   -5.06 KCAL/MOL
REMARK 923 INTER-LIGAND FREE ENERGY PREDICTED BY IDOCK:   -4.62 KCAL/MOL
REMARK 924 INTRA-LIGAND FREE ENERGY PREDICTED BY IDOCK:   -0.45 KCAL/MOL
REMARK 927      BINDING AFFINITY PREDICTED BY RF-SCORE:    0.00 PKD
ROOT
HETATM    1  C   UNL     1      -8.903   9.609  63.641  1.00  0.00    -0.256 C  
HETATM    2  C   UNL     1      -9.801  10.336  64.622  1.00  0.00    -0.396 C  
ENDROOT
BRANCH   2   3
HETATM    3  C   UNL     1     -10.643  11.422  63.953  1.00  0.00    -0.452 C  
BRANCH   3   4
HETATM    4  C   UNL     1     -10.602  12.682  64.802  1.00  0.00    -0.317 C  
BRANCH   4   5
HETATM    5  O   UNL     1     -10.470  12.386  66.194  1.00  0.00    -0.240 OA 
BRANCH   5   6
HETATM    6  C   UNL     1     -11.583  12.631  66.926  1.00  0.00    -0.373 C  
HETATM    7  O   UNL     1     -12.581  13.224  66.543  1.00  0.00    -0.279 OA 
BRANCH   6   8
HETATM    8  C   UNL     1     -11.490  11.894  68.216  1.00  0.00    -0.372 A  
HETATM    9  C   UNL     1     -11.934  12.535  69.380  1.00  0.00    -0.315 A  
HETATM   10  C   UNL     1     -11.988  11.836  70.589  1.00  0.00    -0.320 A  
HETATM   11  C   UNL     1     -11.596  10.501  70.627  1.00  0.00    -0.352 A  
HETATM   12  C   UNL     1     -11.149   9.854  69.482  1.00  0.00    -0.255 A  
HETATM   13  O   UNL     1     -11.642   9.778  71.781  1.00  0.00    -0.349 OA 
HETATM   14  C   UNL     1     -11.089  10.550  68.273  1.00  0.00    -0.340 A  
HETATM   15  H   UNL     1     -11.375   8.866  71.807  1.00  0.00     0.000 HD 
ENDBRANCH   6   8
ENDBRANCH   5   6
ENDBRANCH   4   5
ENDBRANCH   3   4
ENDBRANCH   2   3
TORSDOF 5
ENDMDL
MODEL      106
REMARK 921   NORMALIZED FREE ENERGY PREDICTED BY IDOCK:   -3.68 KCAL/MOL
REMARK 922        TOTAL FREE ENERGY PREDICTED BY IDOCK:   -5.05 KCAL/MOL
REMARK 923 INTER-LIGAND FREE ENERGY PREDICTED BY IDOCK:   -4.79 KCAL/MOL
REMARK 924 INTRA-LIGAND FREE ENERGY PREDICTED BY IDOCK:   -0.26 KCAL/MOL
REMARK 927      BINDING AFFINITY PREDICTED BY RF-SCORE:    0.00 PKD
ROOT
HETATM    1  C   UNL     1     -10.315   5.148  72.247  1.00  0.00    -0.267 C  
HETATM    2  C   UNL     1      -9.966   4.969  70.782  1.00  0.00    -0.291 C  
ENDROOT
BRANCH   2   3
HETATM    3  C   UNL     1     -10.815   5.849  69.866  1.00  0.00    -0.439 C  
BRANCH   3   4
HETATM    4  C   UNL     1     -10.197   7.235  69.787  1.00  0.00    -0.210 C  
BRANCH   4   5
HETATM    5  O   UNL     1     -11.125   8.257  70.158  1.00  0.00    -0.252 OA 
BRANCH   5   6
HETATM    6  C   UNL     1     -11.031   9.391  69.424  1.00  0.00    -0.145 C  
HETATM    7  O   UNL     1     -10.539   9.489  68.310  1.00  0.00    -0.214 OA 
BRANCH   6   8
HETATM    8  C   UNL     1     -11.799  10.473  70.100  1.00  0.00    -0.404 A  
HETATM    9  C   UNL     1     -12.582  10.136  71.211  1.00  0.00    -0.508 A  
HETATM   10  C   UNL     1     -13.214  11.136  71.955  1.00  0.00    -0.488 A  
HETATM   11  C   UNL     1     -13.060  12.469  71.581  1.00  0.00    -0.315 A  
HETATM   12  C   UNL     1     -12.290  12.818  70.478  1.00  0.00    -0.355 A  
HETATM   13  O   UNL     1     -13.648  13.478  72.283  1.00  0.00    -0.499 OA 
HETATM   14  C   UNL     1     -11.661  11.821  69.730  1.00  0.00    -0.408 A  
HETATM   15  H   UNL     1     -13.543  14.387  72.028  1.00  0.00     0.000 HD 
ENDBRANCH   6   8
ENDBRANCH   5   6
ENDBRANCH   4   5
ENDBRANCH   3   4
ENDBRANCH   2   3
TORSDOF 5
ENDMDL
MODEL      107
REMARK 921   NORMALIZED FREE ENERGY PREDICTED BY IDOCK:   -3.66 KCAL/MOL
REMARK 922        TOTAL FREE ENERGY PREDICTED BY IDOCK:   -5.03 KCAL/MOL
REMARK 923 INTER-LIGAND FREE ENERGY PREDICTED BY IDOCK:   -4.45 KCAL/MOL
REMARK 924 INTRA-LIGAND FREE ENERGY PREDICTED BY IDOCK:   -0.59 KCAL/MOL
REMARK 927      BINDING AFFINITY PREDICTED BY RF-SCORE:    0.00 PKD
ROOT
HETATM    1  C   UNL     1      -9.614  14.871  67.821  1.00  0.00    -0.208 C  
HETATM    2  C   UNL     1     -10.692  14.553  68.839  1.00  0.00    -0.259 C  
ENDROOT
BRANCH   2   3
HETATM    3  C   UNL     1     -12.028  14.201  68.187  1.00  0.00    -0.367 C  
BRANCH   3   4
HETATM    4  C   UNL     1     -11.772  13.447  66.892  1.00  0.00    -0.389 C  
BRANCH   4   5
HETATM    5  O   UNL     1     -12.043  12.050  67.023  1.00  0.00    -0.603 OA 
BRANCH   5   6
HETATM    6  C   UNL     1     -10.947  11.285  67.240  1.00  0.00    -0.286 C  
HETATM    7  O   UNL     1      -9.878  11.377  66.654  1.00  0.00    -0.198 OA 
BRANCH   6   8
HETATM    8  C   UNL     1     -11.173  10.438  68.443  1.00  0.00    -0.318 A  
HETATM    9  C   UNL     1     -10.579   9.170  68.483  1.00  0.00    -0.209 A  
HETATM   10  C   UNL     1     -10.654   8.395  69.643  1.00  0.00    -0.219 A  
HETATM   11  C   UNL     1     -11.326   8.893  70.757  1.00  0.00    -0.278 A  
HETATM   12  C   UNL     1     -11.924  10.146  70.730  1.00  0.00    -0.442 A  
HETATM   13  O   UNL     1     -11.415   8.177  71.913  1.00  0.00    -0.266 OA 
HETATM   14  C   UNL     1     -11.854  10.921  69.571  1.00  0.00    -0.404 A  
HETATM   15  H   UNL     1     -11.873   8.517  72.673  1.00  0.00     0.000 HD 
ENDBRANCH   6   8
ENDBRANCH   5   6
ENDBRANCH   4   5
ENDBRANCH   3   4
ENDBRANCH   2   3
TORSDOF 5
ENDMDL
MODEL      108
REMARK 921   NORMALIZED FREE ENERGY PREDICTED BY IDOCK:   -3.66 KCAL/MOL
REMARK 922        TOTAL FREE ENERGY PREDICTED BY IDOCK:   -5.03 KCAL/MOL
REMARK 923 INTER-LIGAND FREE ENERGY PREDICTED BY IDOCK:   -4.70 KCAL/MOL
REMARK 924 INTRA-LIGAND FREE ENERGY PREDICTED BY IDOCK:   -0.34 KCAL/MOL
REMARK 927      BINDING AFFINITY PREDICTED BY RF-SCORE:    0.00 PKD
ROOT
HETATM    1  C   UNL     1     -10.500  17.103  69.124  1.00  0.00    -0.296 C  
HETATM    2  C   UNL     1      -9.402  17.051  68.080  1.00  0.00    -0.245 C  
ENDROOT
BRANCH   2   3
HETATM    3  C   UNL     1      -9.948  16.859  66.665  1.00  0.00    -0.302 C  
BRANCH   3   4
HETATM    4  C   UNL     1     -10.252  15.386  66.441  1.00  0.00    -0.286 C  
BRANCH   4   5
HETATM    5  O   UNL     1     -11.600  15.059  66.789  1.00  0.00    -0.312 OA 
BRANCH   5   6
HETATM    6  C   UNL     1     -11.997  13.827  66.393  1.00  0.00    -0.438 C  
HETATM    7  O   UNL     1     -12.301  13.500  65.255  1.00  0.00    -0.413 OA 
BRANCH   6   8
HETATM    8  C   UNL     1     -11.817  12.871  67.520  1.00  0.00    -0.407 A  
HETATM    9  C   UNL     1     -11.310  11.597  67.236  1.00  0.00    -0.372 A  
HETATM   10  C   UNL     1     -11.002  10.715  68.275  1.00  0.00    -0.314 A  
HETATM   11  C   UNL     1     -11.204  11.113  69.594  1.00  0.00    -0.264 A  
HETATM   12  C   UNL     1     -11.711  12.372  69.891  1.00  0.00    -0.339 A  
HETATM   13  O   UNL     1     -10.907  10.291  70.640  1.00  0.00    -0.375 OA 
HETATM   14  C   UNL     1     -12.024  13.254  68.855  1.00  0.00    -0.336 A  
HETATM   15  H   UNL     1     -11.045  10.563  71.539  1.00  0.00     0.000 HD 
ENDBRANCH   6   8
ENDBRANCH   5   6
ENDBRANCH   4   5
ENDBRANCH   3   4
ENDBRANCH   2   3
TORSDOF 5
ENDMDL
MODEL      109
REMARK 921   NORMALIZED FREE ENERGY PREDICTED BY IDOCK:   -3.66 KCAL/MOL
REMARK 922        TOTAL FREE ENERGY PREDICTED BY IDOCK:   -5.03 KCAL/MOL
REMARK 923 INTER-LIGAND FREE ENERGY PREDICTED BY IDOCK:   -4.67 KCAL/MOL
REMARK 924 INTRA-LIGAND FREE ENERGY PREDICTED BY IDOCK:   -0.36 KCAL/MOL
REMARK 927      BINDING AFFINITY PREDICTED BY RF-SCORE:    0.00 PKD
ROOT
HETATM    1  C   UNL     1     -11.466   6.870  71.417  1.00  0.00    -0.321 C  
HETATM    2  C   UNL     1     -11.327   8.124  72.258  1.00  0.00    -0.429 C  
ENDROOT
BRANCH   2   3
HETATM    3  C   UNL     1     -12.675   8.768  72.578  1.00  0.00    -0.378 C  
BRANCH   3   4
HETATM    4  C   UNL     1     -13.055   9.721  71.456  1.00  0.00    -0.411 C  
BRANCH   4   5
HETATM    5  O   UNL     1     -11.918  10.414  70.935  1.00  0.00    -0.319 OA 
BRANCH   5   6
HETATM    6  C   UNL     1     -12.200  11.620  70.388  1.00  0.00    -0.347 C  
HETATM    7  O   UNL     1     -12.617  12.601  70.985  1.00  0.00    -0.361 OA 
BRANCH   6   8
HETATM    8  C   UNL     1     -11.737  11.633  68.973  1.00  0.00    -0.388 A  
HETATM    9  C   UNL     1     -11.011  10.532  68.502  1.00  0.00    -0.300 A  
HETATM   10  C   UNL     1     -10.671  10.441  67.150  1.00  0.00    -0.316 A  
HETATM   11  C   UNL     1     -11.056  11.455  66.276  1.00  0.00    -0.221 A  
HETATM   12  C   UNL     1     -11.771  12.556  66.731  1.00  0.00    -0.453 A  
HETATM   13  O   UNL     1     -10.755  11.403  64.948  1.00  0.00    -0.295 OA 
HETATM   14  C   UNL     1     -12.109  12.652  68.081  1.00  0.00    -0.128 A  
HETATM   15  H   UNL     1     -11.019  12.095  64.352  1.00  0.00     0.000 HD 
ENDBRANCH   6   8
ENDBRANCH   5   6
ENDBRANCH   4   5
ENDBRANCH   3   4
ENDBRANCH   2   3
TORSDOF 5
ENDMDL
MODEL      110
REMARK 921   NORMALIZED FREE ENERGY PREDICTED BY IDOCK:   -3.65 KCAL/MOL
REMARK 922        TOTAL FREE ENERGY PREDICTED BY IDOCK:   -5.02 KCAL/MOL
REMARK 923 INTER-LIGAND FREE ENERGY PREDICTED BY IDOCK:   -4.81 KCAL/MOL
REMARK 924 INTRA-LIGAND FREE ENERGY PREDICTED BY IDOCK:   -0.21 KCAL/MOL
REMARK 927      BINDING AFFINITY PREDICTED BY RF-SCORE:    0.00 PKD
ROOT
HETATM    1  C   UNL     1      -8.133   8.268  72.975  1.00  0.00    -0.210 C  
HETATM    2  C   UNL     1      -9.437   8.484  72.233  1.00  0.00    -0.365 C  
ENDROOT
BRANCH   2   3
HETATM    3  C   UNL     1      -9.224   9.003  70.812  1.00  0.00    -0.299 C  
BRANCH   3   4
HETATM    4  C   UNL     1     -10.557   9.460  70.240  1.00  0.00    -0.250 C  
BRANCH   4   5
HETATM    5  O   UNL     1     -10.410  10.597  69.386  1.00  0.00    -0.218 OA 
BRANCH   5   6
HETATM    6  C   UNL     1     -11.551  10.983  68.768  1.00  0.00    -0.318 C  
HETATM    7  O   UNL     1     -12.652  11.089  69.289  1.00  0.00    -0.361 OA 
BRANCH   6   8
HETATM    8  C   UNL     1     -11.226  11.453  67.393  1.00  0.00    -0.370 A  
HETATM    9  C   UNL     1     -11.682  12.717  66.998  1.00  0.00    -0.440 A  
HETATM   10  C   UNL     1     -11.290  13.253  65.769  1.00  0.00    -0.328 A  
HETATM   11  C   UNL     1     -10.445  12.520  64.940  1.00  0.00    -0.303 A  
HETATM   12  C   UNL     1      -9.989  11.263  65.316  1.00  0.00    -0.301 A  
HETATM   13  O   UNL     1     -10.028  13.008  63.738  1.00  0.00    -0.744 OA 
HETATM   14  C   UNL     1     -10.382  10.722  66.541  1.00  0.00    -0.300 A  
HETATM   15  H   UNL     1      -9.451  12.508  63.172  1.00  0.00     0.000 HD 
ENDBRANCH   6   8
ENDBRANCH   5   6
ENDBRANCH   4   5
ENDBRANCH   3   4
ENDBRANCH   2   3
TORSDOF 5
ENDMDL
MODEL      111
REMARK 921   NORMALIZED FREE ENERGY PREDICTED BY IDOCK:   -3.65 KCAL/MOL
REMARK 922        TOTAL FREE ENERGY PREDICTED BY IDOCK:   -5.01 KCAL/MOL
REMARK 923 INTER-LIGAND FREE ENERGY PREDICTED BY IDOCK:   -4.51 KCAL/MOL
REMARK 924 INTRA-LIGAND FREE ENERGY PREDICTED BY IDOCK:   -0.51 KCAL/MOL
REMARK 927      BINDING AFFINITY PREDICTED BY RF-SCORE:    0.00 PKD
ROOT
HETATM    1  C   UNL     1      -6.187  18.829  66.240  1.00  0.00    -0.212 C  
HETATM    2  C   UNL     1      -6.413  19.861  67.328  1.00  0.00    -0.222 C  
ENDROOT
BRANCH   2   3
HETATM    3  C   UNL     1      -7.742  20.597  67.170  1.00  0.00    -0.348 C  
BRANCH   3   4
HETATM    4  C   UNL     1      -8.565  19.921  66.085  1.00  0.00    -0.312 C  
BRANCH   4   5
HETATM    5  O   UNL     1      -9.911  19.684  66.504  1.00  0.00    -0.368 OA 
BRANCH   5   6
HETATM    6  C   UNL     1     -10.037  18.761  67.487  1.00  0.00    -0.360 C  
HETATM    7  O   UNL     1     -10.252  18.991  68.668  1.00  0.00    -0.381 OA 
BRANCH   6   8
HETATM    8  C   UNL     1     -10.072  17.403  66.878  1.00  0.00    -0.314 A  
HETATM    9  C   UNL     1     -10.777  17.231  65.680  1.00  0.00    -0.123 A  
HETATM   10  C   UNL     1     -10.728  16.009  65.005  1.00  0.00    -0.400 A  
HETATM   11  C   UNL     1      -9.974  14.964  65.533  1.00  0.00    -0.358 A  
HETATM   12  C   UNL     1      -9.273  15.119  66.723  1.00  0.00    -0.277 A  
HETATM   13  O   UNL     1      -9.888  13.759  64.904  1.00  0.00    -0.609 OA 
HETATM   14  C   UNL     1      -9.324  16.337  67.403  1.00  0.00    -0.224 A  
HETATM   15  H   UNL     1      -9.373  13.046  65.264  1.00  0.00     0.000 HD 
ENDBRANCH   6   8
ENDBRANCH   5   6
ENDBRANCH   4   5
ENDBRANCH   3   4
ENDBRANCH   2   3
TORSDOF 5
ENDMDL
MODEL      112
REMARK 921   NORMALIZED FREE ENERGY PREDICTED BY IDOCK:   -3.62 KCAL/MOL
REMARK 922        TOTAL FREE ENERGY PREDICTED BY IDOCK:   -4.98 KCAL/MOL
REMARK 923 INTER-LIGAND FREE ENERGY PREDICTED BY IDOCK:   -4.74 KCAL/MOL
REMARK 924 INTRA-LIGAND FREE ENERGY PREDICTED BY IDOCK:   -0.25 KCAL/MOL
REMARK 927      BINDING AFFINITY PREDICTED BY RF-SCORE:    0.00 PKD
ROOT
HETATM    1  C   UNL     1     -10.466   5.330  72.026  1.00  0.00    -0.283 C  
HETATM    2  C   UNL     1     -10.170   5.256  70.541  1.00  0.00    -0.334 C  
ENDROOT
BRANCH   2   3
HETATM    3  C   UNL     1     -10.984   6.263  69.730  1.00  0.00    -0.444 C  
BRANCH   3   4
HETATM    4  C   UNL     1     -10.036   7.192  68.988  1.00  0.00    -0.183 C  
BRANCH   4   5
HETATM    5  O   UNL     1     -10.478   8.551  69.028  1.00  0.00    -0.219 OA 
BRANCH   5   6
HETATM    6  C   UNL     1     -10.546   9.153  67.817  1.00  0.00    -0.227 C  
HETATM    7  O   UNL     1     -10.324   8.626  66.738  1.00  0.00    -0.286 OA 
BRANCH   6   8
HETATM    8  C   UNL     1     -11.129  10.513  67.982  1.00  0.00    -0.361 A  
HETATM    9  C   UNL     1     -11.421  10.958  69.278  1.00  0.00    -0.372 A  
HETATM   10  C   UNL     1     -11.844  12.272  69.491  1.00  0.00    -0.380 A  
HETATM   11  C   UNL     1     -11.974  13.135  68.405  1.00  0.00    -0.289 A  
HETATM   12  C   UNL     1     -11.692  12.707  67.114  1.00  0.00    -0.438 A  
HETATM   13  O   UNL     1     -12.373  14.428  68.567  1.00  0.00    -0.588 OA 
HETATM   14  C   UNL     1     -11.274  11.393  66.897  1.00  0.00    -0.331 A  
HETATM   15  H   UNL     1     -12.461  15.017  67.827  1.00  0.00     0.000 HD 
ENDBRANCH   6   8
ENDBRANCH   5   6
ENDBRANCH   4   5
ENDBRANCH   3   4
ENDBRANCH   2   3
TORSDOF 5
ENDMDL
MODEL      113
REMARK 921   NORMALIZED FREE ENERGY PREDICTED BY IDOCK:   -3.61 KCAL/MOL
REMARK 922        TOTAL FREE ENERGY PREDICTED BY IDOCK:   -4.97 KCAL/MOL
REMARK 923 INTER-LIGAND FREE ENERGY PREDICTED BY IDOCK:   -4.61 KCAL/MOL
REMARK 924 INTRA-LIGAND FREE ENERGY PREDICTED BY IDOCK:   -0.35 KCAL/MOL
REMARK 927      BINDING AFFINITY PREDICTED BY RF-SCORE:    0.00 PKD
ROOT
HETATM    1  C   UNL     1     -13.753  13.494  72.307  1.00  0.00    -0.700 C  
HETATM    2  C   UNL     1     -13.213  12.142  71.884  1.00  0.00    -0.474 C  
ENDROOT
BRANCH   2   3
HETATM    3  C   UNL     1     -12.281  12.234  70.677  1.00  0.00    -0.378 C  
BRANCH   3   4
HETATM    4  C   UNL     1     -12.185  10.871  70.011  1.00  0.00    -0.347 C  
BRANCH   4   5
HETATM    5  O   UNL     1     -10.838  10.535  69.672  1.00  0.00    -0.240 OA 
BRANCH   5   6
HETATM    6  C   UNL     1     -10.647  10.241  68.364  1.00  0.00    -0.216 C  
HETATM    7  O   UNL     1     -10.667   9.125  67.867  1.00  0.00    -0.230 OA 
BRANCH   6   8
HETATM    8  C   UNL     1     -10.604  11.507  67.582  1.00  0.00    -0.235 A  
HETATM    9  C   UNL     1     -11.608  11.734  66.632  1.00  0.00    -0.273 A  
HETATM   10  C   UNL     1     -11.684  12.963  65.970  1.00  0.00    -0.456 A  
HETATM   11  C   UNL     1     -10.753  13.957  66.261  1.00  0.00    -0.285 A  
HETATM   12  C   UNL     1      -9.749  13.744  67.197  1.00  0.00    -0.244 A  
HETATM   13  O   UNL     1     -10.795  15.173  65.648  1.00  0.00    -0.328 OA 
HETATM   14  C   UNL     1      -9.667  12.516  67.857  1.00  0.00    -0.205 A  
HETATM   15  H   UNL     1     -10.160  15.851  65.847  1.00  0.00     0.000 HD 
ENDBRANCH   6   8
ENDBRANCH   5   6
ENDBRANCH   4   5
ENDBRANCH   3   4
ENDBRANCH   2   3
TORSDOF 5
ENDMDL
MODEL      114
REMARK 921   NORMALIZED FREE ENERGY PREDICTED BY IDOCK:   -3.61 KCAL/MOL
REMARK 922        TOTAL FREE ENERGY PREDICTED BY IDOCK:   -4.96 KCAL/MOL
REMARK 923 INTER-LIGAND FREE ENERGY PREDICTED BY IDOCK:   -4.77 KCAL/MOL
REMARK 924 INTRA-LIGAND FREE ENERGY PREDICTED BY IDOCK:   -0.19 KCAL/MOL
REMARK 927      BINDING AFFINITY PREDICTED BY RF-SCORE:    0.00 PKD
ROOT
HETATM    1  C   UNL     1      -7.575   9.694  66.185  1.00  0.00    -0.102 C  
HETATM    2  C   UNL     1      -8.713  10.181  65.310  1.00  0.00    -0.180 C  
ENDROOT
BRANCH   2   3
HETATM    3  C   UNL     1      -9.359  11.458  65.845  1.00  0.00    -0.247 C  
BRANCH   3   4
HETATM    4  C   UNL     1      -9.600  11.311  67.339  1.00  0.00    -0.169 C  
BRANCH   4   5
HETATM    5  O   UNL     1     -10.993  11.279  67.655  1.00  0.00    -0.223 OA 
BRANCH   5   6
HETATM    6  C   UNL     1     -11.688  12.362  67.233  1.00  0.00    -0.349 C  
HETATM    7  O   UNL     1     -12.330  12.446  66.197  1.00  0.00    -0.606 OA 
BRANCH   6   8
HETATM    8  C   UNL     1     -11.715  13.378  68.321  1.00  0.00    -0.391 A  
HETATM    9  C   UNL     1     -11.610  14.730  67.969  1.00  0.00    -0.367 A  
HETATM   10  C   UNL     1     -11.763  15.723  68.940  1.00  0.00    -0.404 A  
HETATM   11  C   UNL     1     -12.017  15.358  70.259  1.00  0.00    -0.355 A  
HETATM   12  C   UNL     1     -12.119  14.021  70.624  1.00  0.00    -0.424 A  
HETATM   13  O   UNL     1     -12.184  16.291  71.238  1.00  0.00    -0.584 OA 
HETATM   14  C   UNL     1     -11.962  13.026  69.657  1.00  0.00    -0.367 A  
HETATM   15  H   UNL     1     -12.358  16.042  72.137  1.00  0.00     0.000 HD 
ENDBRANCH   6   8
ENDBRANCH   5   6
ENDBRANCH   4   5
ENDBRANCH   3   4
ENDBRANCH   2   3
TORSDOF 5
ENDMDL
MODEL      115
REMARK 921   NORMALIZED FREE ENERGY PREDICTED BY IDOCK:   -3.60 KCAL/MOL
REMARK 922        TOTAL FREE ENERGY PREDICTED BY IDOCK:   -4.96 KCAL/MOL
REMARK 923 INTER-LIGAND FREE ENERGY PREDICTED BY IDOCK:   -4.85 KCAL/MOL
REMARK 924 INTRA-LIGAND FREE ENERGY PREDICTED BY IDOCK:   -0.10 KCAL/MOL
REMARK 927      BINDING AFFINITY PREDICTED BY RF-SCORE:    0.00 PKD
ROOT
HETATM    1  C   UNL     1     -10.225  20.142  66.365  1.00  0.00    -0.552 C  
HETATM    2  C   UNL     1     -10.487  18.683  66.048  1.00  0.00    -0.456 C  
ENDROOT
BRANCH   2   3
HETATM    3  C   UNL     1     -10.594  17.821  67.305  1.00  0.00    -0.322 C  
BRANCH   3   4
HETATM    4  C   UNL     1      -9.599  16.674  67.213  1.00  0.00    -0.243 C  
BRANCH   4   5
HETATM    5  O   UNL     1      -9.607  16.062  65.922  1.00  0.00    -0.316 OA 
BRANCH   5   6
HETATM    6  C   UNL     1     -10.691  15.288  65.676  1.00  0.00    -0.365 C  
HETATM    7  O   UNL     1     -11.457  15.402  64.730  1.00  0.00    -0.393 OA 
BRANCH   6   8
HETATM    8  C   UNL     1     -10.700  14.144  66.629  1.00  0.00    -0.289 A  
HETATM    9  C   UNL     1      -9.526  13.394  66.774  1.00  0.00    -0.263 A  
HETATM   10  C   UNL     1      -9.446  12.397  67.750  1.00  0.00    -0.199 A  
HETATM   11  C   UNL     1     -10.543  12.155  68.574  1.00  0.00    -0.233 A  
HETATM   12  C   UNL     1     -11.715  12.888  68.437  1.00  0.00    -0.382 A  
HETATM   13  O   UNL     1     -10.506  11.200  69.546  1.00  0.00    -0.410 OA 
HETATM   14  C   UNL     1     -11.799  13.882  67.460  1.00  0.00    -0.431 A  
HETATM   15  H   UNL     1     -11.254  11.036  70.108  1.00  0.00     0.000 HD 
ENDBRANCH   6   8
ENDBRANCH   5   6
ENDBRANCH   4   5
ENDBRANCH   3   4
ENDBRANCH   2   3
TORSDOF 5
ENDMDL
MODEL      116
REMARK 921   NORMALIZED FREE ENERGY PREDICTED BY IDOCK:   -3.55 KCAL/MOL
REMARK 922        TOTAL FREE ENERGY PREDICTED BY IDOCK:   -4.88 KCAL/MOL
REMARK 923 INTER-LIGAND FREE ENERGY PREDICTED BY IDOCK:   -4.17 KCAL/MOL
REMARK 924 INTRA-LIGAND FREE ENERGY PREDICTED BY IDOCK:   -0.72 KCAL/MOL
REMARK 927      BINDING AFFINITY PREDICTED BY RF-SCORE:    0.00 PKD
ROOT
HETATM    1  C   UNL     1     -10.473   8.780  67.099  1.00  0.00    -0.354 C  
HETATM    2  C   UNL     1     -10.811   7.314  67.285  1.00  0.00    -0.354 C  
ENDROOT
BRANCH   2   3
HETATM    3  C   UNL     1      -9.568   6.428  67.342  1.00  0.00    -0.133 C  
BRANCH   3   4
HETATM    4  C   UNL     1      -8.554   7.046  68.292  1.00  0.00    -0.129 C  
BRANCH   4   5
HETATM    5  O   UNL     1      -8.857   6.759  69.659  1.00  0.00    -0.142 OA 
BRANCH   5   6
HETATM    6  C   UNL     1      -8.766   7.826  70.488  1.00  0.00    -0.140 C  
HETATM    7  O   UNL     1      -7.775   8.520  70.661  1.00  0.00    -0.068 OA 
BRANCH   6   8
HETATM    8  C   UNL     1     -10.120   8.151  71.015  1.00  0.00    -0.221 A  
HETATM    9  C   UNL     1     -10.790   7.177  71.767  1.00  0.00    -0.253 A  
HETATM   10  C   UNL     1     -12.003   7.483  72.391  1.00  0.00    -0.264 A  
HETATM   11  C   UNL     1     -12.539   8.761  72.257  1.00  0.00    -0.394 A  
HETATM   12  C   UNL     1     -11.887   9.736  71.511  1.00  0.00    -0.476 A  
HETATM   13  O   UNL     1     -13.712   9.108  72.857  1.00  0.00    -0.847 OA 
HETATM   14  C   UNL     1     -10.678   9.432  70.882  1.00  0.00    -0.393 A  
HETATM   15  H   UNL     1     -14.077   9.980  72.767  1.00  0.00     0.000 HD 
ENDBRANCH   6   8
ENDBRANCH   5   6
ENDBRANCH   4   5
ENDBRANCH   3   4
ENDBRANCH   2   3
TORSDOF 5
ENDMDL
MODEL      117
REMARK 921   NORMALIZED FREE ENERGY PREDICTED BY IDOCK:   -3.51 KCAL/MOL
REMARK 922        TOTAL FREE ENERGY PREDICTED BY IDOCK:   -4.84 KCAL/MOL
REMARK 923 INTER-LIGAND FREE ENERGY PREDICTED BY IDOCK:   -4.53 KCAL/MOL
REMARK 924 INTRA-LIGAND FREE ENERGY PREDICTED BY IDOCK:   -0.31 KCAL/MOL
REMARK 927      BINDING AFFINITY PREDICTED BY RF-SCORE:    0.00 PKD
ROOT
HETATM    1  C   UNL     1     -10.011   8.161  66.966  1.00  0.00    -0.329 C  
HETATM    2  C   UNL     1      -9.526   9.358  66.172  1.00  0.00    -0.287 C  
ENDROOT
BRANCH   2   3
HETATM    3  C   UNL     1      -9.751  10.679  66.906  1.00  0.00    -0.213 C  
BRANCH   3   4
HETATM    4  C   UNL     1     -11.245  10.919  67.060  1.00  0.00    -0.137 C  
BRANCH   4   5
HETATM    5  O   UNL     1     -11.619  12.238  66.654  1.00  0.00    -0.362 OA 
BRANCH   5   6
HETATM    6  C   UNL     1     -11.748  13.122  67.671  1.00  0.00    -0.369 C  
HETATM    7  O   UNL     1     -11.966  12.845  68.842  1.00  0.00    -0.300 OA 
BRANCH   6   8
HETATM    8  C   UNL     1     -11.386  14.481  67.185  1.00  0.00    -0.361 A  
HETATM    9  C   UNL     1     -11.139  15.482  68.133  1.00  0.00    -0.325 A  
HETATM   10  C   UNL     1     -10.670  16.734  67.728  1.00  0.00    -0.321 A  
HETATM   11  C   UNL     1     -10.451  16.979  66.375  1.00  0.00    -0.252 A  
HETATM   12  C   UNL     1     -10.695  15.997  65.422  1.00  0.00    -0.399 A  
HETATM   13  O   UNL     1      -9.983  18.180  65.935  1.00  0.00    -0.540 OA 
HETATM   14  C   UNL     1     -11.169  14.747  65.823  1.00  0.00    -0.337 A  
HETATM   15  H   UNL     1      -9.833  18.347  65.012  1.00  0.00     0.000 HD 
ENDBRANCH   6   8
ENDBRANCH   5   6
ENDBRANCH   4   5
ENDBRANCH   3   4
ENDBRANCH   2   3
TORSDOF 5
ENDMDL
MODEL      118
REMARK 921   NORMALIZED FREE ENERGY PREDICTED BY IDOCK:   -3.50 KCAL/MOL
REMARK 922        TOTAL FREE ENERGY PREDICTED BY IDOCK:   -4.82 KCAL/MOL
REMARK 923 INTER-LIGAND FREE ENERGY PREDICTED BY IDOCK:   -4.53 KCAL/MOL
REMARK 924 INTRA-LIGAND FREE ENERGY PREDICTED BY IDOCK:   -0.29 KCAL/MOL
REMARK 927      BINDING AFFINITY PREDICTED BY RF-SCORE:    0.00 PKD
ROOT
HETATM    1  C   UNL     1      -6.056  10.606  63.302  1.00  0.00    -0.019 C  
HETATM    2  C   UNL     1      -6.137   9.589  64.423  1.00  0.00    -0.083 C  
ENDROOT
BRANCH   2   3
HETATM    3  C   UNL     1      -6.526  10.219  65.759  1.00  0.00    -0.119 C  
BRANCH   3   4
HETATM    4  C   UNL     1      -7.862   9.651  66.212  1.00  0.00    -0.101 C  
BRANCH   4   5
HETATM    5  O   UNL     1      -8.943  10.120  65.403  1.00  0.00    -0.158 OA 
BRANCH   5   6
HETATM    6  C   UNL     1     -10.099  10.327  66.079  1.00  0.00    -0.244 C  
HETATM    7  O   UNL     1     -10.407   9.823  67.149  1.00  0.00    -0.222 OA 
BRANCH   6   8
HETATM    8  C   UNL     1     -10.861  11.421  65.418  1.00  0.00    -0.292 A  
HETATM    9  C   UNL     1     -11.413  12.426  66.223  1.00  0.00    -0.423 A  
HETATM   10  C   UNL     1     -12.022  13.539  65.638  1.00  0.00    -0.429 A  
HETATM   11  C   UNL     1     -12.077  13.641  64.250  1.00  0.00    -0.434 A  
HETATM   12  C   UNL     1     -11.537  12.650  63.439  1.00  0.00    -0.536 A  
HETATM   13  O   UNL     1     -12.651  14.714  63.637  1.00  0.00    -1.017 OA 
HETATM   14  C   UNL     1     -10.933  11.534  64.020  1.00  0.00    -0.454 A  
HETATM   15  H   UNL     1     -12.688  14.783  62.690  1.00  0.00     0.000 HD 
ENDBRANCH   6   8
ENDBRANCH   5   6
ENDBRANCH   4   5
ENDBRANCH   3   4
ENDBRANCH   2   3
TORSDOF 5
ENDMDL
MODEL      119
REMARK 921   NORMALIZED FREE ENERGY PREDICTED BY IDOCK:   -3.49 KCAL/MOL
REMARK 922        TOTAL FREE ENERGY PREDICTED BY IDOCK:   -4.82 KCAL/MOL
REMARK 923 INTER-LIGAND FREE ENERGY PREDICTED BY IDOCK:   -4.54 KCAL/MOL
REMARK 924 INTRA-LIGAND FREE ENERGY PREDICTED BY IDOCK:   -0.27 KCAL/MOL
REMARK 927      BINDING AFFINITY PREDICTED BY RF-SCORE:    0.00 PKD
ROOT
HETATM    1  C   UNL     1      -5.757  19.127  67.106  1.00  0.00    -0.170 C  
HETATM    2  C   UNL     1      -6.620  19.444  68.312  1.00  0.00    -0.283 C  
ENDROOT
BRANCH   2   3
HETATM    3  C   UNL     1      -8.048  19.826  67.926  1.00  0.00    -0.336 C  
BRANCH   3   4
HETATM    4  C   UNL     1      -9.022  18.872  68.599  1.00  0.00    -0.350 C  
BRANCH   4   5
HETATM    5  O   UNL     1      -8.923  17.547  68.071  1.00  0.00    -0.245 OA 
BRANCH   5   6
HETATM    6  C   UNL     1     -10.045  16.803  68.215  1.00  0.00    -0.274 C  
HETATM    7  O   UNL     1     -10.880  16.922  69.099  1.00  0.00    -0.312 OA 
BRANCH   6   8
HETATM    8  C   UNL     1     -10.215  15.941  67.012  1.00  0.00    -0.283 A  
HETATM    9  C   UNL     1     -10.046  14.558  67.159  1.00  0.00    -0.252 A  
HETATM   10  C   UNL     1     -10.324  13.700  66.091  1.00  0.00    -0.297 A  
HETATM   11  C   UNL     1     -10.767  14.231  64.882  1.00  0.00    -0.432 A  
HETATM   12  C   UNL     1     -10.933  15.601  64.722  1.00  0.00    -0.418 A  
HETATM   13  O   UNL     1     -11.060  13.431  63.818  1.00  0.00    -0.562 OA 
HETATM   14  C   UNL     1     -10.653  16.461  65.784  1.00  0.00    -0.327 A  
HETATM   15  H   UNL     1     -11.362  13.793  62.994  1.00  0.00     0.000 HD 
ENDBRANCH   6   8
ENDBRANCH   5   6
ENDBRANCH   4   5
ENDBRANCH   3   4
ENDBRANCH   2   3
TORSDOF 5
ENDMDL
MODEL      120
REMARK 921   NORMALIZED FREE ENERGY PREDICTED BY IDOCK:   -3.48 KCAL/MOL
REMARK 922        TOTAL FREE ENERGY PREDICTED BY IDOCK:   -4.80 KCAL/MOL
REMARK 923 INTER-LIGAND FREE ENERGY PREDICTED BY IDOCK:   -4.39 KCAL/MOL
REMARK 924 INTRA-LIGAND FREE ENERGY PREDICTED BY IDOCK:   -0.41 KCAL/MOL
REMARK 927      BINDING AFFINITY PREDICTED BY RF-SCORE:    0.00 PKD
ROOT
HETATM    1  C   UNL     1     -10.546   5.927  71.410  1.00  0.00    -0.309 C  
HETATM    2  C   UNL     1     -11.904   6.236  72.010  1.00  0.00    -0.370 C  
ENDROOT
BRANCH   2   3
HETATM    3  C   UNL     1     -12.517   7.515  71.443  1.00  0.00    -0.382 C  
BRANCH   3   4
HETATM    4  C   UNL     1     -11.829   8.720  72.064  1.00  0.00    -0.372 C  
BRANCH   4   5
HETATM    5  O   UNL     1     -11.715   9.806  71.141  1.00  0.00    -0.323 OA 
BRANCH   5   6
HETATM    6  C   UNL     1     -10.560   9.821  70.434  1.00  0.00    -0.304 C  
HETATM    7  O   UNL     1      -9.522   9.252  70.740  1.00  0.00    -0.247 OA 
BRANCH   6   8
HETATM    8  C   UNL     1     -10.802  10.475  69.119  1.00  0.00    -0.277 A  
HETATM    9  C   UNL     1     -11.744  11.510  69.056  1.00  0.00    -0.400 A  
HETATM   10  C   UNL     1     -11.908  12.239  67.876  1.00  0.00    -0.358 A  
HETATM   11  C   UNL     1     -11.130  11.928  66.764  1.00  0.00    -0.308 A  
HETATM   12  C   UNL     1     -10.195  10.902  66.810  1.00  0.00    -0.277 A  
HETATM   13  O   UNL     1     -11.248  12.620  65.596  1.00  0.00    -0.290 OA 
HETATM   14  C   UNL     1     -10.031  10.168  67.986  1.00  0.00    -0.173 A  
HETATM   15  H   UNL     1     -10.717  12.409  64.837  1.00  0.00     0.000 HD 
ENDBRANCH   6   8
ENDBRANCH   5   6
ENDBRANCH   4   5
ENDBRANCH   3   4
ENDBRANCH   2   3
TORSDOF 5
ENDMDL
MODEL      121
REMARK 921   NORMALIZED FREE ENERGY PREDICTED BY IDOCK:   -3.48 KCAL/MOL
REMARK 922        TOTAL FREE ENERGY PREDICTED BY IDOCK:   -4.80 KCAL/MOL
REMARK 923 INTER-LIGAND FREE ENERGY PREDICTED BY IDOCK:   -4.57 KCAL/MOL
REMARK 924 INTRA-LIGAND FREE ENERGY PREDICTED BY IDOCK:   -0.23 KCAL/MOL
REMARK 927      BINDING AFFINITY PREDICTED BY RF-SCORE:    0.00 PKD
ROOT
HETATM    1  C   UNL     1     -10.259   4.651  66.066  1.00  0.00    -0.306 C  
HETATM    2  C   UNL     1     -10.208   4.997  67.541  1.00  0.00    -0.184 C  
ENDROOT
BRANCH   2   3
HETATM    3  C   UNL     1     -10.703   6.413  67.829  1.00  0.00    -0.377 C  
BRANCH   3   4
HETATM    4  C   UNL     1     -10.038   7.383  66.865  1.00  0.00    -0.257 C  
BRANCH   4   5
HETATM    5  O   UNL     1     -10.768   8.606  66.747  1.00  0.00    -0.221 OA 
BRANCH   5   6
HETATM    6  C   UNL     1     -10.113   9.587  66.082  1.00  0.00    -0.256 C  
HETATM    7  O   UNL     1      -9.326   9.430  65.160  1.00  0.00    -0.252 OA 
BRANCH   6   8
HETATM    8  C   UNL     1     -10.648  10.908  66.512  1.00  0.00    -0.295 A  
HETATM    9  C   UNL     1     -10.828  11.899  65.538  1.00  0.00    -0.343 A  
HETATM   10  C   UNL     1     -11.448  13.106  65.871  1.00  0.00    -0.366 A  
HETATM   11  C   UNL     1     -11.884  13.315  67.178  1.00  0.00    -0.374 A  
HETATM   12  C   UNL     1     -11.707  12.343  68.154  1.00  0.00    -0.408 A  
HETATM   13  O   UNL     1     -12.503  14.472  67.545  1.00  0.00    -0.590 OA 
HETATM   14  C   UNL     1     -11.084  11.138  67.826  1.00  0.00    -0.344 A  
HETATM   15  H   UNL     1     -12.801  14.614  68.436  1.00  0.00     0.000 HD 
ENDBRANCH   6   8
ENDBRANCH   5   6
ENDBRANCH   4   5
ENDBRANCH   3   4
ENDBRANCH   2   3
TORSDOF 5
ENDMDL
MODEL      122
REMARK 921   NORMALIZED FREE ENERGY PREDICTED BY IDOCK:   -3.48 KCAL/MOL
REMARK 922        TOTAL FREE ENERGY PREDICTED BY IDOCK:   -4.79 KCAL/MOL
REMARK 923 INTER-LIGAND FREE ENERGY PREDICTED BY IDOCK:   -4.72 KCAL/MOL
REMARK 924 INTRA-LIGAND FREE ENERGY PREDICTED BY IDOCK:   -0.08 KCAL/MOL
REMARK 927      BINDING AFFINITY PREDICTED BY RF-SCORE:    0.00 PKD
ROOT
HETATM    1  C   UNL     1      -9.178   4.470  69.999  1.00  0.00    -0.195 C  
HETATM    2  C   UNL     1      -9.777   5.846  70.217  1.00  0.00    -0.212 C  
ENDROOT
BRANCH   2   3
HETATM    3  C   UNL     1     -10.875   5.845  71.279  1.00  0.00    -0.333 C  
BRANCH   3   4
HETATM    4  C   UNL     1     -10.587   6.935  72.299  1.00  0.00    -0.216 C  
BRANCH   4   5
HETATM    5  O   UNL     1     -11.785   7.550  72.777  1.00  0.00    -0.279 OA 
BRANCH   5   6
HETATM    6  C   UNL     1     -12.643   7.936  71.803  1.00  0.00    -0.328 C  
HETATM    7  O   UNL     1     -13.640   7.329  71.440  1.00  0.00    -0.388 OA 
BRANCH   6   8
HETATM    8  C   UNL     1     -12.299   9.318  71.370  1.00  0.00    -0.421 A  
HETATM    9  C   UNL     1     -11.353   9.477  70.349  1.00  0.00    -0.318 A  
HETATM   10  C   UNL     1     -11.097  10.745  69.820  1.00  0.00    -0.346 A  
HETATM   11  C   UNL     1     -11.787  11.848  70.318  1.00  0.00    -0.281 A  
HETATM   12  C   UNL     1     -12.725  11.705  71.333  1.00  0.00    -0.445 A  
HETATM   13  O   UNL     1     -11.578  13.101  69.825  1.00  0.00    -0.398 OA 
HETATM   14  C   UNL     1     -12.980  10.441  71.867  1.00  0.00    -0.555 A  
HETATM   15  H   UNL     1     -12.049  13.853  70.164  1.00  0.00     0.000 HD 
ENDBRANCH   6   8
ENDBRANCH   5   6
ENDBRANCH   4   5
ENDBRANCH   3   4
ENDBRANCH   2   3
TORSDOF 5
ENDMDL
MODEL      123
REMARK 921   NORMALIZED FREE ENERGY PREDICTED BY IDOCK:   -3.47 KCAL/MOL
REMARK 922        TOTAL FREE ENERGY PREDICTED BY IDOCK:   -4.78 KCAL/MOL
REMARK 923 INTER-LIGAND FREE ENERGY PREDICTED BY IDOCK:   -4.29 KCAL/MOL
REMARK 924 INTRA-LIGAND FREE ENERGY PREDICTED BY IDOCK:   -0.49 KCAL/MOL
REMARK 927      BINDING AFFINITY PREDICTED BY RF-SCORE:    0.00 PKD
ROOT
HETATM    1  C   UNL     1      -7.932   8.984  71.047  1.00  0.00    -0.186 C  
HETATM    2  C   UNL     1      -9.143   9.364  70.219  1.00  0.00    -0.283 C  
ENDROOT
BRANCH   2   3
HETATM    3  C   UNL     1      -8.895   9.221  68.718  1.00  0.00    -0.132 C  
BRANCH   3   4
HETATM    4  C   UNL     1     -10.129   8.624  68.060  1.00  0.00    -0.196 C  
BRANCH   4   5
HETATM    5  O   UNL     1     -11.135   9.610  67.815  1.00  0.00    -0.219 OA 
BRANCH   5   6
HETATM    6  C   UNL     1     -10.758  10.593  66.964  1.00  0.00    -0.259 C  
HETATM    7  O   UNL     1     -10.352  10.440  65.821  1.00  0.00    -0.248 OA 
BRANCH   6   8
HETATM    8  C   UNL     1     -11.102  11.913  67.561  1.00  0.00    -0.332 A  
HETATM    9  C   UNL     1     -11.473  12.954  66.701  1.00  0.00    -0.393 A  
HETATM   10  C   UNL     1     -11.931  14.167  67.222  1.00  0.00    -0.449 A  
HETATM   11  C   UNL     1     -12.012  14.333  68.602  1.00  0.00    -0.313 A  
HETATM   12  C   UNL     1     -11.643  13.310  69.468  1.00  0.00    -0.349 A  
HETATM   13  O   UNL     1     -12.462  15.494  69.155  1.00  0.00    -0.609 OA 
HETATM   14  C   UNL     1     -11.182  12.099  68.950  1.00  0.00    -0.320 A  
HETATM   15  H   UNL     1     -12.518  15.607  70.097  1.00  0.00     0.000 HD 
ENDBRANCH   6   8
ENDBRANCH   5   6
ENDBRANCH   4   5
ENDBRANCH   3   4
ENDBRANCH   2   3
TORSDOF 5
ENDMDL
MODEL      124
REMARK 921   NORMALIZED FREE ENERGY PREDICTED BY IDOCK:   -3.46 KCAL/MOL
REMARK 922        TOTAL FREE ENERGY PREDICTED BY IDOCK:   -4.77 KCAL/MOL
REMARK 923 INTER-LIGAND FREE ENERGY PREDICTED BY IDOCK:   -5.01 KCAL/MOL
REMARK 924 INTRA-LIGAND FREE ENERGY PREDICTED BY IDOCK:    0.24 KCAL/MOL
REMARK 927      BINDING AFFINITY PREDICTED BY RF-SCORE:    0.00 PKD
ROOT
HETATM    1  C   UNL     1     -12.534  11.983  63.479  1.00  0.00    -0.654 C  
HETATM    2  C   UNL     1     -12.068  12.483  64.832  1.00  0.00    -0.499 C  
ENDROOT
BRANCH   2   3
HETATM    3  C   UNL     1     -12.485  13.929  65.099  1.00  0.00    -0.479 C  
BRANCH   3   4
HETATM    4  C   UNL     1     -11.329  14.673  65.747  1.00  0.00    -0.340 C  
BRANCH   4   5
HETATM    5  O   UNL     1     -10.135  13.888  65.774  1.00  0.00    -0.307 OA 
BRANCH   5   6
HETATM    6  C   UNL     1      -9.418  14.000  66.918  1.00  0.00    -0.265 C  
HETATM    7  O   UNL     1      -8.200  14.059  67.001  1.00  0.00    -0.158 OA 
BRANCH   6   8
HETATM    8  C   UNL     1     -10.348  14.241  68.054  1.00  0.00    -0.229 A  
HETATM    9  C   UNL     1     -10.595  15.565  68.441  1.00  0.00    -0.252 A  
HETATM   10  C   UNL     1     -11.559  15.845  69.412  1.00  0.00    -0.352 A  
HETATM   11  C   UNL     1     -12.270  14.799  69.994  1.00  0.00    -0.333 A  
HETATM   12  C   UNL     1     -12.032  13.480  69.625  1.00  0.00    -0.397 A  
HETATM   13  O   UNL     1     -13.227  15.025  70.938  1.00  0.00    -0.444 OA 
HETATM   14  C   UNL     1     -11.067  13.197  68.658  1.00  0.00    -0.304 A  
HETATM   15  H   UNL     1     -13.712  14.311  71.334  1.00  0.00     0.000 HD 
ENDBRANCH   6   8
ENDBRANCH   5   6
ENDBRANCH   4   5
ENDBRANCH   3   4
ENDBRANCH   2   3
TORSDOF 5
ENDMDL
MODEL      125
REMARK 921   NORMALIZED FREE ENERGY PREDICTED BY IDOCK:   -3.42 KCAL/MOL
REMARK 922        TOTAL FREE ENERGY PREDICTED BY IDOCK:   -4.73 KCAL/MOL
REMARK 923 INTER-LIGAND FREE ENERGY PREDICTED BY IDOCK:   -4.33 KCAL/MOL
REMARK 924 INTRA-LIGAND FREE ENERGY PREDICTED BY IDOCK:   -0.39 KCAL/MOL
REMARK 927      BINDING AFFINITY PREDICTED BY RF-SCORE:    0.00 PKD
ROOT
HETATM    1  C   UNL     1     -10.368  10.154  66.844  1.00  0.00    -0.298 C  
HETATM    2  C   UNL     1      -9.128  10.694  66.159  1.00  0.00    -0.190 C  
ENDROOT
BRANCH   2   3
HETATM    3  C   UNL     1      -8.791  12.119  66.592  1.00  0.00    -0.182 C  
BRANCH   3   4
HETATM    4  C   UNL     1      -9.906  13.055  66.150  1.00  0.00    -0.273 C  
BRANCH   4   5
HETATM    5  O   UNL     1     -10.355  13.894  67.217  1.00  0.00    -0.254 OA 
BRANCH   5   6
HETATM    6  C   UNL     1     -11.657  13.727  67.550  1.00  0.00    -0.354 C  
HETATM    7  O   UNL     1     -12.488  13.098  66.912  1.00  0.00    -0.279 OA 
BRANCH   6   8
HETATM    8  C   UNL     1     -11.881  14.261  68.921  1.00  0.00    -0.372 A  
HETATM    9  C   UNL     1     -12.181  13.355  69.946  1.00  0.00    -0.337 A  
HETATM   10  C   UNL     1     -12.269  13.794  71.269  1.00  0.00    -0.314 A  
HETATM   11  C   UNL     1     -12.059  15.140  71.560  1.00  0.00    -0.345 A  
HETATM   12  C   UNL     1     -11.766  16.051  70.553  1.00  0.00    -0.350 A  
HETATM   13  O   UNL     1     -12.124  15.611  72.837  1.00  0.00    -0.396 OA 
HETATM   14  C   UNL     1     -11.681  15.616  69.229  1.00  0.00    -0.388 A  
HETATM   15  H   UNL     1     -11.980  16.529  73.035  1.00  0.00     0.000 HD 
ENDBRANCH   6   8
ENDBRANCH   5   6
ENDBRANCH   4   5
ENDBRANCH   3   4
ENDBRANCH   2   3
TORSDOF 5
ENDMDL
MODEL      126
REMARK 921   NORMALIZED FREE ENERGY PREDICTED BY IDOCK:   -3.42 KCAL/MOL
REMARK 922        TOTAL FREE ENERGY PREDICTED BY IDOCK:   -4.72 KCAL/MOL
REMARK 923 INTER-LIGAND FREE ENERGY PREDICTED BY IDOCK:   -4.20 KCAL/MOL
REMARK 924 INTRA-LIGAND FREE ENERGY PREDICTED BY IDOCK:   -0.52 KCAL/MOL
REMARK 927      BINDING AFFINITY PREDICTED BY RF-SCORE:    0.00 PKD
ROOT
HETATM    1  C   UNL     1     -10.591   5.610  66.704  1.00  0.00    -0.361 C  
HETATM    2  C   UNL     1     -10.038   6.092  68.031  1.00  0.00    -0.178 C  
ENDROOT
BRANCH   2   3
HETATM    3  C   UNL     1     -11.134   6.558  68.989  1.00  0.00    -0.375 C  
BRANCH   3   4
HETATM    4  C   UNL     1     -10.707   7.862  69.643  1.00  0.00    -0.218 C  
BRANCH   4   5
HETATM    5  O   UNL     1     -10.231   8.811  68.686  1.00  0.00    -0.186 OA 
BRANCH   5   6
HETATM    6  C   UNL     1     -11.005   9.915  68.560  1.00  0.00    -0.180 C  
HETATM    7  O   UNL     1     -11.638  10.456  69.454  1.00  0.00    -0.245 OA 
BRANCH   6   8
HETATM    8  C   UNL     1     -10.812  10.492  67.201  1.00  0.00    -0.319 A  
HETATM    9  C   UNL     1     -11.088  11.853  67.013  1.00  0.00    -0.354 A  
HETATM   10  C   UNL     1     -10.798  12.466  65.792  1.00  0.00    -0.312 A  
HETATM   11  C   UNL     1     -10.234  11.714  64.764  1.00  0.00    -0.275 A  
HETATM   12  C   UNL     1      -9.959  10.363  64.935  1.00  0.00    -0.409 A  
HETATM   13  O   UNL     1      -9.924  12.273  63.561  1.00  0.00    -0.512 OA 
HETATM   14  C   UNL     1     -10.253   9.746  66.152  1.00  0.00    -0.278 A  
HETATM   15  H   UNL     1      -9.539  11.760  62.860  1.00  0.00     0.000 HD 
ENDBRANCH   6   8
ENDBRANCH   5   6
ENDBRANCH   4   5
ENDBRANCH   3   4
ENDBRANCH   2   3
TORSDOF 5
ENDMDL
MODEL      127
REMARK 921   NORMALIZED FREE ENERGY PREDICTED BY IDOCK:   -3.40 KCAL/MOL
REMARK 922        TOTAL FREE ENERGY PREDICTED BY IDOCK:   -4.70 KCAL/MOL
REMARK 923 INTER-LIGAND FREE ENERGY PREDICTED BY IDOCK:   -4.22 KCAL/MOL
REMARK 924 INTRA-LIGAND FREE ENERGY PREDICTED BY IDOCK:   -0.48 KCAL/MOL
REMARK 927      BINDING AFFINITY PREDICTED BY RF-SCORE:    0.00 PKD
ROOT
HETATM    1  C   UNL     1     -11.111  10.018  67.725  1.00  0.00    -0.246 C  
HETATM    2  C   UNL     1      -9.609  10.046  67.926  1.00  0.00    -0.163 C  
ENDROOT
BRANCH   2   3
HETATM    3  C   UNL     1      -9.166  11.150  68.885  1.00  0.00    -0.106 C  
BRANCH   3   4
HETATM    4  C   UNL     1      -7.897  11.796  68.353  1.00  0.00    -0.141 C  
BRANCH   4   5
HETATM    5  O   UNL     1      -8.178  12.925  67.522  1.00  0.00    -0.161 OA 
BRANCH   5   6
HETATM    6  C   UNL     1      -9.045  13.815  68.062  1.00  0.00    -0.191 C  
HETATM    7  O   UNL     1      -8.943  14.342  69.160  1.00  0.00    -0.055 OA 
BRANCH   6   8
HETATM    8  C   UNL     1     -10.043  14.209  67.031  1.00  0.00    -0.261 A  
HETATM    9  C   UNL     1      -9.732  15.277  66.179  1.00  0.00    -0.343 A  
HETATM   10  C   UNL     1     -10.578  15.597  65.115  1.00  0.00    -0.449 A  
HETATM   11  C   UNL     1     -11.734  14.848  64.909  1.00  0.00    -0.371 A  
HETATM   12  C   UNL     1     -12.058  13.789  65.749  1.00  0.00    -0.458 A  
HETATM   13  O   UNL     1     -12.583  15.116  63.878  1.00  0.00    -0.947 OA 
HETATM   14  C   UNL     1     -11.217  13.470  66.816  1.00  0.00    -0.327 A  
HETATM   15  H   UNL     1     -13.371  14.605  63.737  1.00  0.00     0.000 HD 
ENDBRANCH   6   8
ENDBRANCH   5   6
ENDBRANCH   4   5
ENDBRANCH   3   4
ENDBRANCH   2   3
TORSDOF 5
ENDMDL
MODEL      128
REMARK 921   NORMALIZED FREE ENERGY PREDICTED BY IDOCK:   -3.40 KCAL/MOL
REMARK 922        TOTAL FREE ENERGY PREDICTED BY IDOCK:   -4.70 KCAL/MOL
REMARK 923 INTER-LIGAND FREE ENERGY PREDICTED BY IDOCK:   -4.08 KCAL/MOL
REMARK 924 INTRA-LIGAND FREE ENERGY PREDICTED BY IDOCK:   -0.61 KCAL/MOL
REMARK 927      BINDING AFFINITY PREDICTED BY RF-SCORE:    0.00 PKD
ROOT
HETATM    1  C   UNL     1      -7.612  13.285  67.691  1.00  0.00    -0.171 C  
HETATM    2  C   UNL     1      -7.246  14.213  68.833  1.00  0.00    -0.118 C  
ENDROOT
BRANCH   2   3
HETATM    3  C   UNL     1      -8.437  15.032  69.328  1.00  0.00    -0.167 C  
BRANCH   3   4
HETATM    4  C   UNL     1      -9.667  14.675  68.508  1.00  0.00    -0.225 C  
BRANCH   4   5
HETATM    5  O   UNL     1     -10.368  15.837  68.061  1.00  0.00    -0.242 OA 
BRANCH   5   6
HETATM    6  C   UNL     1     -10.368  16.008  66.718  1.00  0.00    -0.300 C  
HETATM    7  O   UNL     1     -11.054  15.394  65.914  1.00  0.00    -0.321 OA 
BRANCH   6   8
HETATM    8  C   UNL     1      -9.546  17.202  66.378  1.00  0.00    -0.296 A  
HETATM    9  C   UNL     1     -10.179  18.451  66.327  1.00  0.00    -0.427 A  
HETATM   10  C   UNL     1      -9.425  19.613  66.142  1.00  0.00    -0.441 A  
HETATM   11  C   UNL     1      -8.042  19.519  66.008  1.00  0.00    -0.291 A  
HETATM   12  C   UNL     1      -7.402  18.287  66.053  1.00  0.00    -0.281 A  
HETATM   13  O   UNL     1      -7.266  20.626  65.838  1.00  0.00    -0.479 OA 
HETATM   14  C   UNL     1      -8.152  17.123  66.232  1.00  0.00    -0.325 A  
HETATM   15  H   UNL     1      -6.323  20.562  65.747  1.00  0.00     0.000 HD 
ENDBRANCH   6   8
ENDBRANCH   5   6
ENDBRANCH   4   5
ENDBRANCH   3   4
ENDBRANCH   2   3
TORSDOF 5
ENDMDL
MODEL      129
REMARK 921   NORMALIZED FREE ENERGY PREDICTED BY IDOCK:   -3.39 KCAL/MOL
REMARK 922        TOTAL FREE ENERGY PREDICTED BY IDOCK:   -4.68 KCAL/MOL
REMARK 923 INTER-LIGAND FREE ENERGY PREDICTED BY IDOCK:   -4.39 KCAL/MOL
REMARK 924 INTRA-LIGAND FREE ENERGY PREDICTED BY IDOCK:   -0.30 KCAL/MOL
REMARK 927      BINDING AFFINITY PREDICTED BY RF-SCORE:    0.00 PKD
ROOT
HETATM    1  C   UNL     1      -8.577   9.807  70.164  1.00  0.00    -0.214 C  
HETATM    2  C   UNL     1      -9.568  10.705  69.450  1.00  0.00    -0.120 C  
ENDROOT
BRANCH   2   3
HETATM    3  C   UNL     1     -10.994  10.539  69.975  1.00  0.00    -0.351 C  
BRANCH   3   4
HETATM    4  C   UNL     1     -11.945  11.351  69.111  1.00  0.00    -0.328 C  
BRANCH   4   5
HETATM    5  O   UNL     1     -11.327  12.535  68.601  1.00  0.00    -0.244 OA 
BRANCH   5   6
HETATM    6  C   UNL     1     -11.970  13.683  68.919  1.00  0.00    -0.356 C  
HETATM    7  O   UNL     1     -12.696  13.858  69.887  1.00  0.00    -0.212 OA 
BRANCH   6   8
HETATM    8  C   UNL     1     -11.502  14.770  68.015  1.00  0.00    -0.351 A  
HETATM    9  C   UNL     1     -11.023  15.953  68.593  1.00  0.00    -0.320 A  
HETATM   10  C   UNL     1     -10.453  16.945  67.791  1.00  0.00    -0.340 A  
HETATM   11  C   UNL     1     -10.366  16.749  66.415  1.00  0.00    -0.306 A  
HETATM   12  C   UNL     1     -10.842  15.583  65.828  1.00  0.00    -0.337 A  
HETATM   13  O   UNL     1      -9.808  17.684  65.596  1.00  0.00    -0.536 OA 
HETATM   14  C   UNL     1     -11.417  14.592  66.625  1.00  0.00    -0.373 A  
HETATM   15  H   UNL     1      -9.749  17.550  64.658  1.00  0.00     0.000 HD 
ENDBRANCH   6   8
ENDBRANCH   5   6
ENDBRANCH   4   5
ENDBRANCH   3   4
ENDBRANCH   2   3
TORSDOF 5
ENDMDL
MODEL      130
REMARK 921   NORMALIZED FREE ENERGY PREDICTED BY IDOCK:   -3.39 KCAL/MOL
REMARK 922        TOTAL FREE ENERGY PREDICTED BY IDOCK:   -4.68 KCAL/MOL
REMARK 923 INTER-LIGAND FREE ENERGY PREDICTED BY IDOCK:   -4.47 KCAL/MOL
REMARK 924 INTRA-LIGAND FREE ENERGY PREDICTED BY IDOCK:   -0.21 KCAL/MOL
REMARK 927      BINDING AFFINITY PREDICTED BY RF-SCORE:    0.00 PKD
ROOT
HETATM    1  C   UNL     1      -9.964   6.071  74.487  1.00  0.00    -0.321 C  
HETATM    2  C   UNL     1     -10.549   4.709  74.167  1.00  0.00    -0.348 C  
ENDROOT
BRANCH   2   3
HETATM    3  C   UNL     1     -10.694   4.471  72.665  1.00  0.00    -0.229 C  
BRANCH   3   4
HETATM    4  C   UNL     1     -10.309   5.738  71.917  1.00  0.00    -0.214 C  
BRANCH   4   5
HETATM    5  O   UNL     1     -11.277   6.088  70.925  1.00  0.00    -0.299 OA 
BRANCH   5   6
HETATM    6  C   UNL     1     -12.266   6.899  71.370  1.00  0.00    -0.372 C  
HETATM    7  O   UNL     1     -13.209   6.565  72.072  1.00  0.00    -0.179 OA 
BRANCH   6   8
HETATM    8  C   UNL     1     -11.926   8.309  71.037  1.00  0.00    -0.260 A  
HETATM    9  C   UNL     1     -10.862   8.545  70.157  1.00  0.00    -0.238 A  
HETATM   10  C   UNL     1     -10.591   9.843  69.714  1.00  0.00    -0.296 A  
HETATM   11  C   UNL     1     -11.386  10.898  70.156  1.00  0.00    -0.284 A  
HETATM   12  C   UNL     1     -12.441  10.679  71.033  1.00  0.00    -0.515 A  
HETATM   13  O   UNL     1     -11.166  12.177  69.742  1.00  0.00    -0.469 OA 
HETATM   14  C   UNL     1     -12.712   9.385  71.481  1.00  0.00    -0.444 A  
HETATM   15  H   UNL     1     -11.708  12.896  70.043  1.00  0.00     0.000 HD 
ENDBRANCH   6   8
ENDBRANCH   5   6
ENDBRANCH   4   5
ENDBRANCH   3   4
ENDBRANCH   2   3
TORSDOF 5
ENDMDL
MODEL      131
REMARK 921   NORMALIZED FREE ENERGY PREDICTED BY IDOCK:   -3.38 KCAL/MOL
REMARK 922        TOTAL FREE ENERGY PREDICTED BY IDOCK:   -4.67 KCAL/MOL
REMARK 923 INTER-LIGAND FREE ENERGY PREDICTED BY IDOCK:   -4.43 KCAL/MOL
REMARK 924 INTRA-LIGAND FREE ENERGY PREDICTED BY IDOCK:   -0.24 KCAL/MOL
REMARK 927      BINDING AFFINITY PREDICTED BY RF-SCORE:    0.00 PKD
ROOT
HETATM    1  C   UNL     1     -12.873  12.167  71.601  1.00  0.00    -0.390 C  
HETATM    2  C   UNL     1     -12.258  12.210  70.216  1.00  0.00    -0.344 C  
ENDROOT
BRANCH   2   3
HETATM    3  C   UNL     1     -11.769  13.606  69.834  1.00  0.00    -0.346 C  
BRANCH   3   4
HETATM    4  C   UNL     1     -12.012  13.835  68.351  1.00  0.00    -0.360 C  
BRANCH   4   5
HETATM    5  O   UNL     1     -10.849  13.556  67.569  1.00  0.00    -0.259 OA 
BRANCH   5   6
HETATM    6  C   UNL     1      -9.735  14.214  67.967  1.00  0.00    -0.226 C  
HETATM    7  O   UNL     1      -8.708  13.703  68.390  1.00  0.00    -0.176 OA 
BRANCH   6   8
HETATM    8  C   UNL     1      -9.875  15.657  67.628  1.00  0.00    -0.227 A  
HETATM    9  C   UNL     1     -10.149  16.002  66.298  1.00  0.00    -0.329 A  
HETATM   10  C   UNL     1     -10.418  17.330  65.958  1.00  0.00    -0.285 A  
HETATM   11  C   UNL     1     -10.409  18.307  66.950  1.00  0.00    -0.385 A  
HETATM   12  C   UNL     1     -10.134  17.980  68.272  1.00  0.00    -0.390 A  
HETATM   13  O   UNL     1     -10.677  19.613  66.667  1.00  0.00    -0.465 OA 
HETATM   14  C   UNL     1      -9.860  16.655  68.615  1.00  0.00    -0.252 A  
HETATM   15  H   UNL     1     -10.671  20.279  67.344  1.00  0.00     0.000 HD 
ENDBRANCH   6   8
ENDBRANCH   5   6
ENDBRANCH   4   5
ENDBRANCH   3   4
ENDBRANCH   2   3
TORSDOF 5
ENDMDL
MODEL      132
REMARK 921   NORMALIZED FREE ENERGY PREDICTED BY IDOCK:   -3.34 KCAL/MOL
REMARK 922        TOTAL FREE ENERGY PREDICTED BY IDOCK:   -4.62 KCAL/MOL
REMARK 923 INTER-LIGAND FREE ENERGY PREDICTED BY IDOCK:   -4.05 KCAL/MOL
REMARK 924 INTRA-LIGAND FREE ENERGY PREDICTED BY IDOCK:   -0.57 KCAL/MOL
REMARK 927      BINDING AFFINITY PREDICTED BY RF-SCORE:    0.00 PKD
ROOT
HETATM    1  C   UNL     1      -9.396  14.866  67.845  1.00  0.00    -0.191 C  
HETATM    2  C   UNL     1     -10.634  14.665  68.698  1.00  0.00    -0.252 C  
ENDROOT
BRANCH   2   3
HETATM    3  C   UNL     1     -11.909  14.554  67.863  1.00  0.00    -0.370 C  
BRANCH   3   4
HETATM    4  C   UNL     1     -11.592  13.850  66.554  1.00  0.00    -0.369 C  
BRANCH   4   5
HETATM    5  O   UNL     1     -12.252  12.586  66.453  1.00  0.00    -0.584 OA 
BRANCH   5   6
HETATM    6  C   UNL     1     -11.652  11.585  67.140  1.00  0.00    -0.167 C  
HETATM    7  O   UNL     1     -12.097  11.022  68.129  1.00  0.00    -0.610 OA 
BRANCH   6   8
HETATM    8  C   UNL     1     -10.448  11.133  66.389  1.00  0.00    -0.311 A  
HETATM    9  C   UNL     1      -9.283  10.848  67.113  1.00  0.00    -0.159 A  
HETATM   10  C   UNL     1      -8.172  10.297  66.468  1.00  0.00    -0.127 A  
HETATM   11  C   UNL     1      -8.233  10.035  65.102  1.00  0.00    -0.146 A  
HETATM   12  C   UNL     1      -9.381  10.316  64.370  1.00  0.00    -0.329 A  
HETATM   13  O   UNL     1      -7.179   9.488  64.434  1.00  0.00    -0.102 OA 
HETATM   14  C   UNL     1     -10.490  10.872  65.010  1.00  0.00    -0.331 A  
HETATM   15  H   UNL     1      -7.221   9.308  63.502  1.00  0.00     0.000 HD 
ENDBRANCH   6   8
ENDBRANCH   5   6
ENDBRANCH   4   5
ENDBRANCH   3   4
ENDBRANCH   2   3
TORSDOF 5
ENDMDL
MODEL      133
REMARK 921   NORMALIZED FREE ENERGY PREDICTED BY IDOCK:   -3.34 KCAL/MOL
REMARK 922        TOTAL FREE ENERGY PREDICTED BY IDOCK:   -4.61 KCAL/MOL
REMARK 923 INTER-LIGAND FREE ENERGY PREDICTED BY IDOCK:   -4.30 KCAL/MOL
REMARK 924 INTRA-LIGAND FREE ENERGY PREDICTED BY IDOCK:   -0.32 KCAL/MOL
REMARK 927      BINDING AFFINITY PREDICTED BY RF-SCORE:    0.00 PKD
ROOT
HETATM    1  C   UNL     1     -10.263   2.494  72.340  1.00  0.00    -0.218 C  
HETATM    2  C   UNL     1     -10.284   3.688  73.274  1.00  0.00    -0.223 C  
ENDROOT
BRANCH   2   3
HETATM    3  C   UNL     1     -10.334   5.018  72.523  1.00  0.00    -0.255 C  
BRANCH   3   4
HETATM    4  C   UNL     1      -9.039   5.777  72.761  1.00  0.00    -0.133 C  
BRANCH   4   5
HETATM    5  O   UNL     1      -8.917   6.911  71.899  1.00  0.00    -0.137 OA 
BRANCH   5   6
HETATM    6  C   UNL     1      -9.151   8.101  72.503  1.00  0.00    -0.235 C  
HETATM    7  O   UNL     1      -8.596   8.519  73.508  1.00  0.00    -0.341 OA 
BRANCH   6   8
HETATM    8  C   UNL     1     -10.051   8.916  71.641  1.00  0.00    -0.411 A  
HETATM    9  C   UNL     1      -9.514   9.498  70.485  1.00  0.00    -0.306 A  
HETATM   10  C   UNL     1     -10.348  10.159  69.580  1.00  0.00    -0.278 A  
HETATM   11  C   UNL     1     -11.715  10.237  69.838  1.00  0.00    -0.225 A  
HETATM   12  C   UNL     1     -12.260   9.669  70.982  1.00  0.00    -0.409 A  
HETATM   13  O   UNL     1     -12.567  10.862  68.978  1.00  0.00    -0.683 OA 
HETATM   14  C   UNL     1     -11.429   9.011  71.891  1.00  0.00    -0.440 A  
HETATM   15  H   UNL     1     -13.499  10.915  69.153  1.00  0.00     0.000 HD 
ENDBRANCH   6   8
ENDBRANCH   5   6
ENDBRANCH   4   5
ENDBRANCH   3   4
ENDBRANCH   2   3
TORSDOF 5
ENDMDL
MODEL      134
REMARK 921   NORMALIZED FREE ENERGY PREDICTED BY IDOCK:   -3.30 KCAL/MOL
REMARK 922        TOTAL FREE ENERGY PREDICTED BY IDOCK:   -4.56 KCAL/MOL
REMARK 923 INTER-LIGAND FREE ENERGY PREDICTED BY IDOCK:   -4.01 KCAL/MOL
REMARK 924 INTRA-LIGAND FREE ENERGY PREDICTED BY IDOCK:   -0.55 KCAL/MOL
REMARK 927      BINDING AFFINITY PREDICTED BY RF-SCORE:    0.00 PKD
ROOT
HETATM    1  C   UNL     1      -7.304  13.559  68.111  1.00  0.00    -0.121 C  
HETATM    2  C   UNL     1      -7.986  12.220  68.310  1.00  0.00    -0.163 C  
ENDROOT
BRANCH   2   3
HETATM    3  C   UNL     1      -8.395  11.569  66.990  1.00  0.00    -0.165 C  
BRANCH   3   4
HETATM    4  C   UNL     1      -8.279  10.058  67.118  1.00  0.00    -0.117 C  
BRANCH   4   5
HETATM    5  O   UNL     1      -8.873   9.576  68.325  1.00  0.00    -0.124 OA 
BRANCH   5   6
HETATM    6  C   UNL     1     -10.179   9.238  68.210  1.00  0.00    -0.201 C  
HETATM    7  O   UNL     1     -10.650   8.452  67.402  1.00  0.00    -0.281 OA 
BRANCH   6   8
HETATM    8  C   UNL     1     -10.936   9.821  69.352  1.00  0.00    -0.241 A  
HETATM    9  C   UNL     1     -11.427  11.127  69.224  1.00  0.00    -0.363 A  
HETATM   10  C   UNL     1     -12.253  11.666  70.214  1.00  0.00    -0.401 A  
HETATM   11  C   UNL     1     -12.582  10.896  71.327  1.00  0.00    -0.421 A  
HETATM   12  C   UNL     1     -12.098   9.602  71.469  1.00  0.00    -0.482 A  
HETATM   13  O   UNL     1     -13.393  11.377  72.311  1.00  0.00    -0.629 OA 
HETATM   14  C   UNL     1     -11.268   9.061  70.484  1.00  0.00    -0.301 A  
HETATM   15  H   UNL     1     -13.617  10.851  73.070  1.00  0.00     0.000 HD 
ENDBRANCH   6   8
ENDBRANCH   5   6
ENDBRANCH   4   5
ENDBRANCH   3   4
ENDBRANCH   2   3
TORSDOF 5
ENDMDL
MODEL      135
REMARK 921   NORMALIZED FREE ENERGY PREDICTED BY IDOCK:   -3.30 KCAL/MOL
REMARK 922        TOTAL FREE ENERGY PREDICTED BY IDOCK:   -4.56 KCAL/MOL
REMARK 923 INTER-LIGAND FREE ENERGY PREDICTED BY IDOCK:   -4.15 KCAL/MOL
REMARK 924 INTRA-LIGAND FREE ENERGY PREDICTED BY IDOCK:   -0.42 KCAL/MOL
REMARK 927      BINDING AFFINITY PREDICTED BY RF-SCORE:    0.00 PKD
ROOT
HETATM    1  C   UNL     1      -9.770   6.591  66.699  1.00  0.00    -0.201 C  
HETATM    2  C   UNL     1     -10.599   7.817  67.028  1.00  0.00    -0.396 C  
ENDROOT
BRANCH   2   3
HETATM    3  C   UNL     1     -10.080   9.077  66.336  1.00  0.00    -0.351 C  
BRANCH   3   4
HETATM    4  C   UNL     1      -8.899   9.629  67.117  1.00  0.00    -0.132 C  
BRANCH   4   5
HETATM    5  O   UNL     1      -8.511  10.925  66.656  1.00  0.00    -0.140 OA 
BRANCH   5   6
HETATM    6  C   UNL     1      -8.874  11.941  67.475  1.00  0.00    -0.169 C  
HETATM    7  O   UNL     1      -8.263  12.324  68.461  1.00  0.00    -0.153 OA 
BRANCH   6   8
HETATM    8  C   UNL     1     -10.034  12.657  66.877  1.00  0.00    -0.232 A  
HETATM    9  C   UNL     1     -10.067  12.823  65.486  1.00  0.00    -0.278 A  
HETATM   10  C   UNL     1     -11.195  13.371  64.871  1.00  0.00    -0.347 A  
HETATM   11  C   UNL     1     -12.285  13.751  65.650  1.00  0.00    -0.454 A  
HETATM   12  C   UNL     1     -12.265  13.596  67.031  1.00  0.00    -0.373 A  
HETATM   13  O   UNL     1     -13.411  14.278  65.092  1.00  0.00    -0.626 OA 
HETATM   14  C   UNL     1     -11.137  13.054  67.650  1.00  0.00    -0.296 A  
HETATM   15  H   UNL     1     -14.154  14.537  65.623  1.00  0.00     0.000 HD 
ENDBRANCH   6   8
ENDBRANCH   5   6
ENDBRANCH   4   5
ENDBRANCH   3   4
ENDBRANCH   2   3
TORSDOF 5
ENDMDL
MODEL      136
REMARK 921   NORMALIZED FREE ENERGY PREDICTED BY IDOCK:   -3.29 KCAL/MOL
REMARK 922        TOTAL FREE ENERGY PREDICTED BY IDOCK:   -4.56 KCAL/MOL
REMARK 923 INTER-LIGAND FREE ENERGY PREDICTED BY IDOCK:   -4.17 KCAL/MOL
REMARK 924 INTRA-LIGAND FREE ENERGY PREDICTED BY IDOCK:   -0.38 KCAL/MOL
REMARK 927      BINDING AFFINITY PREDICTED BY RF-SCORE:    0.00 PKD
ROOT
HETATM    1  C   UNL     1      -9.416   9.948  64.526  1.00  0.00    -0.328 C  
HETATM    2  C   UNL     1      -9.937  10.215  65.924  1.00  0.00    -0.334 C  
ENDROOT
BRANCH   2   3
HETATM    3  C   UNL     1     -10.772  11.492  66.005  1.00  0.00    -0.332 C  
BRANCH   3   4
HETATM    4  C   UNL     1     -10.357  12.286  67.233  1.00  0.00    -0.214 C  
BRANCH   4   5
HETATM    5  O   UNL     1     -10.089  11.438  68.352  1.00  0.00    -0.188 OA 
BRANCH   5   6
HETATM    6  C   UNL     1     -11.127  11.298  69.210  1.00  0.00    -0.255 C  
HETATM    7  O   UNL     1     -12.207  11.866  69.132  1.00  0.00    -0.233 OA 
BRANCH   6   8
HETATM    8  C   UNL     1     -10.829  10.191  70.159  1.00  0.00    -0.368 A  
HETATM    9  C   UNL     1      -9.533   9.658  70.172  1.00  0.00    -0.298 A  
HETATM   10  C   UNL     1      -9.172   8.712  71.134  1.00  0.00    -0.269 A  
HETATM   11  C   UNL     1     -10.110   8.301  72.078  1.00  0.00    -0.261 A  
HETATM   12  C   UNL     1     -11.400   8.817  72.075  1.00  0.00    -0.441 A  
HETATM   13  O   UNL     1      -9.798   7.389  73.041  1.00  0.00    -0.187 OA 
HETATM   14  C   UNL     1     -11.766   9.760  71.112  1.00  0.00    -0.465 A  
HETATM   15  H   UNL     1     -10.438   7.109  73.685  1.00  0.00     0.000 HD 
ENDBRANCH   6   8
ENDBRANCH   5   6
ENDBRANCH   4   5
ENDBRANCH   3   4
ENDBRANCH   2   3
TORSDOF 5
ENDMDL
MODEL      137
REMARK 921   NORMALIZED FREE ENERGY PREDICTED BY IDOCK:   -3.29 KCAL/MOL
REMARK 922        TOTAL FREE ENERGY PREDICTED BY IDOCK:   -4.55 KCAL/MOL
REMARK 923 INTER-LIGAND FREE ENERGY PREDICTED BY IDOCK:   -4.98 KCAL/MOL
REMARK 924 INTRA-LIGAND FREE ENERGY PREDICTED BY IDOCK:    0.43 KCAL/MOL
REMARK 927      BINDING AFFINITY PREDICTED BY RF-SCORE:    0.00 PKD
ROOT
HETATM    1  C   UNL     1      -7.852  13.957  68.399  1.00  0.00    -0.138 C  
HETATM    2  C   UNL     1      -6.988  14.822  67.503  1.00  0.00    -0.198 C  
ENDROOT
BRANCH   2   3
HETATM    3  C   UNL     1      -7.792  15.901  66.778  1.00  0.00    -0.273 C  
BRANCH   3   4
HETATM    4  C   UNL     1      -9.275  15.588  66.900  1.00  0.00    -0.236 C  
BRANCH   4   5
HETATM    5  O   UNL     1     -10.070  16.438  66.070  1.00  0.00    -0.316 OA 
BRANCH   5   6
HETATM    6  C   UNL     1     -10.995  15.787  65.325  1.00  0.00    -0.344 C  
HETATM    7  O   UNL     1     -11.366  16.099  64.204  1.00  0.00    -0.657 OA 
BRANCH   6   8
HETATM    8  C   UNL     1     -11.353  14.509  66.001  1.00  0.00    -0.341 A  
HETATM    9  C   UNL     1     -11.158  13.311  65.302  1.00  0.00    -0.306 A  
HETATM   10  C   UNL     1     -11.355  12.085  65.941  1.00  0.00    -0.391 A  
HETATM   11  C   UNL     1     -11.748  12.063  67.277  1.00  0.00    -0.269 A  
HETATM   12  C   UNL     1     -11.949  13.243  67.982  1.00  0.00    -0.351 A  
HETATM   13  O   UNL     1     -11.940  10.890  67.944  1.00  0.00    -0.735 OA 
HETATM   14  C   UNL     1     -11.758  14.470  67.345  1.00  0.00    -0.425 A  
HETATM   15  H   UNL     1     -12.208  10.876  68.855  1.00  0.00     0.000 HD 
ENDBRANCH   6   8
ENDBRANCH   5   6
ENDBRANCH   4   5
ENDBRANCH   3   4
ENDBRANCH   2   3
TORSDOF 5
ENDMDL
MODEL      138
REMARK 921   NORMALIZED FREE ENERGY PREDICTED BY IDOCK:   -3.29 KCAL/MOL
REMARK 922        TOTAL FREE ENERGY PREDICTED BY IDOCK:   -4.55 KCAL/MOL
REMARK 923 INTER-LIGAND FREE ENERGY PREDICTED BY IDOCK:   -4.26 KCAL/MOL
REMARK 924 INTRA-LIGAND FREE ENERGY PREDICTED BY IDOCK:   -0.29 KCAL/MOL
REMARK 927      BINDING AFFINITY PREDICTED BY RF-SCORE:    0.00 PKD
ROOT
HETATM    1  C   UNL     1      -9.418   6.633  66.560  1.00  0.00    -0.192 C  
HETATM    2  C   UNL     1      -9.429   7.963  67.287  1.00  0.00    -0.188 C  
ENDROOT
BRANCH   2   3
HETATM    3  C   UNL     1      -9.094   9.136  66.367  1.00  0.00    -0.211 C  
BRANCH   3   4
HETATM    4  C   UNL     1     -10.272  10.096  66.327  1.00  0.00    -0.219 C  
BRANCH   4   5
HETATM    5  O   UNL     1     -10.607  10.586  67.628  1.00  0.00    -0.212 OA 
BRANCH   5   6
HETATM    6  C   UNL     1     -10.770  11.929  67.694  1.00  0.00    -0.215 C  
HETATM    7  O   UNL     1     -10.475  12.734  66.823  1.00  0.00    -0.240 OA 
BRANCH   6   8
HETATM    8  C   UNL     1     -11.552  12.264  68.916  1.00  0.00    -0.367 A  
HETATM    9  C   UNL     1     -12.058  11.212  69.690  1.00  0.00    -0.406 A  
HETATM   10  C   UNL     1     -12.682  11.476  70.912  1.00  0.00    -0.372 A  
HETATM   11  C   UNL     1     -12.799  12.792  71.352  1.00  0.00    -0.275 A  
HETATM   12  C   UNL     1     -12.307  13.846  70.592  1.00  0.00    -0.451 A  
HETATM   13  O   UNL     1     -13.391  13.095  72.541  1.00  0.00    -0.534 OA 
HETATM   14  C   UNL     1     -11.687  13.586  69.369  1.00  0.00    -0.381 A  
HETATM   15  H   UNL     1     -13.470  13.993  72.842  1.00  0.00     0.000 HD 
ENDBRANCH   6   8
ENDBRANCH   5   6
ENDBRANCH   4   5
ENDBRANCH   3   4
ENDBRANCH   2   3
TORSDOF 5
ENDMDL
MODEL      139
REMARK 921   NORMALIZED FREE ENERGY PREDICTED BY IDOCK:   -3.28 KCAL/MOL
REMARK 922        TOTAL FREE ENERGY PREDICTED BY IDOCK:   -4.54 KCAL/MOL
REMARK 923 INTER-LIGAND FREE ENERGY PREDICTED BY IDOCK:   -4.23 KCAL/MOL
REMARK 924 INTRA-LIGAND FREE ENERGY PREDICTED BY IDOCK:   -0.32 KCAL/MOL
REMARK 927      BINDING AFFINITY PREDICTED BY RF-SCORE:    0.00 PKD
ROOT
HETATM    1  C   UNL     1      -6.700  13.769  67.462  1.00  0.00    -0.131 C  
HETATM    2  C   UNL     1      -7.359  14.306  68.717  1.00  0.00    -0.131 C  
ENDROOT
BRANCH   2   3
HETATM    3  C   UNL     1      -8.816  14.705  68.490  1.00  0.00    -0.182 C  
BRANCH   3   4
HETATM    4  C   UNL     1      -9.382  13.901  67.330  1.00  0.00    -0.228 C  
BRANCH   4   5
HETATM    5  O   UNL     1      -9.801  12.596  67.739  1.00  0.00    -0.201 OA 
BRANCH   5   6
HETATM    6  C   UNL     1     -11.117  12.345  67.544  1.00  0.00    -0.266 C  
HETATM    7  O   UNL     1     -11.661  12.150  66.467  1.00  0.00    -0.495 OA 
BRANCH   6   8
HETATM    8  C   UNL     1     -11.775  12.144  68.864  1.00  0.00    -0.381 A  
HETATM    9  C   UNL     1     -12.036  10.832  69.283  1.00  0.00    -0.334 A  
HETATM   10  C   UNL     1     -12.530  10.590  70.567  1.00  0.00    -0.433 A  
HETATM   11  C   UNL     1     -12.762  11.661  71.426  1.00  0.00    -0.339 A  
HETATM   12  C   UNL     1     -12.512  12.967  71.023  1.00  0.00    -0.385 A  
HETATM   13  O   UNL     1     -13.232  11.472  72.690  1.00  0.00    -0.338 OA 
HETATM   14  C   UNL     1     -12.023  13.214  69.739  1.00  0.00    -0.382 A  
HETATM   15  H   UNL     1     -13.390  12.202  73.276  1.00  0.00     0.000 HD 
ENDBRANCH   6   8
ENDBRANCH   5   6
ENDBRANCH   4   5
ENDBRANCH   3   4
ENDBRANCH   2   3
TORSDOF 5
ENDMDL
MODEL      140
REMARK 921   NORMALIZED FREE ENERGY PREDICTED BY IDOCK:   -3.27 KCAL/MOL
REMARK 922        TOTAL FREE ENERGY PREDICTED BY IDOCK:   -4.53 KCAL/MOL
REMARK 923 INTER-LIGAND FREE ENERGY PREDICTED BY IDOCK:   -3.77 KCAL/MOL
REMARK 924 INTRA-LIGAND FREE ENERGY PREDICTED BY IDOCK:   -0.76 KCAL/MOL
REMARK 927      BINDING AFFINITY PREDICTED BY RF-SCORE:    0.00 PKD
ROOT
HETATM    1  C   UNL     1     -10.222   8.130  66.733  1.00  0.00    -0.372 C  
HETATM    2  C   UNL     1     -10.694   7.057  67.695  1.00  0.00    -0.331 C  
ENDROOT
BRANCH   2   3
HETATM    3  C   UNL     1      -9.536   6.281  68.320  1.00  0.00    -0.117 C  
BRANCH   3   4
HETATM    4  C   UNL     1      -8.804   7.178  69.306  1.00  0.00    -0.136 C  
BRANCH   4   5
HETATM    5  O   UNL     1      -9.703   7.822  70.212  1.00  0.00    -0.179 OA 
BRANCH   5   6
HETATM    6  C   UNL     1      -9.282   9.031  70.653  1.00  0.00    -0.231 C  
HETATM    7  O   UNL     1      -8.345   9.234  71.411  1.00  0.00    -0.323 OA 
BRANCH   6   8
HETATM    8  C   UNL     1     -10.012  10.099  69.917  1.00  0.00    -0.250 A  
HETATM    9  C   UNL     1     -11.324  10.396  70.307  1.00  0.00    -0.406 A  
HETATM   10  C   UNL     1     -12.000  11.477  69.734  1.00  0.00    -0.415 A  
HETATM   11  C   UNL     1     -11.359  12.254  68.772  1.00  0.00    -0.289 A  
HETATM   12  C   UNL     1     -10.059  11.968  68.373  1.00  0.00    -0.211 A  
HETATM   13  O   UNL     1     -11.975  13.323  68.195  1.00  0.00    -0.344 OA 
HETATM   14  C   UNL     1      -9.383  10.886  68.939  1.00  0.00    -0.169 A  
HETATM   15  H   UNL     1     -11.538  13.854  67.540  1.00  0.00     0.000 HD 
ENDBRANCH   6   8
ENDBRANCH   5   6
ENDBRANCH   4   5
ENDBRANCH   3   4
ENDBRANCH   2   3
TORSDOF 5
ENDMDL
MODEL      141
REMARK 921   NORMALIZED FREE ENERGY PREDICTED BY IDOCK:   -3.25 KCAL/MOL
REMARK 922        TOTAL FREE ENERGY PREDICTED BY IDOCK:   -4.50 KCAL/MOL
REMARK 923 INTER-LIGAND FREE ENERGY PREDICTED BY IDOCK:   -4.13 KCAL/MOL
REMARK 924 INTRA-LIGAND FREE ENERGY PREDICTED BY IDOCK:   -0.38 KCAL/MOL
REMARK 927      BINDING AFFINITY PREDICTED BY RF-SCORE:    0.00 PKD
ROOT
HETATM    1  C   UNL     1     -10.060  10.475  64.005  1.00  0.00    -0.321 C  
HETATM    2  C   UNL     1     -10.358  11.869  63.490  1.00  0.00    -0.495 C  
ENDROOT
BRANCH   2   3
HETATM    3  C   UNL     1     -11.807  12.286  63.732  1.00  0.00    -0.587 C  
BRANCH   3   4
HETATM    4  C   UNL     1     -11.854  13.316  64.850  1.00  0.00    -0.362 C  
BRANCH   4   5
HETATM    5  O   UNL     1     -12.416  12.778  66.049  1.00  0.00    -0.540 OA 
BRANCH   5   6
HETATM    6  C   UNL     1     -11.885  13.281  67.189  1.00  0.00    -0.374 C  
HETATM    7  O   UNL     1     -12.503  13.571  68.203  1.00  0.00    -0.062 OA 
BRANCH   6   8
HETATM    8  C   UNL     1     -10.400  13.242  67.094  1.00  0.00    -0.248 A  
HETATM    9  C   UNL     1      -9.721  14.436  66.819  1.00  0.00    -0.278 A  
HETATM   10  C   UNL     1      -8.325  14.474  66.851  1.00  0.00    -0.133 A  
HETATM   11  C   UNL     1      -7.615  13.315  67.156  1.00  0.00     0.030 A  
HETATM   12  C   UNL     1      -8.275  12.123  67.426  1.00  0.00    -0.175 A  
HETATM   13  O   UNL     1      -6.253  13.308  67.209  1.00  0.00    -0.395 OA 
HETATM   14  C   UNL     1      -9.669  12.081  67.391  1.00  0.00    -0.185 A  
HETATM   15  H   UNL     1      -5.769  12.518  67.418  1.00  0.00     0.000 HD 
ENDBRANCH   6   8
ENDBRANCH   5   6
ENDBRANCH   4   5
ENDBRANCH   3   4
ENDBRANCH   2   3
TORSDOF 5
ENDMDL
MODEL      142
REMARK 921   NORMALIZED FREE ENERGY PREDICTED BY IDOCK:   -3.24 KCAL/MOL
REMARK 922        TOTAL FREE ENERGY PREDICTED BY IDOCK:   -4.49 KCAL/MOL
REMARK 923 INTER-LIGAND FREE ENERGY PREDICTED BY IDOCK:   -4.15 KCAL/MOL
REMARK 924 INTRA-LIGAND FREE ENERGY PREDICTED BY IDOCK:   -0.34 KCAL/MOL
REMARK 927      BINDING AFFINITY PREDICTED BY RF-SCORE:    0.00 PKD
ROOT
HETATM    1  C   UNL     1     -12.444  11.875  70.879  1.00  0.00    -0.397 C  
HETATM    2  C   UNL     1     -12.888  10.553  71.473  1.00  0.00    -0.568 C  
ENDROOT
BRANCH   2   3
HETATM    3  C   UNL     1     -11.731   9.570  71.645  1.00  0.00    -0.460 C  
BRANCH   3   4
HETATM    4  C   UNL     1     -12.209   8.367  72.444  1.00  0.00    -0.367 C  
BRANCH   4   5
HETATM    5  O   UNL     1     -11.119   7.604  72.966  1.00  0.00    -0.387 OA 
BRANCH   5   6
HETATM    6  C   UNL     1     -11.133   6.296  72.615  1.00  0.00    -0.263 C  
HETATM    7  O   UNL     1     -11.786   5.414  73.151  1.00  0.00    -0.233 OA 
BRANCH   6   8
HETATM    8  C   UNL     1     -10.379   6.126  71.342  1.00  0.00    -0.260 A  
HETATM    9  C   UNL     1     -11.107   5.967  70.156  1.00  0.00    -0.395 A  
HETATM   10  C   UNL     1     -10.447   5.936  68.925  1.00  0.00    -0.325 A  
HETATM   11  C   UNL     1      -9.061   6.062  68.887  1.00  0.00    -0.121 A  
HETATM   12  C   UNL     1      -8.325   6.216  70.056  1.00  0.00    -0.125 A  
HETATM   13  O   UNL     1      -8.376   6.048  67.709  1.00  0.00    -0.112 OA 
HETATM   14  C   UNL     1      -8.981   6.243  71.288  1.00  0.00    -0.139 A  
HETATM   15  H   UNL     1      -7.430   6.135  67.684  1.00  0.00     0.000 HD 
ENDBRANCH   6   8
ENDBRANCH   5   6
ENDBRANCH   4   5
ENDBRANCH   3   4
ENDBRANCH   2   3
TORSDOF 5
ENDMDL
MODEL      143
REMARK 921   NORMALIZED FREE ENERGY PREDICTED BY IDOCK:   -3.22 KCAL/MOL
REMARK 922        TOTAL FREE ENERGY PREDICTED BY IDOCK:   -4.46 KCAL/MOL
REMARK 923 INTER-LIGAND FREE ENERGY PREDICTED BY IDOCK:   -3.97 KCAL/MOL
REMARK 924 INTRA-LIGAND FREE ENERGY PREDICTED BY IDOCK:   -0.49 KCAL/MOL
REMARK 927      BINDING AFFINITY PREDICTED BY RF-SCORE:    0.00 PKD
ROOT
HETATM    1  C   UNL     1     -11.499   4.813  73.155  1.00  0.00    -0.348 C  
HETATM    2  C   UNL     1     -10.243   5.584  72.799  1.00  0.00    -0.216 C  
ENDROOT
BRANCH   2   3
HETATM    3  C   UNL     1     -10.178   6.948  73.484  1.00  0.00    -0.345 C  
BRANCH   3   4
HETATM    4  C   UNL     1     -10.029   8.033  72.430  1.00  0.00    -0.251 C  
BRANCH   4   5
HETATM    5  O   UNL     1      -9.227   7.601  71.328  1.00  0.00    -0.144 OA 
BRANCH   5   6
HETATM    6  C   UNL     1      -9.358   8.356  70.211  1.00  0.00    -0.164 C  
HETATM    7  O   UNL     1      -8.931   9.490  70.054  1.00  0.00    -0.188 OA 
BRANCH   6   8
HETATM    8  C   UNL     1      -9.935   7.519  69.123  1.00  0.00    -0.179 A  
HETATM    9  C   UNL     1     -10.343   8.154  67.943  1.00  0.00    -0.280 A  
HETATM   10  C   UNL     1     -10.766   7.397  66.847  1.00  0.00    -0.324 A  
HETATM   11  C   UNL     1     -10.780   6.007  66.939  1.00  0.00    -0.334 A  
HETATM   12  C   UNL     1     -10.381   5.364  68.104  1.00  0.00    -0.210 A  
HETATM   13  O   UNL     1     -11.173   5.228  65.893  1.00  0.00    -0.796 OA 
HETATM   14  C   UNL     1      -9.963   6.118  69.202  1.00  0.00    -0.190 A  
HETATM   15  H   UNL     1     -11.182   4.280  65.955  1.00  0.00     0.000 HD 
ENDBRANCH   6   8
ENDBRANCH   5   6
ENDBRANCH   4   5
ENDBRANCH   3   4
ENDBRANCH   2   3
TORSDOF 5
ENDMDL
MODEL      144
REMARK 921   NORMALIZED FREE ENERGY PREDICTED BY IDOCK:   -3.21 KCAL/MOL
REMARK 922        TOTAL FREE ENERGY PREDICTED BY IDOCK:   -4.46 KCAL/MOL
REMARK 923 INTER-LIGAND FREE ENERGY PREDICTED BY IDOCK:   -4.09 KCAL/MOL
REMARK 924 INTRA-LIGAND FREE ENERGY PREDICTED BY IDOCK:   -0.36 KCAL/MOL
REMARK 927      BINDING AFFINITY PREDICTED BY RF-SCORE:    0.00 PKD
ROOT
HETATM    1  C   UNL     1      -7.578  10.729  65.716  1.00  0.00    -0.079 C  
HETATM    2  C   UNL     1      -8.723   9.744  65.590  1.00  0.00    -0.168 C  
ENDROOT
BRANCH   2   3
HETATM    3  C   UNL     1      -9.365   9.415  66.937  1.00  0.00    -0.188 C  
BRANCH   3   4
HETATM    4  C   UNL     1      -8.429   9.844  68.057  1.00  0.00    -0.117 C  
BRANCH   4   5
HETATM    5  O   UNL     1      -9.127  10.053  69.286  1.00  0.00    -0.174 OA 
BRANCH   5   6
HETATM    6  C   UNL     1      -9.367   8.923  69.993  1.00  0.00    -0.174 C  
HETATM    7  O   UNL     1      -8.557   8.040  70.233  1.00  0.00    -0.129 OA 
BRANCH   6   8
HETATM    8  C   UNL     1     -10.720   9.010  70.607  1.00  0.00    -0.292 A  
HETATM    9  C   UNL     1     -11.156   7.943  71.404  1.00  0.00    -0.275 A  
HETATM   10  C   UNL     1     -12.361   8.038  72.105  1.00  0.00    -0.358 A  
HETATM   11  C   UNL     1     -13.124   9.198  72.005  1.00  0.00    -0.429 A  
HETATM   12  C   UNL     1     -12.705  10.262  71.215  1.00  0.00    -0.523 A  
HETATM   13  O   UNL     1     -14.299   9.339  72.680  1.00  0.00    -0.766 OA 
HETATM   14  C   UNL     1     -11.505  10.169  70.509  1.00  0.00    -0.417 A  
HETATM   15  H   UNL     1     -14.819  10.131  72.612  1.00  0.00     0.000 HD 
ENDBRANCH   6   8
ENDBRANCH   5   6
ENDBRANCH   4   5
ENDBRANCH   3   4
ENDBRANCH   2   3
TORSDOF 5
ENDMDL
MODEL      145
REMARK 921   NORMALIZED FREE ENERGY PREDICTED BY IDOCK:   -3.21 KCAL/MOL
REMARK 922        TOTAL FREE ENERGY PREDICTED BY IDOCK:   -4.45 KCAL/MOL
REMARK 923 INTER-LIGAND FREE ENERGY PREDICTED BY IDOCK:   -4.18 KCAL/MOL
REMARK 924 INTRA-LIGAND FREE ENERGY PREDICTED BY IDOCK:   -0.28 KCAL/MOL
REMARK 927      BINDING AFFINITY PREDICTED BY RF-SCORE:    0.00 PKD
ROOT
HETATM    1  C   UNL     1     -11.987  11.616  68.876  1.00  0.00    -0.355 C  
HETATM    2  C   UNL     1     -11.367  12.995  68.997  1.00  0.00    -0.340 C  
ENDROOT
BRANCH   2   3
HETATM    3  C   UNL     1     -12.213  14.078  68.329  1.00  0.00    -0.195 C  
BRANCH   3   4
HETATM    4  C   UNL     1     -11.464  14.628  67.125  1.00  0.00    -0.368 C  
BRANCH   4   5
HETATM    5  O   UNL     1     -11.155  16.015  67.275  1.00  0.00    -0.257 OA 
BRANCH   5   6
HETATM    6  C   UNL     1     -10.374  16.524  66.293  1.00  0.00    -0.320 C  
HETATM    7  O   UNL     1     -10.717  16.743  65.141  1.00  0.00    -0.641 OA 
BRANCH   6   8
HETATM    8  C   UNL     1      -9.078  16.964  66.880  1.00  0.00    -0.248 A  
HETATM    9  C   UNL     1      -9.092  17.558  68.148  1.00  0.00    -0.277 A  
HETATM   10  C   UNL     1      -7.892  17.866  68.793  1.00  0.00    -0.258 A  
HETATM   11  C   UNL     1      -6.683  17.580  68.164  1.00  0.00    -0.191 A  
HETATM   12  C   UNL     1      -6.654  16.995  66.904  1.00  0.00    -0.251 A  
HETATM   13  O   UNL     1      -5.488  17.853  68.760  1.00  0.00    -0.165 OA 
HETATM   14  C   UNL     1      -7.851  16.690  66.255  1.00  0.00    -0.309 A  
HETATM   15  H   UNL     1      -4.663  17.656  68.331  1.00  0.00     0.000 HD 
ENDBRANCH   6   8
ENDBRANCH   5   6
ENDBRANCH   4   5
ENDBRANCH   3   4
ENDBRANCH   2   3
TORSDOF 5
ENDMDL
MODEL      146
REMARK 921   NORMALIZED FREE ENERGY PREDICTED BY IDOCK:   -3.21 KCAL/MOL
REMARK 922        TOTAL FREE ENERGY PREDICTED BY IDOCK:   -4.45 KCAL/MOL
REMARK 923 INTER-LIGAND FREE ENERGY PREDICTED BY IDOCK:   -4.10 KCAL/MOL
REMARK 924 INTRA-LIGAND FREE ENERGY PREDICTED BY IDOCK:   -0.35 KCAL/MOL
REMARK 927      BINDING AFFINITY PREDICTED BY RF-SCORE:    0.00 PKD
ROOT
HETATM    1  C   UNL     1      -7.844  10.493  65.648  1.00  0.00    -0.150 C  
HETATM    2  C   UNL     1      -9.095   9.911  65.020  1.00  0.00    -0.264 C  
ENDROOT
BRANCH   2   3
HETATM    3  C   UNL     1     -10.120   9.465  66.061  1.00  0.00    -0.302 C  
BRANCH   3   4
HETATM    4  C   UNL     1      -9.400   9.089  67.346  1.00  0.00    -0.139 C  
BRANCH   4   5
HETATM    5  O   UNL     1      -9.587  10.068  68.371  1.00  0.00    -0.142 OA 
BRANCH   5   6
HETATM    6  C   UNL     1     -10.692   9.878  69.131  1.00  0.00    -0.224 C  
HETATM    7  O   UNL     1     -11.018   8.836  69.679  1.00  0.00    -0.206 OA 
BRANCH   6   8
HETATM    8  C   UNL     1     -11.354  11.191  69.364  1.00  0.00    -0.352 A  
HETATM    9  C   UNL     1     -12.063  11.374  70.559  1.00  0.00    -0.487 A  
HETATM   10  C   UNL     1     -12.587  12.628  70.880  1.00  0.00    -0.338 A  
HETATM   11  C   UNL     1     -12.401  13.694  70.003  1.00  0.00    -0.278 A  
HETATM   12  C   UNL     1     -11.704  13.526  68.812  1.00  0.00    -0.373 A  
HETATM   13  O   UNL     1     -12.885  14.937  70.279  1.00  0.00    -0.533 OA 
HETATM   14  C   UNL     1     -11.183  12.273  68.486  1.00  0.00    -0.316 A  
HETATM   15  H   UNL     1     -12.758  15.664  69.681  1.00  0.00     0.000 HD 
ENDBRANCH   6   8
ENDBRANCH   5   6
ENDBRANCH   4   5
ENDBRANCH   3   4
ENDBRANCH   2   3
TORSDOF 5
ENDMDL
MODEL      147
REMARK 921   NORMALIZED FREE ENERGY PREDICTED BY IDOCK:   -3.21 KCAL/MOL
REMARK 922        TOTAL FREE ENERGY PREDICTED BY IDOCK:   -4.45 KCAL/MOL
REMARK 923 INTER-LIGAND FREE ENERGY PREDICTED BY IDOCK:   -4.14 KCAL/MOL
REMARK 924 INTRA-LIGAND FREE ENERGY PREDICTED BY IDOCK:   -0.31 KCAL/MOL
REMARK 927      BINDING AFFINITY PREDICTED BY RF-SCORE:    0.00 PKD
ROOT
HETATM    1  C   UNL     1     -10.994   9.764  67.319  1.00  0.00    -0.142 C  
HETATM    2  C   UNL     1     -10.941  11.250  67.616  1.00  0.00    -0.312 C  
ENDROOT
BRANCH   2   3
HETATM    3  C   UNL     1     -11.082  11.555  69.106  1.00  0.00    -0.316 C  
BRANCH   3   4
HETATM    4  C   UNL     1     -10.842  10.283  69.904  1.00  0.00    -0.302 C  
BRANCH   4   5
HETATM    5  O   UNL     1     -11.506  10.312  71.169  1.00  0.00    -0.341 OA 
BRANCH   5   6
HETATM    6  C   UNL     1     -12.363   9.283  71.375  1.00  0.00    -0.343 C  
HETATM    7  O   UNL     1     -13.572   9.307  71.198  1.00  0.00    -0.292 OA 
BRANCH   6   8
HETATM    8  C   UNL     1     -11.581   8.049  71.663  1.00  0.00    -0.317 A  
HETATM    9  C   UNL     1     -10.927   7.951  72.897  1.00  0.00    -0.452 A  
HETATM   10  C   UNL     1     -10.293   6.761  73.263  1.00  0.00    -0.293 A  
HETATM   11  C   UNL     1     -10.316   5.675  72.391  1.00  0.00    -0.203 A  
HETATM   12  C   UNL     1     -10.957   5.760  71.162  1.00  0.00    -0.295 A  
HETATM   13  O   UNL     1      -9.721   4.492  72.711  1.00  0.00    -0.135 OA 
HETATM   14  C   UNL     1     -11.587   6.949  70.791  1.00  0.00    -0.397 A  
HETATM   15  H   UNL     1      -9.737   3.751  72.116  1.00  0.00     0.000 HD 
ENDBRANCH   6   8
ENDBRANCH   5   6
ENDBRANCH   4   5
ENDBRANCH   3   4
ENDBRANCH   2   3
TORSDOF 5
ENDMDL
MODEL      148
REMARK 921   NORMALIZED FREE ENERGY PREDICTED BY IDOCK:   -3.16 KCAL/MOL
REMARK 922        TOTAL FREE ENERGY PREDICTED BY IDOCK:   -4.38 KCAL/MOL
REMARK 923 INTER-LIGAND FREE ENERGY PREDICTED BY IDOCK:   -4.09 KCAL/MOL
REMARK 924 INTRA-LIGAND FREE ENERGY PREDICTED BY IDOCK:   -0.30 KCAL/MOL
REMARK 927      BINDING AFFINITY PREDICTED BY RF-SCORE:    0.00 PKD
ROOT
HETATM    1  C   UNL     1     -12.386   6.613  71.635  1.00  0.00    -0.382 C  
HETATM    2  C   UNL     1     -11.732   7.947  71.333  1.00  0.00    -0.311 C  
ENDROOT
BRANCH   2   3
HETATM    3  C   UNL     1     -12.434   9.114  72.027  1.00  0.00    -0.452 C  
BRANCH   3   4
HETATM    4  C   UNL     1     -12.564  10.273  71.052  1.00  0.00    -0.390 C  
BRANCH   4   5
HETATM    5  O   UNL     1     -11.331  10.551  70.384  1.00  0.00    -0.303 OA 
BRANCH   5   6
HETATM    6  C   UNL     1     -11.472  11.106  69.157  1.00  0.00    -0.298 C  
HETATM    7  O   UNL     1     -11.816  12.255  68.921  1.00  0.00    -0.305 OA 
BRANCH   6   8
HETATM    8  C   UNL     1     -10.951  10.160  68.132  1.00  0.00    -0.313 A  
HETATM    9  C   UNL     1     -10.891  10.591  66.801  1.00  0.00    -0.209 A  
HETATM   10  C   UNL     1     -10.289   9.788  65.829  1.00  0.00    -0.101 A  
HETATM   11  C   UNL     1      -9.751   8.557  66.194  1.00  0.00    -0.189 A  
HETATM   12  C   UNL     1      -9.807   8.114  67.510  1.00  0.00    -0.230 A  
HETATM   13  O   UNL     1      -9.145   7.746  65.282  1.00  0.00    -0.384 OA 
HETATM   14  C   UNL     1     -10.413   8.912  68.482  1.00  0.00    -0.218 A  
HETATM   15  H   UNL     1      -8.777   6.906  65.531  1.00  0.00     0.000 HD 
ENDBRANCH   6   8
ENDBRANCH   5   6
ENDBRANCH   4   5
ENDBRANCH   3   4
ENDBRANCH   2   3
TORSDOF 5
ENDMDL
MODEL      149
REMARK 921   NORMALIZED FREE ENERGY PREDICTED BY IDOCK:   -3.15 KCAL/MOL
REMARK 922        TOTAL FREE ENERGY PREDICTED BY IDOCK:   -4.37 KCAL/MOL
REMARK 923 INTER-LIGAND FREE ENERGY PREDICTED BY IDOCK:   -4.01 KCAL/MOL
REMARK 924 INTRA-LIGAND FREE ENERGY PREDICTED BY IDOCK:   -0.37 KCAL/MOL
REMARK 927      BINDING AFFINITY PREDICTED BY RF-SCORE:    0.00 PKD
ROOT
HETATM    1  C   UNL     1      -9.291   9.402  65.041  1.00  0.00    -0.258 C  
HETATM    2  C   UNL     1      -9.735   9.309  66.488  1.00  0.00    -0.305 C  
ENDROOT
BRANCH   2   3
HETATM    3  C   UNL     1     -10.540  10.529  66.934  1.00  0.00    -0.303 C  
BRANCH   3   4
HETATM    4  C   UNL     1      -9.949  11.076  68.224  1.00  0.00    -0.179 C  
BRANCH   4   5
HETATM    5  O   UNL     1      -9.981  10.111  69.278  1.00  0.00    -0.195 OA 
BRANCH   5   6
HETATM    6  C   UNL     1     -11.036  10.234  70.117  1.00  0.00    -0.319 C  
HETATM    7  O   UNL     1     -11.753  11.217  70.233  1.00  0.00    -0.311 OA 
BRANCH   6   8
HETATM    8  C   UNL     1     -11.319   8.912  70.741  1.00  0.00    -0.325 A  
HETATM    9  C   UNL     1     -10.234   8.099  71.093  1.00  0.00    -0.234 A  
HETATM   10  C   UNL     1     -10.446   6.912  71.799  1.00  0.00    -0.224 A  
HETATM   11  C   UNL     1     -11.743   6.543  72.147  1.00  0.00    -0.311 A  
HETATM   12  C   UNL     1     -12.829   7.337  71.799  1.00  0.00    -0.369 A  
HETATM   13  O   UNL     1     -11.996   5.400  72.844  1.00  0.00    -0.509 OA 
HETATM   14  C   UNL     1     -12.621   8.521  71.090  1.00  0.00    -0.162 A  
HETATM   15  H   UNL     1     -12.880   5.149  73.082  1.00  0.00     0.000 HD 
ENDBRANCH   6   8
ENDBRANCH   5   6
ENDBRANCH   4   5
ENDBRANCH   3   4
ENDBRANCH   2   3
TORSDOF 5
ENDMDL
MODEL      150
REMARK 921   NORMALIZED FREE ENERGY PREDICTED BY IDOCK:   -3.15 KCAL/MOL
REMARK 922        TOTAL FREE ENERGY PREDICTED BY IDOCK:   -4.37 KCAL/MOL
REMARK 923 INTER-LIGAND FREE ENERGY PREDICTED BY IDOCK:   -4.02 KCAL/MOL
REMARK 924 INTRA-LIGAND FREE ENERGY PREDICTED BY IDOCK:   -0.35 KCAL/MOL
REMARK 927      BINDING AFFINITY PREDICTED BY RF-SCORE:    0.00 PKD
ROOT
HETATM    1  C   UNL     1      -7.479   7.988  74.507  1.00  0.00    -0.240 C  
HETATM    2  C   UNL     1      -8.055   7.141  73.389  1.00  0.00    -0.128 C  
ENDROOT
BRANCH   2   3
HETATM    3  C   UNL     1      -9.052   7.911  72.525  1.00  0.00    -0.245 C  
BRANCH   3   4
HETATM    4  C   UNL     1     -10.454   7.712  73.079  1.00  0.00    -0.356 C  
BRANCH   4   5
HETATM    5  O   UNL     1     -11.422   8.501  72.384  1.00  0.00    -0.369 OA 
BRANCH   5   6
HETATM    6  C   UNL     1     -11.589   8.163  71.083  1.00  0.00    -0.279 C  
HETATM    7  O   UNL     1     -11.912   7.062  70.662  1.00  0.00    -0.345 OA 
BRANCH   6   8
HETATM    8  C   UNL     1     -11.515   9.392  70.246  1.00  0.00    -0.223 A  
HETATM    9  C   UNL     1     -10.784   9.338  69.052  1.00  0.00    -0.189 A  
HETATM   10  C   UNL     1     -10.795  10.424  68.173  1.00  0.00    -0.311 A  
HETATM   11  C   UNL     1     -11.537  11.558  68.493  1.00  0.00    -0.313 A  
HETATM   12  C   UNL     1     -12.262  11.627  69.676  1.00  0.00    -0.271 A  
HETATM   13  O   UNL     1     -11.586  12.635  67.660  1.00  0.00    -0.315 OA 
HETATM   14  C   UNL     1     -12.249  10.546  70.559  1.00  0.00    -0.435 A  
HETATM   15  H   UNL     1     -12.092  13.409  67.879  1.00  0.00     0.000 HD 
ENDBRANCH   6   8
ENDBRANCH   5   6
ENDBRANCH   4   5
ENDBRANCH   3   4
ENDBRANCH   2   3
TORSDOF 5
ENDMDL
MODEL      151
REMARK 921   NORMALIZED FREE ENERGY PREDICTED BY IDOCK:   -3.14 KCAL/MOL
REMARK 922        TOTAL FREE ENERGY PREDICTED BY IDOCK:   -4.36 KCAL/MOL
REMARK 923 INTER-LIGAND FREE ENERGY PREDICTED BY IDOCK:   -4.11 KCAL/MOL
REMARK 924 INTRA-LIGAND FREE ENERGY PREDICTED BY IDOCK:   -0.25 KCAL/MOL
REMARK 927      BINDING AFFINITY PREDICTED BY RF-SCORE:    0.00 PKD
ROOT
HETATM    1  C   UNL     1     -10.633  15.476  65.189  1.00  0.00    -0.455 C  
HETATM    2  C   UNL     1     -11.869  15.066  64.412  1.00  0.00    -0.349 C  
ENDROOT
BRANCH   2   3
HETATM    3  C   UNL     1     -12.560  13.844  65.014  1.00  0.00    -0.422 C  
BRANCH   3   4
HETATM    4  C   UNL     1     -11.845  13.443  66.295  1.00  0.00    -0.394 C  
BRANCH   4   5
HETATM    5  O   UNL     1     -11.955  12.041  66.552  1.00  0.00    -0.616 OA 
BRANCH   5   6
HETATM    6  C   UNL     1     -11.627  11.677  67.815  1.00  0.00    -0.289 C  
HETATM    7  O   UNL     1     -12.265  11.932  68.826  1.00  0.00    -0.318 OA 
BRANCH   6   8
HETATM    8  C   UNL     1     -10.469  10.743  67.767  1.00  0.00    -0.243 A  
HETATM    9  C   UNL     1      -9.423  10.936  68.678  1.00  0.00    -0.192 A  
HETATM   10  C   UNL     1      -8.381  10.009  68.759  1.00  0.00    -0.121 A  
HETATM   11  C   UNL     1      -8.390   8.894  67.924  1.00  0.00    -0.118 A  
HETATM   12  C   UNL     1      -9.419   8.692  67.012  1.00  0.00    -0.221 A  
HETATM   13  O   UNL     1      -7.401   7.958  67.975  1.00  0.00    -0.091 OA 
HETATM   14  C   UNL     1     -10.459   9.619  66.927  1.00  0.00    -0.282 A  
HETATM   15  H   UNL     1      -7.407   7.197  67.407  1.00  0.00     0.000 HD 
ENDBRANCH   6   8
ENDBRANCH   5   6
ENDBRANCH   4   5
ENDBRANCH   3   4
ENDBRANCH   2   3
TORSDOF 5
ENDMDL
MODEL      152
REMARK 921   NORMALIZED FREE ENERGY PREDICTED BY IDOCK:   -3.13 KCAL/MOL
REMARK 922        TOTAL FREE ENERGY PREDICTED BY IDOCK:   -4.35 KCAL/MOL
REMARK 923 INTER-LIGAND FREE ENERGY PREDICTED BY IDOCK:   -4.50 KCAL/MOL
REMARK 924 INTRA-LIGAND FREE ENERGY PREDICTED BY IDOCK:    0.15 KCAL/MOL
REMARK 927      BINDING AFFINITY PREDICTED BY RF-SCORE:    0.00 PKD
ROOT
HETATM    1  C   UNL     1      -9.610  15.706  69.550  1.00  0.00    -0.279 C  
HETATM    2  C   UNL     1      -8.397  15.022  68.949  1.00  0.00    -0.183 C  
ENDROOT
BRANCH   2   3
HETATM    3  C   UNL     1      -8.736  14.228  67.689  1.00  0.00    -0.192 C  
BRANCH   3   4
HETATM    4  C   UNL     1      -8.650  12.741  67.994  1.00  0.00    -0.186 C  
BRANCH   4   5
HETATM    5  O   UNL     1      -9.908  12.207  68.411  1.00  0.00    -0.209 OA 
BRANCH   5   6
HETATM    6  C   UNL     1     -10.949  12.534  67.608  1.00  0.00    -0.242 C  
HETATM    7  O   UNL     1     -11.919  13.205  67.924  1.00  0.00    -0.349 OA 
BRANCH   6   8
HETATM    8  C   UNL     1     -10.638  12.115  66.213  1.00  0.00    -0.285 A  
HETATM    9  C   UNL     1     -10.165  10.813  66.001  1.00  0.00    -0.310 A  
HETATM   10  C   UNL     1      -9.986  10.334  64.701  1.00  0.00    -0.377 A  
HETATM   11  C   UNL     1     -10.279  11.161  63.619  1.00  0.00    -0.387 A  
HETATM   12  C   UNL     1     -10.743  12.455  63.815  1.00  0.00    -0.492 A  
HETATM   13  O   UNL     1     -10.130  10.732  62.334  1.00  0.00    -0.691 OA 
HETATM   14  C   UNL     1     -10.919  12.939  65.112  1.00  0.00    -0.316 A  
HETATM   15  H   UNL     1     -10.330  11.296  61.597  1.00  0.00     0.000 HD 
ENDBRANCH   6   8
ENDBRANCH   5   6
ENDBRANCH   4   5
ENDBRANCH   3   4
ENDBRANCH   2   3
TORSDOF 5
ENDMDL
MODEL      153
REMARK 921   NORMALIZED FREE ENERGY PREDICTED BY IDOCK:   -3.12 KCAL/MOL
REMARK 922        TOTAL FREE ENERGY PREDICTED BY IDOCK:   -4.33 KCAL/MOL
REMARK 923 INTER-LIGAND FREE ENERGY PREDICTED BY IDOCK:   -4.36 KCAL/MOL
REMARK 924 INTRA-LIGAND FREE ENERGY PREDICTED BY IDOCK:    0.03 KCAL/MOL
REMARK 927      BINDING AFFINITY PREDICTED BY RF-SCORE:    0.00 PKD
ROOT
HETATM    1  C   UNL     1     -12.636  11.963  63.647  1.00  0.00    -0.555 C  
HETATM    2  C   UNL     1     -11.971  12.670  64.812  1.00  0.00    -0.458 C  
ENDROOT
BRANCH   2   3
HETATM    3  C   UNL     1     -11.738  14.156  64.539  1.00  0.00    -0.426 C  
BRANCH   3   4
HETATM    4  C   UNL     1     -11.193  14.817  65.795  1.00  0.00    -0.337 C  
BRANCH   4   5
HETATM    5  O   UNL     1     -12.132  14.773  66.873  1.00  0.00    -0.295 OA 
BRANCH   5   6
HETATM    6  C   UNL     1     -11.615  14.338  68.047  1.00  0.00    -0.332 C  
HETATM    7  O   UNL     1     -11.969  13.345  68.664  1.00  0.00    -0.343 OA 
BRANCH   6   8
HETATM    8  C   UNL     1     -10.409  15.145  68.378  1.00  0.00    -0.229 A  
HETATM    9  C   UNL     1      -9.177  14.487  68.476  1.00  0.00    -0.195 A  
HETATM   10  C   UNL     1      -8.001  15.221  68.654  1.00  0.00    -0.149 A  
HETATM   11  C   UNL     1      -8.065  16.610  68.735  1.00  0.00    -0.247 A  
HETATM   12  C   UNL     1      -9.281  17.275  68.644  1.00  0.00    -0.266 A  
HETATM   13  O   UNL     1      -6.943  17.366  68.897  1.00  0.00    -0.224 OA 
HETATM   14  C   UNL     1     -10.458  16.545  68.471  1.00  0.00    -0.302 A  
HETATM   15  H   UNL     1      -6.987  18.314  68.951  1.00  0.00     0.000 HD 
ENDBRANCH   6   8
ENDBRANCH   5   6
ENDBRANCH   4   5
ENDBRANCH   3   4
ENDBRANCH   2   3
TORSDOF 5
ENDMDL
MODEL      154
REMARK 921   NORMALIZED FREE ENERGY PREDICTED BY IDOCK:   -3.11 KCAL/MOL
REMARK 922        TOTAL FREE ENERGY PREDICTED BY IDOCK:   -4.31 KCAL/MOL
REMARK 923 INTER-LIGAND FREE ENERGY PREDICTED BY IDOCK:   -4.20 KCAL/MOL
REMARK 924 INTRA-LIGAND FREE ENERGY PREDICTED BY IDOCK:   -0.11 KCAL/MOL
REMARK 927      BINDING AFFINITY PREDICTED BY RF-SCORE:    0.00 PKD
ROOT
HETATM    1  C   UNL     1     -10.260  19.607  68.285  1.00  0.00    -0.567 C  
HETATM    2  C   UNL     1     -10.615  20.278  66.972  1.00  0.00    -0.205 C  
ENDROOT
BRANCH   2   3
HETATM    3  C   UNL     1     -10.699  19.287  65.812  1.00  0.00    -0.417 C  
BRANCH   3   4
HETATM    4  C   UNL     1     -10.614  17.870  66.355  1.00  0.00    -0.235 C  
BRANCH   4   5
HETATM    5  O   UNL     1     -10.436  16.907  65.313  1.00  0.00    -0.638 OA 
BRANCH   5   6
HETATM    6  C   UNL     1      -9.855  15.751  65.712  1.00  0.00    -0.348 C  
HETATM    7  O   UNL     1     -10.087  14.638  65.265  1.00  0.00    -0.371 OA 
BRANCH   6   8
HETATM    8  C   UNL     1      -8.740  16.064  66.647  1.00  0.00    -0.309 A  
HETATM    9  C   UNL     1      -8.734  15.445  67.903  1.00  0.00    -0.160 A  
HETATM   10  C   UNL     1      -7.642  15.605  68.761  1.00  0.00    -0.162 A  
HETATM   11  C   UNL     1      -6.563  16.387  68.357  1.00  0.00    -0.136 A  
HETATM   12  C   UNL     1      -6.557  17.011  67.115  1.00  0.00    -0.217 A  
HETATM   13  O   UNL     1      -5.472  16.563  69.155  1.00  0.00    -0.125 OA 
HETATM   14  C   UNL     1      -7.648  16.857  66.259  1.00  0.00    -0.312 A  
HETATM   15  H   UNL     1      -4.736  17.096  68.879  1.00  0.00     0.000 HD 
ENDBRANCH   6   8
ENDBRANCH   5   6
ENDBRANCH   4   5
ENDBRANCH   3   4
ENDBRANCH   2   3
TORSDOF 5
ENDMDL
MODEL      155
REMARK 921   NORMALIZED FREE ENERGY PREDICTED BY IDOCK:   -3.10 KCAL/MOL
REMARK 922        TOTAL FREE ENERGY PREDICTED BY IDOCK:   -4.31 KCAL/MOL
REMARK 923 INTER-LIGAND FREE ENERGY PREDICTED BY IDOCK:   -4.14 KCAL/MOL
REMARK 924 INTRA-LIGAND FREE ENERGY PREDICTED BY IDOCK:   -0.17 KCAL/MOL
REMARK 927      BINDING AFFINITY PREDICTED BY RF-SCORE:    0.00 PKD
ROOT
HETATM    1  C   UNL     1     -10.740  19.524  67.109  1.00  0.00    -0.599 C  
HETATM    2  C   UNL     1     -10.605  18.055  67.459  1.00  0.00    -0.402 C  
ENDROOT
BRANCH   2   3
HETATM    3  C   UNL     1      -9.974  17.240  66.332  1.00  0.00    -0.319 C  
BRANCH   3   4
HETATM    4  C   UNL     1     -10.661  15.886  66.246  1.00  0.00    -0.261 C  
BRANCH   4   5
HETATM    5  O   UNL     1      -9.803  14.885  65.696  1.00  0.00    -0.328 OA 
BRANCH   5   6
HETATM    6  C   UNL     1     -10.439  13.752  65.313  1.00  0.00    -0.363 C  
HETATM    7  O   UNL     1     -11.100  13.606  64.296  1.00  0.00    -0.375 OA 
BRANCH   6   8
HETATM    8  C   UNL     1     -10.047  12.642  66.224  1.00  0.00    -0.264 A  
HETATM    9  C   UNL     1     -10.452  11.341  65.897  1.00  0.00    -0.314 A  
HETATM   10  C   UNL     1      -9.998  10.254  66.649  1.00  0.00    -0.270 A  
HETATM   11  C   UNL     1      -9.143  10.475  67.725  1.00  0.00    -0.138 A  
HETATM   12  C   UNL     1      -8.737  11.760  68.064  1.00  0.00    -0.167 A  
HETATM   13  O   UNL     1      -8.666   9.445  68.479  1.00  0.00    -0.126 OA 
HETATM   14  C   UNL     1      -9.192  12.848  67.318  1.00  0.00    -0.208 A  
HETATM   15  H   UNL     1      -8.082   9.595  69.213  1.00  0.00     0.000 HD 
ENDBRANCH   6   8
ENDBRANCH   5   6
ENDBRANCH   4   5
ENDBRANCH   3   4
ENDBRANCH   2   3
TORSDOF 5
ENDMDL
MODEL      156
REMARK 921   NORMALIZED FREE ENERGY PREDICTED BY IDOCK:   -3.10 KCAL/MOL
REMARK 922        TOTAL FREE ENERGY PREDICTED BY IDOCK:   -4.30 KCAL/MOL
REMARK 923 INTER-LIGAND FREE ENERGY PREDICTED BY IDOCK:   -3.89 KCAL/MOL
REMARK 924 INTRA-LIGAND FREE ENERGY PREDICTED BY IDOCK:   -0.41 KCAL/MOL
REMARK 927      BINDING AFFINITY PREDICTED BY RF-SCORE:    0.00 PKD
ROOT
HETATM    1  C   UNL     1     -12.955  12.506  71.743  1.00  0.00    -0.419 C  
HETATM    2  C   UNL     1     -13.004  10.999  71.581  1.00  0.00    -0.561 C  
ENDROOT
BRANCH   2   3
HETATM    3  C   UNL     1     -11.762  10.444  70.885  1.00  0.00    -0.455 C  
BRANCH   3   4
HETATM    4  C   UNL     1     -11.847   8.926  70.844  1.00  0.00    -0.240 C  
BRANCH   4   5
HETATM    5  O   UNL     1     -10.583   8.328  70.548  1.00  0.00    -0.211 OA 
BRANCH   5   6
HETATM    6  C   UNL     1     -10.504   7.765  69.318  1.00  0.00    -0.217 C  
HETATM    7  O   UNL     1     -11.034   6.721  68.970  1.00  0.00    -0.248 OA 
BRANCH   6   8
HETATM    8  C   UNL     1      -9.833   8.716  68.390  1.00  0.00    -0.189 A  
HETATM    9  C   UNL     1     -10.591   9.278  67.354  1.00  0.00    -0.324 A  
HETATM   10  C   UNL     1     -10.041  10.272  66.541  1.00  0.00    -0.290 A  
HETATM   11  C   UNL     1      -8.735  10.698  66.767  1.00  0.00    -0.130 A  
HETATM   12  C   UNL     1      -7.970  10.147  67.788  1.00  0.00    -0.102 A  
HETATM   13  O   UNL     1      -8.162  11.673  66.007  1.00  0.00    -0.374 OA 
HETATM   14  C   UNL     1      -8.515   9.150  68.599  1.00  0.00    -0.127 A  
HETATM   15  H   UNL     1      -7.271  11.964  66.162  1.00  0.00     0.000 HD 
ENDBRANCH   6   8
ENDBRANCH   5   6
ENDBRANCH   4   5
ENDBRANCH   3   4
ENDBRANCH   2   3
TORSDOF 5
ENDMDL
MODEL      157
REMARK 921   NORMALIZED FREE ENERGY PREDICTED BY IDOCK:   -3.09 KCAL/MOL
REMARK 922        TOTAL FREE ENERGY PREDICTED BY IDOCK:   -4.30 KCAL/MOL
REMARK 923 INTER-LIGAND FREE ENERGY PREDICTED BY IDOCK:   -3.91 KCAL/MOL
REMARK 924 INTRA-LIGAND FREE ENERGY PREDICTED BY IDOCK:   -0.39 KCAL/MOL
REMARK 927      BINDING AFFINITY PREDICTED BY RF-SCORE:    0.00 PKD
ROOT
HETATM    1  C   UNL     1      -9.291  20.344  67.128  1.00  0.00    -0.537 C  
HETATM    2  C   UNL     1     -10.092  19.540  66.123  1.00  0.00    -0.557 C  
ENDROOT
BRANCH   2   3
HETATM    3  C   UNL     1     -10.242  18.075  66.532  1.00  0.00    -0.383 C  
BRANCH   3   4
HETATM    4  C   UNL     1     -10.493  17.994  68.029  1.00  0.00    -0.375 C  
BRANCH   4   5
HETATM    5  O   UNL     1      -9.760  16.928  68.638  1.00  0.00    -0.246 OA 
BRANCH   5   6
HETATM    6  C   UNL     1     -10.408  15.739  68.648  1.00  0.00    -0.225 C  
HETATM    7  O   UNL     1     -11.579  15.560  68.947  1.00  0.00    -0.332 OA 
BRANCH   6   8
HETATM    8  C   UNL     1      -9.527  14.700  68.046  1.00  0.00    -0.207 A  
HETATM    9  C   UNL     1      -8.328  14.388  68.699  1.00  0.00    -0.147 A  
HETATM   10  C   UNL     1      -7.536  13.330  68.245  1.00  0.00    -0.126 A  
HETATM   11  C   UNL     1      -7.947  12.592  67.138  1.00  0.00    -0.140 A  
HETATM   12  C   UNL     1      -9.132  12.893  66.478  1.00  0.00    -0.138 A  
HETATM   13  O   UNL     1      -7.212  11.545  66.667  1.00  0.00    -0.238 OA 
HETATM   14  C   UNL     1      -9.923  13.952  66.926  1.00  0.00    -0.264 A  
HETATM   15  H   UNL     1      -7.493  11.041  65.912  1.00  0.00     0.000 HD 
ENDBRANCH   6   8
ENDBRANCH   5   6
ENDBRANCH   4   5
ENDBRANCH   3   4
ENDBRANCH   2   3
TORSDOF 5
ENDMDL
MODEL      158
REMARK 921   NORMALIZED FREE ENERGY PREDICTED BY IDOCK:   -3.08 KCAL/MOL
REMARK 922        TOTAL FREE ENERGY PREDICTED BY IDOCK:   -4.29 KCAL/MOL
REMARK 923 INTER-LIGAND FREE ENERGY PREDICTED BY IDOCK:   -4.07 KCAL/MOL
REMARK 924 INTRA-LIGAND FREE ENERGY PREDICTED BY IDOCK:   -0.22 KCAL/MOL
REMARK 927      BINDING AFFINITY PREDICTED BY RF-SCORE:    0.00 PKD
ROOT
HETATM    1  C   UNL     1     -11.032  14.918  66.018  1.00  0.00    -0.334 C  
HETATM    2  C   UNL     1     -12.330  14.257  65.600  1.00  0.00    -0.416 C  
ENDROOT
BRANCH   2   3
HETATM    3  C   UNL     1     -12.265  12.733  65.682  1.00  0.00    -0.503 C  
BRANCH   3   4
HETATM    4  C   UNL     1     -11.885  12.322  67.096  1.00  0.00    -0.258 C  
BRANCH   4   5
HETATM    5  O   UNL     1     -11.456  10.960  67.161  1.00  0.00    -0.428 OA 
BRANCH   5   6
HETATM    6  C   UNL     1     -11.013  10.570  68.380  1.00  0.00    -0.261 C  
HETATM    7  O   UNL     1     -11.034  11.240  69.401  1.00  0.00    -0.242 OA 
BRANCH   6   8
HETATM    8  C   UNL     1     -10.675   9.121  68.334  1.00  0.00    -0.163 A  
HETATM    9  C   UNL     1     -10.574   8.425  69.546  1.00  0.00    -0.217 A  
HETATM   10  C   UNL     1     -10.389   7.040  69.547  1.00  0.00    -0.225 A  
HETATM   11  C   UNL     1     -10.304   6.359  68.336  1.00  0.00    -0.194 A  
HETATM   12  C   UNL     1     -10.397   7.037  67.126  1.00  0.00    -0.351 A  
HETATM   13  O   UNL     1     -10.135   5.008  68.289  1.00  0.00    -0.153 OA 
HETATM   14  C   UNL     1     -10.577   8.421  67.121  1.00  0.00    -0.326 A  
HETATM   15  H   UNL     1     -10.077   4.543  67.462  1.00  0.00     0.000 HD 
ENDBRANCH   6   8
ENDBRANCH   5   6
ENDBRANCH   4   5
ENDBRANCH   3   4
ENDBRANCH   2   3
TORSDOF 5
ENDMDL
MODEL      159
REMARK 921   NORMALIZED FREE ENERGY PREDICTED BY IDOCK:   -3.08 KCAL/MOL
REMARK 922        TOTAL FREE ENERGY PREDICTED BY IDOCK:   -4.28 KCAL/MOL
REMARK 923 INTER-LIGAND FREE ENERGY PREDICTED BY IDOCK:   -4.08 KCAL/MOL
REMARK 924 INTRA-LIGAND FREE ENERGY PREDICTED BY IDOCK:   -0.20 KCAL/MOL
REMARK 927      BINDING AFFINITY PREDICTED BY RF-SCORE:    0.00 PKD
ROOT
HETATM    1  C   UNL     1      -8.679   5.935  65.643  1.00  0.00    -0.149 C  
HETATM    2  C   UNL     1      -8.520   7.440  65.561  1.00  0.00    -0.126 C  
ENDROOT
BRANCH   2   3
HETATM    3  C   UNL     1      -9.516   8.183  66.450  1.00  0.00    -0.285 C  
BRANCH   3   4
HETATM    4  C   UNL     1      -9.716   9.591  65.912  1.00  0.00    -0.282 C  
BRANCH   4   5
HETATM    5  O   UNL     1     -10.665  10.330  66.684  1.00  0.00    -0.199 OA 
BRANCH   5   6
HETATM    6  C   UNL     1     -10.996  11.535  66.162  1.00  0.00    -0.266 C  
HETATM    7  O   UNL     1     -11.154  11.786  64.976  1.00  0.00    -0.308 OA 
BRANCH   6   8
HETATM    8  C   UNL     1     -11.334  12.470  67.269  1.00  0.00    -0.373 A  
HETATM    9  C   UNL     1     -11.412  13.839  66.981  1.00  0.00    -0.368 A  
HETATM   10  C   UNL     1     -11.854  14.737  67.956  1.00  0.00    -0.324 A  
HETATM   11  C   UNL     1     -12.213  14.262  69.214  1.00  0.00    -0.252 A  
HETATM   12  C   UNL     1     -12.135  12.908  69.516  1.00  0.00    -0.274 A  
HETATM   13  O   UNL     1     -12.659  15.100  70.192  1.00  0.00    -0.487 OA 
HETATM   14  C   UNL     1     -11.690  12.008  68.546  1.00  0.00    -0.387 A  
HETATM   15  H   UNL     1     -12.905  14.775  71.050  1.00  0.00     0.000 HD 
ENDBRANCH   6   8
ENDBRANCH   5   6
ENDBRANCH   4   5
ENDBRANCH   3   4
ENDBRANCH   2   3
TORSDOF 5
ENDMDL
MODEL      160
REMARK 921   NORMALIZED FREE ENERGY PREDICTED BY IDOCK:   -3.08 KCAL/MOL
REMARK 922        TOTAL FREE ENERGY PREDICTED BY IDOCK:   -4.28 KCAL/MOL
REMARK 923 INTER-LIGAND FREE ENERGY PREDICTED BY IDOCK:   -4.03 KCAL/MOL
REMARK 924 INTRA-LIGAND FREE ENERGY PREDICTED BY IDOCK:   -0.25 KCAL/MOL
REMARK 927      BINDING AFFINITY PREDICTED BY RF-SCORE:    0.00 PKD
ROOT
HETATM    1  C   UNL     1      -9.079   6.806  66.511  1.00  0.00    -0.171 C  
HETATM    2  C   UNL     1      -8.765   8.288  66.557  1.00  0.00    -0.157 C  
ENDROOT
BRANCH   2   3
HETATM    3  C   UNL     1      -8.721   8.922  65.168  1.00  0.00    -0.213 C  
BRANCH   3   4
HETATM    4  C   UNL     1      -8.683  10.436  65.308  1.00  0.00    -0.179 C  
BRANCH   4   5
HETATM    5  O   UNL     1      -9.867  10.946  65.925  1.00  0.00    -0.216 OA 
BRANCH   5   6
HETATM    6  C   UNL     1     -10.560  11.825  65.164  1.00  0.00    -0.283 C  
HETATM    7  O   UNL     1     -11.001  11.616  64.044  1.00  0.00    -0.339 OA 
BRANCH   6   8
HETATM    8  C   UNL     1     -10.880  13.029  65.980  1.00  0.00    -0.290 A  
HETATM    9  C   UNL     1     -11.599  12.852  67.169  1.00  0.00    -0.421 A  
HETATM   10  C   UNL     1     -11.807  13.932  68.031  1.00  0.00    -0.411 A  
HETATM   11  C   UNL     1     -11.297  15.184  67.697  1.00  0.00    -0.321 A  
HETATM   12  C   UNL     1     -10.586  15.375  66.518  1.00  0.00    -0.306 A  
HETATM   13  O   UNL     1     -11.466  16.263  68.512  1.00  0.00    -0.371 OA 
HETATM   14  C   UNL     1     -10.380  14.299  65.653  1.00  0.00    -0.352 A  
HETATM   15  H   UNL     1     -11.117  17.117  68.284  1.00  0.00     0.000 HD 
ENDBRANCH   6   8
ENDBRANCH   5   6
ENDBRANCH   4   5
ENDBRANCH   3   4
ENDBRANCH   2   3
TORSDOF 5
ENDMDL
MODEL      161
REMARK 921   NORMALIZED FREE ENERGY PREDICTED BY IDOCK:   -3.08 KCAL/MOL
REMARK 922        TOTAL FREE ENERGY PREDICTED BY IDOCK:   -4.28 KCAL/MOL
REMARK 923 INTER-LIGAND FREE ENERGY PREDICTED BY IDOCK:   -4.04 KCAL/MOL
REMARK 924 INTRA-LIGAND FREE ENERGY PREDICTED BY IDOCK:   -0.24 KCAL/MOL
REMARK 927      BINDING AFFINITY PREDICTED BY RF-SCORE:    0.00 PKD
ROOT
HETATM    1  C   UNL     1     -10.567   5.495  71.625  1.00  0.00    -0.294 C  
HETATM    2  C   UNL     1     -10.503   5.618  70.115  1.00  0.00    -0.366 C  
ENDROOT
BRANCH   2   3
HETATM    3  C   UNL     1     -11.309   6.804  69.588  1.00  0.00    -0.326 C  
BRANCH   3   4
HETATM    4  C   UNL     1     -10.903   8.061  70.341  1.00  0.00    -0.247 C  
BRANCH   4   5
HETATM    5  O   UNL     1     -10.297   9.028  69.480  1.00  0.00    -0.198 OA 
BRANCH   5   6
HETATM    6  C   UNL     1     -10.843  10.265  69.556  1.00  0.00    -0.256 C  
HETATM    7  O   UNL     1     -11.413  10.741  70.526  1.00  0.00    -0.313 OA 
BRANCH   6   8
HETATM    8  C   UNL     1     -10.469  11.038  68.340  1.00  0.00    -0.203 A  
HETATM    9  C   UNL     1     -11.008  10.640  67.109  1.00  0.00    -0.312 A  
HETATM   10  C   UNL     1     -10.791  11.413  65.965  1.00  0.00    -0.306 A  
HETATM   11  C   UNL     1     -10.034  12.578  66.058  1.00  0.00    -0.257 A  
HETATM   12  C   UNL     1      -9.490  12.982  67.271  1.00  0.00    -0.224 A  
HETATM   13  O   UNL     1      -9.806  13.368  64.971  1.00  0.00    -0.548 OA 
HETATM   14  C   UNL     1      -9.700  12.210  68.415  1.00  0.00    -0.193 A  
HETATM   15  H   UNL     1      -9.291  14.163  65.035  1.00  0.00     0.000 HD 
ENDBRANCH   6   8
ENDBRANCH   5   6
ENDBRANCH   4   5
ENDBRANCH   3   4
ENDBRANCH   2   3
TORSDOF 5
ENDMDL
MODEL      162
REMARK 921   NORMALIZED FREE ENERGY PREDICTED BY IDOCK:   -3.08 KCAL/MOL
REMARK 922        TOTAL FREE ENERGY PREDICTED BY IDOCK:   -4.28 KCAL/MOL
REMARK 923 INTER-LIGAND FREE ENERGY PREDICTED BY IDOCK:   -4.08 KCAL/MOL
REMARK 924 INTRA-LIGAND FREE ENERGY PREDICTED BY IDOCK:   -0.20 KCAL/MOL
REMARK 927      BINDING AFFINITY PREDICTED BY RF-SCORE:    0.00 PKD
ROOT
HETATM    1  C   UNL     1     -12.746  15.062  71.451  1.00  0.00    -0.414 C  
HETATM    2  C   UNL     1     -11.823  14.540  70.368  1.00  0.00    -0.378 C  
ENDROOT
BRANCH   2   3
HETATM    3  C   UNL     1     -12.047  13.058  70.071  1.00  0.00    -0.367 C  
BRANCH   3   4
HETATM    4  C   UNL     1     -11.901  12.818  68.577  1.00  0.00    -0.306 C  
BRANCH   4   5
HETATM    5  O   UNL     1     -12.140  11.452  68.229  1.00  0.00    -0.606 OA 
BRANCH   5   6
HETATM    6  C   UNL     1     -11.215  10.584  68.702  1.00  0.00    -0.270 C  
HETATM    7  O   UNL     1     -11.372   9.795  69.622  1.00  0.00    -0.212 OA 
BRANCH   6   8
HETATM    8  C   UNL     1     -10.030  10.595  67.801  1.00  0.00    -0.192 A  
HETATM    9  C   UNL     1     -10.131   9.944  66.565  1.00  0.00    -0.298 A  
HETATM   10  C   UNL     1      -9.094  10.040  65.633  1.00  0.00    -0.222 A  
HETATM   11  C   UNL     1      -7.960  10.786  65.945  1.00  0.00    -0.140 A  
HETATM   12  C   UNL     1      -7.844  11.434  67.168  1.00  0.00    -0.156 A  
HETATM   13  O   UNL     1      -6.929  10.917  65.063  1.00  0.00    -0.360 OA 
HETATM   14  C   UNL     1      -8.876  11.336  68.103  1.00  0.00    -0.159 A  
HETATM   15  H   UNL     1      -6.156  11.426  65.275  1.00  0.00     0.000 HD 
ENDBRANCH   6   8
ENDBRANCH   5   6
ENDBRANCH   4   5
ENDBRANCH   3   4
ENDBRANCH   2   3
TORSDOF 5
ENDMDL
MODEL      163
REMARK 921   NORMALIZED FREE ENERGY PREDICTED BY IDOCK:   -3.07 KCAL/MOL
REMARK 922        TOTAL FREE ENERGY PREDICTED BY IDOCK:   -4.27 KCAL/MOL
REMARK 923 INTER-LIGAND FREE ENERGY PREDICTED BY IDOCK:   -3.95 KCAL/MOL
REMARK 924 INTRA-LIGAND FREE ENERGY PREDICTED BY IDOCK:   -0.32 KCAL/MOL
REMARK 927      BINDING AFFINITY PREDICTED BY RF-SCORE:    0.00 PKD
ROOT
HETATM    1  C   UNL     1      -8.973   5.709  68.140  1.00  0.00    -0.111 C  
HETATM    2  C   UNL     1      -8.788   6.563  66.901  1.00  0.00    -0.120 C  
ENDROOT
BRANCH   2   3
HETATM    3  C   UNL     1      -7.464   7.325  66.907  1.00  0.00    -0.097 C  
BRANCH   3   4
HETATM    4  C   UNL     1      -7.641   8.645  66.174  1.00  0.00    -0.093 C  
BRANCH   4   5
HETATM    5  O   UNL     1      -8.995   8.851  65.763  1.00  0.00    -0.178 OA 
BRANCH   5   6
HETATM    6  C   UNL     1      -9.129   9.546  64.608  1.00  0.00    -0.210 C  
HETATM    7  O   UNL     1      -8.641   9.249  63.528  1.00  0.00    -0.196 OA 
BRANCH   6   8
HETATM    8  C   UNL     1     -10.131  10.630  64.806  1.00  0.00    -0.412 A  
HETATM    9  C   UNL     1     -10.523  10.940  66.114  1.00  0.00    -0.290 A  
HETATM   10  C   UNL     1     -11.358  12.034  66.357  1.00  0.00    -0.411 A  
HETATM   11  C   UNL     1     -11.798  12.810  65.288  1.00  0.00    -0.403 A  
HETATM   12  C   UNL     1     -11.421  12.511  63.984  1.00  0.00    -0.476 A  
HETATM   13  O   UNL     1     -12.604  13.892  65.477  1.00  0.00    -0.489 OA 
HETATM   14  C   UNL     1     -10.591  11.417  63.738  1.00  0.00    -0.464 A  
HETATM   15  H   UNL     1     -12.904  14.422  64.748  1.00  0.00     0.000 HD 
ENDBRANCH   6   8
ENDBRANCH   5   6
ENDBRANCH   4   5
ENDBRANCH   3   4
ENDBRANCH   2   3
TORSDOF 5
ENDMDL
MODEL      164
REMARK 921   NORMALIZED FREE ENERGY PREDICTED BY IDOCK:   -3.06 KCAL/MOL
REMARK 922        TOTAL FREE ENERGY PREDICTED BY IDOCK:   -4.26 KCAL/MOL
REMARK 923 INTER-LIGAND FREE ENERGY PREDICTED BY IDOCK:   -3.99 KCAL/MOL
REMARK 924 INTRA-LIGAND FREE ENERGY PREDICTED BY IDOCK:   -0.28 KCAL/MOL
REMARK 927      BINDING AFFINITY PREDICTED BY RF-SCORE:    0.00 PKD
ROOT
HETATM    1  C   UNL     1      -9.598   5.729  71.112  1.00  0.00    -0.201 C  
HETATM    2  C   UNL     1     -11.053   6.061  71.383  1.00  0.00    -0.336 C  
ENDROOT
BRANCH   2   3
HETATM    3  C   UNL     1     -11.619   7.069  70.384  1.00  0.00    -0.341 C  
BRANCH   3   4
HETATM    4  C   UNL     1     -10.532   8.059  69.998  1.00  0.00    -0.228 C  
BRANCH   4   5
HETATM    5  O   UNL     1     -10.887   8.820  68.842  1.00  0.00    -0.143 OA 
BRANCH   5   6
HETATM    6  C   UNL     1     -10.136   8.557  67.746  1.00  0.00    -0.211 C  
HETATM    7  O   UNL     1      -9.613   7.487  67.471  1.00  0.00    -0.135 OA 
BRANCH   6   8
HETATM    8  C   UNL     1     -10.204   9.720  66.818  1.00  0.00    -0.300 A  
HETATM    9  C   UNL     1     -10.473  10.984  67.358  1.00  0.00    -0.255 A  
HETATM   10  C   UNL     1     -10.417  12.121  66.547  1.00  0.00    -0.254 A  
HETATM   11  C   UNL     1     -10.093  11.985  65.199  1.00  0.00    -0.266 A  
HETATM   12  C   UNL     1      -9.829  10.737  64.649  1.00  0.00    -0.366 A  
HETATM   13  O   UNL     1     -10.016  13.066  64.373  1.00  0.00    -0.598 OA 
HETATM   14  C   UNL     1      -9.889   9.599  65.456  1.00  0.00    -0.352 A  
HETATM   15  H   UNL     1      -9.794  12.974  63.454  1.00  0.00     0.000 HD 
ENDBRANCH   6   8
ENDBRANCH   5   6
ENDBRANCH   4   5
ENDBRANCH   3   4
ENDBRANCH   2   3
TORSDOF 5
ENDMDL
MODEL      165
REMARK 921   NORMALIZED FREE ENERGY PREDICTED BY IDOCK:   -3.06 KCAL/MOL
REMARK 922        TOTAL FREE ENERGY PREDICTED BY IDOCK:   -4.25 KCAL/MOL
REMARK 923 INTER-LIGAND FREE ENERGY PREDICTED BY IDOCK:   -3.59 KCAL/MOL
REMARK 924 INTRA-LIGAND FREE ENERGY PREDICTED BY IDOCK:   -0.66 KCAL/MOL
REMARK 927      BINDING AFFINITY PREDICTED BY RF-SCORE:    0.00 PKD
ROOT
HETATM    1  C   UNL     1      -9.941   7.134  73.747  1.00  0.00    -0.373 C  
HETATM    2  C   UNL     1     -10.168   5.660  73.474  1.00  0.00    -0.227 C  
ENDROOT
BRANCH   2   3
HETATM    3  C   UNL     1     -11.405   5.407  72.613  1.00  0.00    -0.327 C  
BRANCH   3   4
HETATM    4  C   UNL     1     -11.899   6.728  72.046  1.00  0.00    -0.314 C  
BRANCH   4   5
HETATM    5  O   UNL     1     -12.249   6.619  70.664  1.00  0.00    -0.377 OA 
BRANCH   5   6
HETATM    6  C   UNL     1     -11.194   6.455  69.831  1.00  0.00    -0.420 C  
HETATM    7  O   UNL     1     -10.992   5.492  69.106  1.00  0.00    -0.225 OA 
BRANCH   6   8
HETATM    8  C   UNL     1     -10.411   7.720  69.782  1.00  0.00    -0.233 A  
HETATM    9  C   UNL     1      -9.037   7.661  70.046  1.00  0.00    -0.151 A  
HETATM   10  C   UNL     1      -8.240   8.797  69.883  1.00  0.00    -0.118 A  
HETATM   11  C   UNL     1      -8.824   9.988  69.458  1.00  0.00    -0.195 A  
HETATM   12  C   UNL     1     -10.187  10.063  69.198  1.00  0.00    -0.224 A  
HETATM   13  O   UNL     1      -8.085  11.118  69.275  1.00  0.00    -0.344 OA 
HETATM   14  C   UNL     1     -10.986   8.931  69.364  1.00  0.00    -0.064 A  
HETATM   15  H   UNL     1      -8.483  11.930  68.985  1.00  0.00     0.000 HD 
ENDBRANCH   6   8
ENDBRANCH   5   6
ENDBRANCH   4   5
ENDBRANCH   3   4
ENDBRANCH   2   3
TORSDOF 5
ENDMDL
MODEL      166
REMARK 921   NORMALIZED FREE ENERGY PREDICTED BY IDOCK:   -3.03 KCAL/MOL
REMARK 922        TOTAL FREE ENERGY PREDICTED BY IDOCK:   -4.22 KCAL/MOL
REMARK 923 INTER-LIGAND FREE ENERGY PREDICTED BY IDOCK:   -3.85 KCAL/MOL
REMARK 924 INTRA-LIGAND FREE ENERGY PREDICTED BY IDOCK:   -0.37 KCAL/MOL
REMARK 927      BINDING AFFINITY PREDICTED BY RF-SCORE:    0.00 PKD
ROOT
HETATM    1  C   UNL     1      -7.418   5.954  67.619  1.00  0.00    -0.078 C  
HETATM    2  C   UNL     1      -7.112   7.229  68.380  1.00  0.00    -0.081 C  
ENDROOT
BRANCH   2   3
HETATM    3  C   UNL     1      -7.953   7.370  69.648  1.00  0.00    -0.126 C  
BRANCH   3   4
HETATM    4  C   UNL     1      -7.355   8.455  70.529  1.00  0.00    -0.057 C  
BRANCH   4   5
HETATM    5  O   UNL     1      -8.363   9.244  71.166  1.00  0.00    -0.291 OA 
BRANCH   5   6
HETATM    6  C   UNL     1      -8.867   8.699  72.299  1.00  0.00    -0.148 C  
HETATM    7  O   UNL     1      -8.315   8.666  73.389  1.00  0.00    -0.398 OA 
BRANCH   6   8
HETATM    8  C   UNL     1     -10.287   8.318  72.066  1.00  0.00    -0.350 A  
HETATM    9  C   UNL     1     -11.169   9.300  71.595  1.00  0.00    -0.449 A  
HETATM   10  C   UNL     1     -12.476   8.957  71.238  1.00  0.00    -0.321 A  
HETATM   11  C   UNL     1     -12.894   7.634  71.355  1.00  0.00    -0.319 A  
HETATM   12  C   UNL     1     -12.031   6.651  71.824  1.00  0.00    -0.391 A  
HETATM   13  O   UNL     1     -14.155   7.252  71.008  1.00  0.00    -0.589 OA 
HETATM   14  C   UNL     1     -10.727   6.990  72.187  1.00  0.00    -0.247 A  
HETATM   15  H   UNL     1     -14.440   6.349  71.087  1.00  0.00     0.000 HD 
ENDBRANCH   6   8
ENDBRANCH   5   6
ENDBRANCH   4   5
ENDBRANCH   3   4
ENDBRANCH   2   3
TORSDOF 5
ENDMDL
MODEL      167
REMARK 921   NORMALIZED FREE ENERGY PREDICTED BY IDOCK:   -3.02 KCAL/MOL
REMARK 922        TOTAL FREE ENERGY PREDICTED BY IDOCK:   -4.21 KCAL/MOL
REMARK 923 INTER-LIGAND FREE ENERGY PREDICTED BY IDOCK:   -3.84 KCAL/MOL
REMARK 924 INTRA-LIGAND FREE ENERGY PREDICTED BY IDOCK:   -0.37 KCAL/MOL
REMARK 927      BINDING AFFINITY PREDICTED BY RF-SCORE:    0.00 PKD
ROOT
HETATM    1  C   UNL     1      -7.553  10.740  65.709  1.00  0.00    -0.079 C  
HETATM    2  C   UNL     1      -8.689   9.737  65.689  1.00  0.00    -0.168 C  
ENDROOT
BRANCH   2   3
HETATM    3  C   UNL     1      -9.204   9.406  67.089  1.00  0.00    -0.159 C  
BRANCH   3   4
HETATM    4  C   UNL     1      -8.162   9.817  68.117  1.00  0.00    -0.109 C  
BRANCH   4   5
HETATM    5  O   UNL     1      -8.738  10.026  69.408  1.00  0.00    -0.160 OA 
BRANCH   5   6
HETATM    6  C   UNL     1      -8.923   8.894  70.128  1.00  0.00    -0.172 C  
HETATM    7  O   UNL     1      -8.116   7.986  70.262  1.00  0.00    -0.108 OA 
BRANCH   6   8
HETATM    8  C   UNL     1     -10.192   9.008  70.899  1.00  0.00    -0.324 A  
HETATM    9  C   UNL     1     -10.957  10.172  70.749  1.00  0.00    -0.313 A  
HETATM   10  C   UNL     1     -12.215  10.268  71.348  1.00  0.00    -0.481 A  
HETATM   11  C   UNL     1     -12.701   9.199  72.097  1.00  0.00    -0.395 A  
HETATM   12  C   UNL     1     -11.951   8.040  72.258  1.00  0.00    -0.412 A  
HETATM   13  O   UNL     1     -13.927   9.244  72.690  1.00  0.00    -0.688 OA 
HETATM   14  C   UNL     1     -10.692   7.943  71.665  1.00  0.00    -0.268 A  
HETATM   15  H   UNL     1     -14.258   8.514  73.200  1.00  0.00     0.000 HD 
ENDBRANCH   6   8
ENDBRANCH   5   6
ENDBRANCH   4   5
ENDBRANCH   3   4
ENDBRANCH   2   3
TORSDOF 5
ENDMDL
MODEL      168
REMARK 921   NORMALIZED FREE ENERGY PREDICTED BY IDOCK:   -3.02 KCAL/MOL
REMARK 922        TOTAL FREE ENERGY PREDICTED BY IDOCK:   -4.20 KCAL/MOL
REMARK 923 INTER-LIGAND FREE ENERGY PREDICTED BY IDOCK:   -3.88 KCAL/MOL
REMARK 924 INTRA-LIGAND FREE ENERGY PREDICTED BY IDOCK:   -0.32 KCAL/MOL
REMARK 927      BINDING AFFINITY PREDICTED BY RF-SCORE:    0.00 PKD
ROOT
HETATM    1  C   UNL     1      -9.585  10.241  63.681  1.00  0.00    -0.334 C  
HETATM    2  C   UNL     1      -9.039   9.492  64.881  1.00  0.00    -0.276 C  
ENDROOT
BRANCH   2   3
HETATM    3  C   UNL     1      -9.935   9.623  66.111  1.00  0.00    -0.346 C  
BRANCH   3   4
HETATM    4  C   UNL     1      -9.156  10.296  67.230  1.00  0.00    -0.138 C  
BRANCH   4   5
HETATM    5  O   UNL     1      -9.495   9.765  68.513  1.00  0.00    -0.142 OA 
BRANCH   5   6
HETATM    6  C   UNL     1     -10.462  10.452  69.165  1.00  0.00    -0.227 C  
HETATM    7  O   UNL     1     -10.754  11.626  68.990  1.00  0.00    -0.209 OA 
BRANCH   6   8
HETATM    8  C   UNL     1     -11.257   9.506  69.995  1.00  0.00    -0.243 A  
HETATM    9  C   UNL     1     -12.419   9.982  70.615  1.00  0.00    -0.321 A  
HETATM   10  C   UNL     1     -13.265   9.100  71.294  1.00  0.00    -0.296 A  
HETATM   11  C   UNL     1     -12.942   7.747  71.350  1.00  0.00    -0.288 A  
HETATM   12  C   UNL     1     -11.790   7.261  70.743  1.00  0.00    -0.324 A  
HETATM   13  O   UNL     1     -13.743   6.849  71.990  1.00  0.00    -0.538 OA 
HETATM   14  C   UNL     1     -10.941   8.140  70.069  1.00  0.00    -0.199 A  
HETATM   15  H   UNL     1     -13.523   5.926  72.028  1.00  0.00     0.000 HD 
ENDBRANCH   6   8
ENDBRANCH   5   6
ENDBRANCH   4   5
ENDBRANCH   3   4
ENDBRANCH   2   3
TORSDOF 5
ENDMDL
MODEL      169
REMARK 921   NORMALIZED FREE ENERGY PREDICTED BY IDOCK:   -3.02 KCAL/MOL
REMARK 922        TOTAL FREE ENERGY PREDICTED BY IDOCK:   -4.20 KCAL/MOL
REMARK 923 INTER-LIGAND FREE ENERGY PREDICTED BY IDOCK:   -3.99 KCAL/MOL
REMARK 924 INTRA-LIGAND FREE ENERGY PREDICTED BY IDOCK:   -0.21 KCAL/MOL
REMARK 927      BINDING AFFINITY PREDICTED BY RF-SCORE:    0.00 PKD
ROOT
HETATM    1  C   UNL     1     -10.966   7.904  72.787  1.00  0.00    -0.456 C  
HETATM    2  C   UNL     1     -10.420   8.980  71.870  1.00  0.00    -0.373 C  
ENDROOT
BRANCH   2   3
HETATM    3  C   UNL     1     -11.444   9.443  70.835  1.00  0.00    -0.382 C  
BRANCH   3   4
HETATM    4  C   UNL     1     -10.750   9.646  69.498  1.00  0.00    -0.232 C  
BRANCH   4   5
HETATM    5  O   UNL     1     -10.432  11.020  69.263  1.00  0.00    -0.219 OA 
BRANCH   5   6
HETATM    6  C   UNL     1     -10.924  11.518  68.103  1.00  0.00    -0.228 C  
HETATM    7  O   UNL     1     -11.896  11.097  67.495  1.00  0.00    -0.591 OA 
BRANCH   6   8
HETATM    8  C   UNL     1     -10.216  12.787  67.779  1.00  0.00    -0.223 A  
HETATM    9  C   UNL     1      -8.853  12.724  67.462  1.00  0.00    -0.187 A  
HETATM   10  C   UNL     1      -8.180  13.867  67.024  1.00  0.00    -0.069 A  
HETATM   11  C   UNL     1      -8.874  15.069  66.908  1.00  0.00    -0.258 A  
HETATM   12  C   UNL     1     -10.225  15.147  67.223  1.00  0.00    -0.243 A  
HETATM   13  O   UNL     1      -8.262  16.206  66.474  1.00  0.00    -0.263 OA 
HETATM   14  C   UNL     1     -10.899  14.007  67.665  1.00  0.00    -0.270 A  
HETATM   15  H   UNL     1      -8.736  17.026  66.394  1.00  0.00     0.000 HD 
ENDBRANCH   6   8
ENDBRANCH   5   6
ENDBRANCH   4   5
ENDBRANCH   3   4
ENDBRANCH   2   3
TORSDOF 5
ENDMDL
MODEL      170
REMARK 921   NORMALIZED FREE ENERGY PREDICTED BY IDOCK:   -3.02 KCAL/MOL
REMARK 922        TOTAL FREE ENERGY PREDICTED BY IDOCK:   -4.20 KCAL/MOL
REMARK 923 INTER-LIGAND FREE ENERGY PREDICTED BY IDOCK:   -3.98 KCAL/MOL
REMARK 924 INTRA-LIGAND FREE ENERGY PREDICTED BY IDOCK:   -0.22 KCAL/MOL
REMARK 927      BINDING AFFINITY PREDICTED BY RF-SCORE:    0.00 PKD
ROOT
HETATM    1  C   UNL     1      -9.758   4.221  69.520  1.00  0.00    -0.272 C  
HETATM    2  C   UNL     1     -10.196   5.642  69.817  1.00  0.00    -0.321 C  
ENDROOT
BRANCH   2   3
HETATM    3  C   UNL     1     -11.122   6.207  68.742  1.00  0.00    -0.398 C  
BRANCH   3   4
HETATM    4  C   UNL     1     -10.558   7.525  68.235  1.00  0.00    -0.136 C  
BRANCH   4   5
HETATM    5  O   UNL     1     -10.860   8.610  69.115  1.00  0.00    -0.165 OA 
BRANCH   5   6
HETATM    6  C   UNL     1      -9.930   9.594  69.130  1.00  0.00    -0.185 C  
HETATM    7  O   UNL     1      -8.747   9.463  69.405  1.00  0.00    -0.139 OA 
BRANCH   6   8
HETATM    8  C   UNL     1     -10.527  10.836  68.565  1.00  0.00    -0.208 A  
HETATM    9  C   UNL     1     -10.590  10.968  67.172  1.00  0.00    -0.294 A  
HETATM   10  C   UNL     1     -11.258  12.052  66.599  1.00  0.00    -0.380 A  
HETATM   11  C   UNL     1     -11.858  13.001  67.422  1.00  0.00    -0.357 A  
HETATM   12  C   UNL     1     -11.799  12.886  68.806  1.00  0.00    -0.353 A  
HETATM   13  O   UNL     1     -12.529  14.069  66.907  1.00  0.00    -0.529 OA 
HETATM   14  C   UNL     1     -11.128  11.807  69.382  1.00  0.00    -0.245 A  
HETATM   15  H   UNL     1     -12.939  14.717  67.469  1.00  0.00     0.000 HD 
ENDBRANCH   6   8
ENDBRANCH   5   6
ENDBRANCH   4   5
ENDBRANCH   3   4
ENDBRANCH   2   3
TORSDOF 5
ENDMDL
MODEL      171
REMARK 921   NORMALIZED FREE ENERGY PREDICTED BY IDOCK:   -3.02 KCAL/MOL
REMARK 922        TOTAL FREE ENERGY PREDICTED BY IDOCK:   -4.20 KCAL/MOL
REMARK 923 INTER-LIGAND FREE ENERGY PREDICTED BY IDOCK:   -3.97 KCAL/MOL
REMARK 924 INTRA-LIGAND FREE ENERGY PREDICTED BY IDOCK:   -0.22 KCAL/MOL
REMARK 927      BINDING AFFINITY PREDICTED BY RF-SCORE:    0.00 PKD
ROOT
HETATM    1  C   UNL     1     -13.075  10.725  71.658  1.00  0.00    -0.551 C  
HETATM    2  C   UNL     1     -13.354   9.322  72.159  1.00  0.00    -0.537 C  
ENDROOT
BRANCH   2   3
HETATM    3  C   UNL     1     -12.095   8.459  72.217  1.00  0.00    -0.456 C  
BRANCH   3   4
HETATM    4  C   UNL     1     -12.363   7.132  71.524  1.00  0.00    -0.370 C  
BRANCH   4   5
HETATM    5  O   UNL     1     -11.158   6.405  71.275  1.00  0.00    -0.258 OA 
BRANCH   5   6
HETATM    6  C   UNL     1     -11.042   5.931  70.012  1.00  0.00    -0.341 C  
HETATM    7  O   UNL     1     -11.469   6.466  69.000  1.00  0.00    -0.337 OA 
BRANCH   6   8
HETATM    8  C   UNL     1     -10.137   4.749  70.017  1.00  0.00    -0.308 A  
HETATM    9  C   UNL     1      -9.568   4.344  68.802  1.00  0.00    -0.224 A  
HETATM   10  C   UNL     1      -8.612   3.325  68.780  1.00  0.00    -0.120 A  
HETATM   11  C   UNL     1      -8.232   2.715  69.972  1.00  0.00    -0.041 A  
HETATM   12  C   UNL     1      -8.791   3.103  71.184  1.00  0.00    -0.140 A  
HETATM   13  O   UNL     1      -7.296   1.725  70.000  1.00  0.00    -0.036 OA 
HETATM   14  C   UNL     1      -9.750   4.118  71.209  1.00  0.00    -0.255 A  
HETATM   15  H   UNL     1      -7.036   1.309  70.813  1.00  0.00     0.000 HD 
ENDBRANCH   6   8
ENDBRANCH   5   6
ENDBRANCH   4   5
ENDBRANCH   3   4
ENDBRANCH   2   3
TORSDOF 5
ENDMDL
MODEL      172
REMARK 921   NORMALIZED FREE ENERGY PREDICTED BY IDOCK:   -3.01 KCAL/MOL
REMARK 922        TOTAL FREE ENERGY PREDICTED BY IDOCK:   -4.19 KCAL/MOL
REMARK 923 INTER-LIGAND FREE ENERGY PREDICTED BY IDOCK:   -3.81 KCAL/MOL
REMARK 924 INTRA-LIGAND FREE ENERGY PREDICTED BY IDOCK:   -0.39 KCAL/MOL
REMARK 927      BINDING AFFINITY PREDICTED BY RF-SCORE:    0.00 PKD
ROOT
HETATM    1  C   UNL     1      -8.452   3.834  69.104  1.00  0.00    -0.100 C  
HETATM    2  C   UNL     1      -8.787   4.562  67.816  1.00  0.00    -0.119 C  
ENDROOT
BRANCH   2   3
HETATM    3  C   UNL     1      -8.413   6.042  67.866  1.00  0.00    -0.115 C  
BRANCH   3   4
HETATM    4  C   UNL     1      -9.617   6.849  68.326  1.00  0.00    -0.128 C  
BRANCH   4   5
HETATM    5  O   UNL     1      -9.273   7.787  69.348  1.00  0.00    -0.149 OA 
BRANCH   5   6
HETATM    6  C   UNL     1      -9.455   7.331  70.610  1.00  0.00    -0.164 C  
HETATM    7  O   UNL     1      -8.631   6.730  71.284  1.00  0.00    -0.124 OA 
BRANCH   6   8
HETATM    8  C   UNL     1     -10.750   7.846  71.133  1.00  0.00    -0.251 A  
HETATM    9  C   UNL     1     -11.831   6.959  71.218  1.00  0.00    -0.385 A  
HETATM   10  C   UNL     1     -13.025   7.362  71.823  1.00  0.00    -0.365 A  
HETATM   11  C   UNL     1     -13.131   8.652  72.338  1.00  0.00    -0.349 A  
HETATM   12  C   UNL     1     -12.069   9.543  72.256  1.00  0.00    -0.073 A  
HETATM   13  O   UNL     1     -14.271   9.084  72.946  1.00  0.00    -1.042 OA 
HETATM   14  C   UNL     1     -10.877   9.146  71.648  1.00  0.00    -0.442 A  
HETATM   15  H   UNL     1     -14.343   9.964  73.297  1.00  0.00     0.000 HD 
ENDBRANCH   6   8
ENDBRANCH   5   6
ENDBRANCH   4   5
ENDBRANCH   3   4
ENDBRANCH   2   3
TORSDOF 5
ENDMDL
MODEL      173
REMARK 921   NORMALIZED FREE ENERGY PREDICTED BY IDOCK:   -2.98 KCAL/MOL
REMARK 922        TOTAL FREE ENERGY PREDICTED BY IDOCK:   -4.16 KCAL/MOL
REMARK 923 INTER-LIGAND FREE ENERGY PREDICTED BY IDOCK:   -3.87 KCAL/MOL
REMARK 924 INTRA-LIGAND FREE ENERGY PREDICTED BY IDOCK:   -0.28 KCAL/MOL
REMARK 927      BINDING AFFINITY PREDICTED BY RF-SCORE:    0.00 PKD
ROOT
HETATM    1  C   UNL     1      -7.794   8.770  70.884  1.00  0.00    -0.137 C  
HETATM    2  C   UNL     1      -8.825   9.130  69.832  1.00  0.00    -0.176 C  
ENDROOT
BRANCH   2   3
HETATM    3  C   UNL     1      -8.320   8.890  68.410  1.00  0.00    -0.125 C  
BRANCH   3   4
HETATM    4  C   UNL     1      -9.339   8.056  67.650  1.00  0.00    -0.143 C  
BRANCH   4   5
HETATM    5  O   UNL     1      -9.951   8.794  66.590  1.00  0.00    -0.239 OA 
BRANCH   5   6
HETATM    6  C   UNL     1      -9.081   9.283  65.675  1.00  0.00    -0.216 C  
HETATM    7  O   UNL     1      -8.145   8.677  65.175  1.00  0.00    -0.125 OA 
BRANCH   6   8
HETATM    8  C   UNL     1      -9.556  10.618  65.217  1.00  0.00    -0.293 A  
HETATM    9  C   UNL     1     -10.097  10.724  63.929  1.00  0.00    -0.397 A  
HETATM   10  C   UNL     1     -10.674  11.924  63.505  1.00  0.00    -0.504 A  
HETATM   11  C   UNL     1     -10.706  13.013  64.373  1.00  0.00    -0.394 A  
HETATM   12  C   UNL     1     -10.169  12.924  65.651  1.00  0.00    -0.295 A  
HETATM   13  O   UNL     1     -11.268  14.199  64.007  1.00  0.00    -0.581 OA 
HETATM   14  C   UNL     1      -9.587  11.728  66.076  1.00  0.00    -0.248 A  
HETATM   15  H   UNL     1     -11.290  14.941  64.599  1.00  0.00     0.000 HD 
ENDBRANCH   6   8
ENDBRANCH   5   6
ENDBRANCH   4   5
ENDBRANCH   3   4
ENDBRANCH   2   3
TORSDOF 5
ENDMDL
MODEL      174
REMARK 921   NORMALIZED FREE ENERGY PREDICTED BY IDOCK:   -2.98 KCAL/MOL
REMARK 922        TOTAL FREE ENERGY PREDICTED BY IDOCK:   -4.15 KCAL/MOL
REMARK 923 INTER-LIGAND FREE ENERGY PREDICTED BY IDOCK:   -3.75 KCAL/MOL
REMARK 924 INTRA-LIGAND FREE ENERGY PREDICTED BY IDOCK:   -0.40 KCAL/MOL
REMARK 927      BINDING AFFINITY PREDICTED BY RF-SCORE:    0.00 PKD
ROOT
HETATM    1  C   UNL     1      -8.578  11.422  67.495  1.00  0.00    -0.137 C  
HETATM    2  C   UNL     1      -7.211  12.027  67.241  1.00  0.00    -0.150 C  
ENDROOT
BRANCH   2   3
HETATM    3  C   UNL     1      -7.195  13.542  67.443  1.00  0.00    -0.113 C  
BRANCH   3   4
HETATM    4  C   UNL     1      -7.972  13.889  68.703  1.00  0.00    -0.109 C  
BRANCH   4   5
HETATM    5  O   UNL     1      -8.412  15.249  68.703  1.00  0.00    -0.150 OA 
BRANCH   5   6
HETATM    6  C   UNL     1      -9.568  15.462  68.031  1.00  0.00    -0.206 C  
HETATM    7  O   UNL     1     -10.510  14.687  67.955  1.00  0.00    -0.232 OA 
BRANCH   6   8
HETATM    8  C   UNL     1      -9.602  16.872  67.556  1.00  0.00    -0.245 A  
HETATM    9  C   UNL     1     -10.751  17.632  67.813  1.00  0.00    -0.336 A  
HETATM   10  C   UNL     1     -10.777  18.994  67.504  1.00  0.00    -0.532 A  
HETATM   11  C   UNL     1      -9.653  19.589  66.937  1.00  0.00    -0.347 A  
HETATM   12  C   UNL     1      -8.508  18.848  66.672  1.00  0.00    -0.308 A  
HETATM   13  O   UNL     1      -9.629  20.917  66.629  1.00  0.00    -0.635 OA 
HETATM   14  C   UNL     1      -8.481  17.485  66.975  1.00  0.00    -0.252 A  
HETATM   15  H   UNL     1      -8.862  21.323  66.243  1.00  0.00     0.000 HD 
ENDBRANCH   6   8
ENDBRANCH   5   6
ENDBRANCH   4   5
ENDBRANCH   3   4
ENDBRANCH   2   3
TORSDOF 5
ENDMDL
MODEL      175
REMARK 921   NORMALIZED FREE ENERGY PREDICTED BY IDOCK:   -2.96 KCAL/MOL
REMARK 922        TOTAL FREE ENERGY PREDICTED BY IDOCK:   -4.12 KCAL/MOL
REMARK 923 INTER-LIGAND FREE ENERGY PREDICTED BY IDOCK:   -4.03 KCAL/MOL
REMARK 924 INTRA-LIGAND FREE ENERGY PREDICTED BY IDOCK:   -0.09 KCAL/MOL
REMARK 927      BINDING AFFINITY PREDICTED BY RF-SCORE:    0.00 PKD
ROOT
HETATM    1  C   UNL     1      -9.848  16.217  69.300  1.00  0.00    -0.250 C  
HETATM    2  C   UNL     1      -8.926  15.810  68.168  1.00  0.00    -0.180 C  
ENDROOT
BRANCH   2   3
HETATM    3  C   UNL     1      -9.508  14.685  67.313  1.00  0.00    -0.221 C  
BRANCH   3   4
HETATM    4  C   UNL     1     -10.112  13.626  68.221  1.00  0.00    -0.240 C  
BRANCH   4   5
HETATM    5  O   UNL     1     -11.508  13.444  67.977  1.00  0.00    -0.268 OA 
BRANCH   5   6
HETATM    6  C   UNL     1     -11.799  12.899  66.772  1.00  0.00    -0.385 C  
HETATM    7  O   UNL     1     -12.274  13.486  65.812  1.00  0.00    -0.407 OA 
BRANCH   6   8
HETATM    8  C   UNL     1     -11.267  11.509  66.725  1.00  0.00    -0.350 A  
HETATM    9  C   UNL     1     -10.578  11.100  65.576  1.00  0.00    -0.289 A  
HETATM   10  C   UNL     1      -9.949   9.853  65.540  1.00  0.00    -0.363 A  
HETATM   11  C   UNL     1     -10.014   9.020  66.654  1.00  0.00    -0.278 A  
HETATM   12  C   UNL     1     -10.698   9.410  67.799  1.00  0.00    -0.290 A  
HETATM   13  O   UNL     1      -9.407   7.801  66.668  1.00  0.00    -0.168 OA 
HETATM   14  C   UNL     1     -11.331  10.654  67.837  1.00  0.00    -0.342 A  
HETATM   15  H   UNL     1      -9.451   7.233  67.428  1.00  0.00     0.000 HD 
ENDBRANCH   6   8
ENDBRANCH   5   6
ENDBRANCH   4   5
ENDBRANCH   3   4
ENDBRANCH   2   3
TORSDOF 5
ENDMDL
MODEL      176
REMARK 921   NORMALIZED FREE ENERGY PREDICTED BY IDOCK:   -2.96 KCAL/MOL
REMARK 922        TOTAL FREE ENERGY PREDICTED BY IDOCK:   -4.12 KCAL/MOL
REMARK 923 INTER-LIGAND FREE ENERGY PREDICTED BY IDOCK:   -3.69 KCAL/MOL
REMARK 924 INTRA-LIGAND FREE ENERGY PREDICTED BY IDOCK:   -0.43 KCAL/MOL
REMARK 927      BINDING AFFINITY PREDICTED BY RF-SCORE:    0.00 PKD
ROOT
HETATM    1  C   UNL     1      -8.614   5.099  68.937  1.00  0.00    -0.092 C  
HETATM    2  C   UNL     1      -9.150   6.249  68.107  1.00  0.00    -0.112 C  
ENDROOT
BRANCH   2   3
HETATM    3  C   UNL     1      -8.576   6.266  66.691  1.00  0.00    -0.119 C  
BRANCH   3   4
HETATM    4  C   UNL     1      -8.825   7.629  66.065  1.00  0.00    -0.155 C  
BRANCH   4   5
HETATM    5  O   UNL     1     -10.066   8.195  66.492  1.00  0.00    -0.267 OA 
BRANCH   5   6
HETATM    6  C   UNL     1     -10.225   9.501  66.171  1.00  0.00    -0.202 C  
HETATM    7  O   UNL     1     -10.065   9.995  65.065  1.00  0.00    -0.323 OA 
BRANCH   6   8
HETATM    8  C   UNL     1     -10.822  10.219  67.331  1.00  0.00    -0.336 A  
HETATM    9  C   UNL     1     -10.694   9.645  68.603  1.00  0.00    -0.233 A  
HETATM   10  C   UNL     1     -11.120  10.344  69.735  1.00  0.00    -0.352 A  
HETATM   11  C   UNL     1     -11.675  11.613  69.588  1.00  0.00    -0.350 A  
HETATM   12  C   UNL     1     -11.812  12.193  68.332  1.00  0.00    -0.360 A  
HETATM   13  O   UNL     1     -12.094  12.336  70.664  1.00  0.00    -0.439 OA 
HETATM   14  C   UNL     1     -11.391  11.495  67.199  1.00  0.00    -0.354 A  
HETATM   15  H   UNL     1     -12.471  13.202  70.564  1.00  0.00     0.000 HD 
ENDBRANCH   6   8
ENDBRANCH   5   6
ENDBRANCH   4   5
ENDBRANCH   3   4
ENDBRANCH   2   3
TORSDOF 5
ENDMDL
MODEL      177
REMARK 921   NORMALIZED FREE ENERGY PREDICTED BY IDOCK:   -2.94 KCAL/MOL
REMARK 922        TOTAL FREE ENERGY PREDICTED BY IDOCK:   -4.11 KCAL/MOL
REMARK 923 INTER-LIGAND FREE ENERGY PREDICTED BY IDOCK:   -3.81 KCAL/MOL
REMARK 924 INTRA-LIGAND FREE ENERGY PREDICTED BY IDOCK:   -0.30 KCAL/MOL
REMARK 927      BINDING AFFINITY PREDICTED BY RF-SCORE:    0.00 PKD
ROOT
HETATM    1  C   UNL     1     -13.721  13.388  72.519  1.00  0.00    -0.636 C  
HETATM    2  C   UNL     1     -13.178  12.130  71.872  1.00  0.00    -0.474 C  
ENDROOT
BRANCH   2   3
HETATM    3  C   UNL     1     -12.351  12.424  70.621  1.00  0.00    -0.367 C  
BRANCH   3   4
HETATM    4  C   UNL     1     -12.116  11.130  69.859  1.00  0.00    -0.344 C  
BRANCH   4   5
HETATM    5  O   UNL     1     -10.724  10.837  69.718  1.00  0.00    -0.245 OA 
BRANCH   5   6
HETATM    6  C   UNL     1     -10.333  10.574  68.448  1.00  0.00    -0.176 C  
HETATM    7  O   UNL     1     -10.892   9.822  67.664  1.00  0.00    -0.282 OA 
BRANCH   6   8
HETATM    8  C   UNL     1      -9.225  11.497  68.078  1.00  0.00    -0.175 A  
HETATM    9  C   UNL     1      -9.512  12.862  67.949  1.00  0.00    -0.208 A  
HETATM   10  C   UNL     1      -8.481  13.780  67.734  1.00  0.00    -0.181 A  
HETATM   11  C   UNL     1      -7.167  13.326  67.647  1.00  0.00    -0.162 A  
HETATM   12  C   UNL     1      -6.868  11.975  67.768  1.00  0.00    -0.100 A  
HETATM   13  O   UNL     1      -6.129  14.186  67.449  1.00  0.00    -0.343 OA 
HETATM   14  C   UNL     1      -7.896  11.055  67.978  1.00  0.00    -0.112 A  
HETATM   15  H   UNL     1      -5.232  13.877  67.390  1.00  0.00     0.000 HD 
ENDBRANCH   6   8
ENDBRANCH   5   6
ENDBRANCH   4   5
ENDBRANCH   3   4
ENDBRANCH   2   3
TORSDOF 5
ENDMDL
MODEL      178
REMARK 921   NORMALIZED FREE ENERGY PREDICTED BY IDOCK:   -2.91 KCAL/MOL
REMARK 922        TOTAL FREE ENERGY PREDICTED BY IDOCK:   -4.06 KCAL/MOL
REMARK 923 INTER-LIGAND FREE ENERGY PREDICTED BY IDOCK:   -3.81 KCAL/MOL
REMARK 924 INTRA-LIGAND FREE ENERGY PREDICTED BY IDOCK:   -0.25 KCAL/MOL
REMARK 927      BINDING AFFINITY PREDICTED BY RF-SCORE:    0.00 PKD
ROOT
HETATM    1  C   UNL     1      -6.979  13.800  68.367  1.00  0.00    -0.103 C  
HETATM    2  C   UNL     1      -6.023  12.710  68.812  1.00  0.00    -0.067 C  
ENDROOT
BRANCH   2   3
HETATM    3  C   UNL     1      -6.456  11.323  68.340  1.00  0.00    -0.057 C  
BRANCH   3   4
HETATM    4  C   UNL     1      -7.567  11.467  67.312  1.00  0.00    -0.138 C  
BRANCH   4   5
HETATM    5  O   UNL     1      -8.363  10.283  67.216  1.00  0.00    -0.121 OA 
BRANCH   5   6
HETATM    6  C   UNL     1      -9.644  10.435  67.627  1.00  0.00    -0.149 C  
HETATM    7  O   UNL     1     -10.086  10.145  68.729  1.00  0.00    -0.171 OA 
BRANCH   6   8
HETATM    8  C   UNL     1     -10.400  11.196  66.594  1.00  0.00    -0.286 A  
HETATM    9  C   UNL     1     -10.223  10.846  65.249  1.00  0.00    -0.351 A  
HETATM   10  C   UNL     1     -11.007  11.442  64.259  1.00  0.00    -0.390 A  
HETATM   11  C   UNL     1     -11.964  12.388  64.619  1.00  0.00    -0.394 A  
HETATM   12  C   UNL     1     -12.148  12.748  65.949  1.00  0.00    -0.485 A  
HETATM   13  O   UNL     1     -12.759  12.987  63.689  1.00  0.00    -0.700 OA 
HETATM   14  C   UNL     1     -11.362  12.158  66.940  1.00  0.00    -0.402 A  
HETATM   15  H   UNL     1     -13.413  13.631  63.935  1.00  0.00     0.000 HD 
ENDBRANCH   6   8
ENDBRANCH   5   6
ENDBRANCH   4   5
ENDBRANCH   3   4
ENDBRANCH   2   3
TORSDOF 5
ENDMDL
MODEL      179
REMARK 921   NORMALIZED FREE ENERGY PREDICTED BY IDOCK:   -2.91 KCAL/MOL
REMARK 922        TOTAL FREE ENERGY PREDICTED BY IDOCK:   -4.06 KCAL/MOL
REMARK 923 INTER-LIGAND FREE ENERGY PREDICTED BY IDOCK:   -3.59 KCAL/MOL
REMARK 924 INTRA-LIGAND FREE ENERGY PREDICTED BY IDOCK:   -0.47 KCAL/MOL
REMARK 927      BINDING AFFINITY PREDICTED BY RF-SCORE:    0.00 PKD
ROOT
HETATM    1  C   UNL     1     -10.750   7.110  67.244  1.00  0.00    -0.399 C  
HETATM    2  C   UNL     1     -10.268   7.265  68.673  1.00  0.00    -0.191 C  
ENDROOT
BRANCH   2   3
HETATM    3  C   UNL     1      -8.757   7.477  68.762  1.00  0.00    -0.128 C  
BRANCH   3   4
HETATM    4  C   UNL     1      -8.473   8.931  69.103  1.00  0.00    -0.132 C  
BRANCH   4   5
HETATM    5  O   UNL     1      -9.511   9.801  68.644  1.00  0.00    -0.146 OA 
BRANCH   5   6
HETATM    6  C   UNL     1      -9.070  10.961  68.104  1.00  0.00    -0.155 C  
HETATM    7  O   UNL     1      -8.415  11.819  68.677  1.00  0.00    -0.142 OA 
BRANCH   6   8
HETATM    8  C   UNL     1      -9.334  10.948  66.639  1.00  0.00    -0.191 A  
HETATM    9  C   UNL     1      -8.621  10.041  65.844  1.00  0.00    -0.150 A  
HETATM   10  C   UNL     1      -8.929   9.900  64.489  1.00  0.00    -0.272 A  
HETATM   11  C   UNL     1      -9.948  10.671  63.935  1.00  0.00    -0.326 A  
HETATM   12  C   UNL     1     -10.661  11.578  64.709  1.00  0.00    -0.362 A  
HETATM   13  O   UNL     1     -10.291  10.560  62.620  1.00  0.00    -0.715 OA 
HETATM   14  C   UNL     1     -10.352  11.724  66.063  1.00  0.00    -0.276 A  
HETATM   15  H   UNL     1     -10.987  11.085  62.242  1.00  0.00     0.000 HD 
ENDBRANCH   6   8
ENDBRANCH   5   6
ENDBRANCH   4   5
ENDBRANCH   3   4
ENDBRANCH   2   3
TORSDOF 5
ENDMDL
MODEL      180
REMARK 921   NORMALIZED FREE ENERGY PREDICTED BY IDOCK:   -2.90 KCAL/MOL
REMARK 922        TOTAL FREE ENERGY PREDICTED BY IDOCK:   -4.05 KCAL/MOL
REMARK 923 INTER-LIGAND FREE ENERGY PREDICTED BY IDOCK:   -3.74 KCAL/MOL
REMARK 924 INTRA-LIGAND FREE ENERGY PREDICTED BY IDOCK:   -0.31 KCAL/MOL
REMARK 927      BINDING AFFINITY PREDICTED BY RF-SCORE:    0.00 PKD
ROOT
HETATM    1  C   UNL     1      -9.644  14.637  66.453  1.00  0.00    -0.323 C  
HETATM    2  C   UNL     1     -10.530  14.627  67.683  1.00  0.00    -0.243 C  
ENDROOT
BRANCH   2   3
HETATM    3  C   UNL     1     -11.470  13.423  67.718  1.00  0.00    -0.351 C  
BRANCH   3   4
HETATM    4  C   UNL     1     -10.697  12.171  67.334  1.00  0.00    -0.234 C  
BRANCH   4   5
HETATM    5  O   UNL     1     -10.650  11.222  68.402  1.00  0.00    -0.179 OA 
BRANCH   5   6
HETATM    6  C   UNL     1      -9.404  10.796  68.717  1.00  0.00    -0.182 C  
HETATM    7  O   UNL     1      -8.361  11.189  68.218  1.00  0.00    -0.129 OA 
BRANCH   6   8
HETATM    8  C   UNL     1      -9.480   9.911  69.912  1.00  0.00    -0.256 A  
HETATM    9  C   UNL     1      -8.289   9.377  70.419  1.00  0.00    -0.234 A  
HETATM   10  C   UNL     1      -8.296   8.651  71.613  1.00  0.00    -0.216 A  
HETATM   11  C   UNL     1      -9.497   8.461  72.292  1.00  0.00    -0.297 A  
HETATM   12  C   UNL     1     -10.687   8.981  71.799  1.00  0.00    -0.437 A  
HETATM   13  O   UNL     1      -9.550   7.770  73.465  1.00  0.00    -0.277 OA 
HETATM   14  C   UNL     1     -10.684   9.703  70.604  1.00  0.00    -0.388 A  
HETATM   15  H   UNL     1     -10.369   7.641  73.929  1.00  0.00     0.000 HD 
ENDBRANCH   6   8
ENDBRANCH   5   6
ENDBRANCH   4   5
ENDBRANCH   3   4
ENDBRANCH   2   3
TORSDOF 5
ENDMDL
MODEL      181
REMARK 921   NORMALIZED FREE ENERGY PREDICTED BY IDOCK:   -2.90 KCAL/MOL
REMARK 922        TOTAL FREE ENERGY PREDICTED BY IDOCK:   -4.05 KCAL/MOL
REMARK 923 INTER-LIGAND FREE ENERGY PREDICTED BY IDOCK:   -3.48 KCAL/MOL
REMARK 924 INTRA-LIGAND FREE ENERGY PREDICTED BY IDOCK:   -0.57 KCAL/MOL
REMARK 927      BINDING AFFINITY PREDICTED BY RF-SCORE:    0.00 PKD
ROOT
HETATM    1  C   UNL     1     -10.276   3.314  72.578  1.00  0.00    -0.218 C  
HETATM    2  C   UNL     1      -8.908   3.220  73.225  1.00  0.00    -0.083 C  
ENDROOT
BRANCH   2   3
HETATM    3  C   UNL     1      -7.818   3.892  72.390  1.00  0.00    -0.080 C  
BRANCH   3   4
HETATM    4  C   UNL     1      -7.701   5.351  72.799  1.00  0.00    -0.098 C  
BRANCH   4   5
HETATM    5  O   UNL     1      -8.254   6.229  71.816  1.00  0.00    -0.115 OA 
BRANCH   5   6
HETATM    6  C   UNL     1      -8.760   7.381  72.316  1.00  0.00    -0.116 C  
HETATM    7  O   UNL     1      -8.125   8.263  72.875  1.00  0.00    -0.168 OA 
BRANCH   6   8
HETATM    8  C   UNL     1     -10.185   7.507  71.905  1.00  0.00    -0.221 A  
HETATM    9  C   UNL     1     -10.650   6.691  70.865  1.00  0.00    -0.263 A  
HETATM   10  C   UNL     1     -12.008   6.680  70.535  1.00  0.00    -0.377 A  
HETATM   11  C   UNL     1     -12.893   7.486  71.246  1.00  0.00    -0.290 A  
HETATM   12  C   UNL     1     -12.445   8.304  72.276  1.00  0.00    -0.384 A  
HETATM   13  O   UNL     1     -14.227   7.499  70.966  1.00  0.00    -0.668 OA 
HETATM   14  C   UNL     1     -11.089   8.321  72.606  1.00  0.00    -0.400 A  
HETATM   15  H   UNL     1     -14.830   8.049  71.451  1.00  0.00     0.000 HD 
ENDBRANCH   6   8
ENDBRANCH   5   6
ENDBRANCH   4   5
ENDBRANCH   3   4
ENDBRANCH   2   3
TORSDOF 5
ENDMDL
MODEL      182
REMARK 921   NORMALIZED FREE ENERGY PREDICTED BY IDOCK:   -2.88 KCAL/MOL
REMARK 922        TOTAL FREE ENERGY PREDICTED BY IDOCK:   -4.02 KCAL/MOL
REMARK 923 INTER-LIGAND FREE ENERGY PREDICTED BY IDOCK:   -3.61 KCAL/MOL
REMARK 924 INTRA-LIGAND FREE ENERGY PREDICTED BY IDOCK:   -0.41 KCAL/MOL
REMARK 927      BINDING AFFINITY PREDICTED BY RF-SCORE:    0.00 PKD
ROOT
HETATM    1  C   UNL     1     -11.675  12.095  69.781  1.00  0.00    -0.381 C  
HETATM    2  C   UNL     1     -12.471  10.958  70.392  1.00  0.00    -0.411 C  
ENDROOT
BRANCH   2   3
HETATM    3  C   UNL     1     -11.608  10.029  71.244  1.00  0.00    -0.430 C  
BRANCH   3   4
HETATM    4  C   UNL     1     -12.389   8.762  71.555  1.00  0.00    -0.328 C  
BRANCH   4   5
HETATM    5  O   UNL     1     -11.884   8.094  72.713  1.00  0.00    -0.389 OA 
BRANCH   5   6
HETATM    6  C   UNL     1     -11.206   6.952  72.448  1.00  0.00    -0.266 C  
HETATM    7  O   UNL     1     -11.693   5.895  72.077  1.00  0.00    -0.279 OA 
BRANCH   6   8
HETATM    8  C   UNL     1      -9.744   7.234  72.488  1.00  0.00    -0.189 A  
HETATM    9  C   UNL     1      -9.013   7.111  71.299  1.00  0.00    -0.147 A  
HETATM   10  C   UNL     1      -7.669   7.492  71.259  1.00  0.00    -0.085 A  
HETATM   11  C   UNL     1      -7.063   7.991  72.409  1.00  0.00    -0.090 A  
HETATM   12  C   UNL     1      -7.775   8.114  73.596  1.00  0.00    -0.225 A  
HETATM   13  O   UNL     1      -5.759   8.385  72.413  1.00  0.00    -0.044 OA 
HETATM   14  C   UNL     1      -9.117   7.730  73.641  1.00  0.00    -0.345 A  
HETATM   15  H   UNL     1      -5.346   8.726  73.198  1.00  0.00     0.000 HD 
ENDBRANCH   6   8
ENDBRANCH   5   6
ENDBRANCH   4   5
ENDBRANCH   3   4
ENDBRANCH   2   3
TORSDOF 5
ENDMDL
MODEL      183
REMARK 921   NORMALIZED FREE ENERGY PREDICTED BY IDOCK:   -2.86 KCAL/MOL
REMARK 922        TOTAL FREE ENERGY PREDICTED BY IDOCK:   -4.00 KCAL/MOL
REMARK 923 INTER-LIGAND FREE ENERGY PREDICTED BY IDOCK:   -3.18 KCAL/MOL
REMARK 924 INTRA-LIGAND FREE ENERGY PREDICTED BY IDOCK:   -0.82 KCAL/MOL
REMARK 927      BINDING AFFINITY PREDICTED BY RF-SCORE:    0.00 PKD
ROOT
HETATM    1  C   UNL     1     -10.908   6.484  67.373  1.00  0.00    -0.449 C  
HETATM    2  C   UNL     1     -11.131   6.133  68.831  1.00  0.00    -0.417 C  
ENDROOT
BRANCH   2   3
HETATM    3  C   UNL     1      -9.873   5.578  69.499  1.00  0.00    -0.253 C  
BRANCH   3   4
HETATM    4  C   UNL     1      -9.596   6.357  70.775  1.00  0.00    -0.179 C  
BRANCH   4   5
HETATM    5  O   UNL     1     -10.154   7.672  70.730  1.00  0.00    -0.189 OA 
BRANCH   5   6
HETATM    6  C   UNL     1      -9.240   8.669  70.794  1.00  0.00    -0.185 C  
HETATM    7  O   UNL     1      -8.503   8.911  71.739  1.00  0.00    -0.321 OA 
BRANCH   6   8
HETATM    8  C   UNL     1      -9.125   9.312  69.456  1.00  0.00    -0.163 A  
HETATM    9  C   UNL     1     -10.126  10.210  69.063  1.00  0.00    -0.216 A  
HETATM   10  C   UNL     1      -9.993  10.935  67.876  1.00  0.00    -0.195 A  
HETATM   11  C   UNL     1      -8.860  10.755  67.087  1.00  0.00    -0.134 A  
HETATM   12  C   UNL     1      -7.862   9.864  67.461  1.00  0.00    -0.098 A  
HETATM   13  O   UNL     1      -8.683  11.448  65.927  1.00  0.00    -0.279 OA 
HETATM   14  C   UNL     1      -7.993   9.135  68.644  1.00  0.00    -0.101 A  
HETATM   15  H   UNL     1      -7.909  11.326  65.389  1.00  0.00     0.000 HD 
ENDBRANCH   6   8
ENDBRANCH   5   6
ENDBRANCH   4   5
ENDBRANCH   3   4
ENDBRANCH   2   3
TORSDOF 5
ENDMDL
MODEL      184
REMARK 921   NORMALIZED FREE ENERGY PREDICTED BY IDOCK:   -2.86 KCAL/MOL
REMARK 922        TOTAL FREE ENERGY PREDICTED BY IDOCK:   -3.99 KCAL/MOL
REMARK 923 INTER-LIGAND FREE ENERGY PREDICTED BY IDOCK:   -3.72 KCAL/MOL
REMARK 924 INTRA-LIGAND FREE ENERGY PREDICTED BY IDOCK:   -0.27 KCAL/MOL
REMARK 927      BINDING AFFINITY PREDICTED BY RF-SCORE:    0.00 PKD
ROOT
HETATM    1  C   UNL     1     -10.322   4.536  65.470  1.00  0.00    -0.254 C  
HETATM    2  C   UNL     1     -10.017   4.577  66.954  1.00  0.00    -0.229 C  
ENDROOT
BRANCH   2   3
HETATM    3  C   UNL     1      -9.448   5.923  67.399  1.00  0.00    -0.112 C  
BRANCH   3   4
HETATM    4  C   UNL     1      -8.639   6.526  66.262  1.00  0.00    -0.141 C  
BRANCH   4   5
HETATM    5  O   UNL     1      -8.831   7.939  66.159  1.00  0.00    -0.153 OA 
BRANCH   5   6
HETATM    6  C   UNL     1      -8.217   8.511  65.097  1.00  0.00    -0.152 C  
HETATM    7  O   UNL     1      -7.251   8.064  64.497  1.00  0.00    -0.077 OA 
BRANCH   6   8
HETATM    8  C   UNL     1      -9.021   9.678  64.640  1.00  0.00    -0.274 A  
HETATM    9  C   UNL     1      -8.704  10.259  63.405  1.00  0.00    -0.209 A  
HETATM   10  C   UNL     1      -9.512  11.269  62.876  1.00  0.00    -0.385 A  
HETATM   11  C   UNL     1     -10.633  11.693  63.586  1.00  0.00    -0.433 A  
HETATM   12  C   UNL     1     -10.957  11.128  64.813  1.00  0.00    -0.218 A  
HETATM   13  O   UNL     1     -11.456  12.666  63.103  1.00  0.00    -0.744 OA 
HETATM   14  C   UNL     1     -10.149  10.123  65.347  1.00  0.00    -0.342 A  
HETATM   15  H   UNL     1     -12.220  12.954  63.587  1.00  0.00     0.000 HD 
ENDBRANCH   6   8
ENDBRANCH   5   6
ENDBRANCH   4   5
ENDBRANCH   3   4
ENDBRANCH   2   3
TORSDOF 5
ENDMDL
MODEL      185
REMARK 921   NORMALIZED FREE ENERGY PREDICTED BY IDOCK:   -2.85 KCAL/MOL
REMARK 922        TOTAL FREE ENERGY PREDICTED BY IDOCK:   -3.99 KCAL/MOL
REMARK 923 INTER-LIGAND FREE ENERGY PREDICTED BY IDOCK:   -3.82 KCAL/MOL
REMARK 924 INTRA-LIGAND FREE ENERGY PREDICTED BY IDOCK:   -0.17 KCAL/MOL
REMARK 927      BINDING AFFINITY PREDICTED BY RF-SCORE:    0.00 PKD
ROOT
HETATM    1  C   UNL     1     -10.148  18.908  65.982  1.00  0.00    -0.372 C  
HETATM    2  C   UNL     1      -8.913  18.326  66.641  1.00  0.00    -0.296 C  
ENDROOT
BRANCH   2   3
HETATM    3  C   UNL     1      -9.253  17.390  67.800  1.00  0.00    -0.248 C  
BRANCH   3   4
HETATM    4  C   UNL     1      -9.166  15.949  67.323  1.00  0.00    -0.206 C  
BRANCH   4   5
HETATM    5  O   UNL     1      -9.750  15.040  68.259  1.00  0.00    -0.206 OA 
BRANCH   5   6
HETATM    6  C   UNL     1     -10.909  14.476  67.842  1.00  0.00    -0.256 C  
HETATM    7  O   UNL     1     -11.950  15.068  67.597  1.00  0.00    -0.277 OA 
BRANCH   6   8
HETATM    8  C   UNL     1     -10.669  13.039  67.535  1.00  0.00    -0.248 A  
HETATM    9  C   UNL     1     -11.265  12.076  68.359  1.00  0.00    -0.313 A  
HETATM   10  C   UNL     1     -11.177  10.720  68.033  1.00  0.00    -0.372 A  
HETATM   11  C   UNL     1     -10.491  10.335  66.884  1.00  0.00    -0.229 A  
HETATM   12  C   UNL     1      -9.891  11.279  66.059  1.00  0.00    -0.267 A  
HETATM   13  O   UNL     1     -10.388   9.026  66.520  1.00  0.00    -0.264 OA 
HETATM   14  C   UNL     1      -9.973  12.634  66.385  1.00  0.00    -0.262 A  
HETATM   15  H   UNL     1      -9.921   8.764  65.736  1.00  0.00     0.000 HD 
ENDBRANCH   6   8
ENDBRANCH   5   6
ENDBRANCH   4   5
ENDBRANCH   3   4
ENDBRANCH   2   3
TORSDOF 5
ENDMDL
MODEL      186
REMARK 921   NORMALIZED FREE ENERGY PREDICTED BY IDOCK:   -2.84 KCAL/MOL
REMARK 922        TOTAL FREE ENERGY PREDICTED BY IDOCK:   -3.97 KCAL/MOL
REMARK 923 INTER-LIGAND FREE ENERGY PREDICTED BY IDOCK:   -3.66 KCAL/MOL
REMARK 924 INTRA-LIGAND FREE ENERGY PREDICTED BY IDOCK:   -0.31 KCAL/MOL
REMARK 927      BINDING AFFINITY PREDICTED BY RF-SCORE:    0.00 PKD
ROOT
HETATM    1  C   UNL     1      -7.970   7.832  74.486  1.00  0.00    -0.262 C  
HETATM    2  C   UNL     1      -7.748   7.017  73.227  1.00  0.00    -0.099 C  
ENDROOT
BRANCH   2   3
HETATM    3  C   UNL     1      -8.833   7.253  72.177  1.00  0.00    -0.143 C  
BRANCH   3   4
HETATM    4  C   UNL     1      -9.575   8.539  72.503  1.00  0.00    -0.254 C  
BRANCH   4   5
HETATM    5  O   UNL     1     -10.445   8.939  71.442  1.00  0.00    -0.250 OA 
BRANCH   5   6
HETATM    6  C   UNL     1     -11.312   7.980  71.038  1.00  0.00    -0.273 C  
HETATM    7  O   UNL     1     -12.290   7.588  71.658  1.00  0.00    -0.306 OA 
BRANCH   6   8
HETATM    8  C   UNL     1     -11.009   7.610  69.629  1.00  0.00    -0.145 A  
HETATM    9  C   UNL     1     -10.356   8.551  68.822  1.00  0.00    -0.233 A  
HETATM   10  C   UNL     1      -9.934   8.202  67.536  1.00  0.00    -0.251 A  
HETATM   11  C   UNL     1     -10.169   6.913  67.064  1.00  0.00    -0.248 A  
HETATM   12  C   UNL     1     -10.819   5.971  67.852  1.00  0.00    -0.378 A  
HETATM   13  O   UNL     1      -9.766   6.525  65.822  1.00  0.00    -0.376 OA 
HETATM   14  C   UNL     1     -11.246   6.318  69.135  1.00  0.00    -0.439 A  
HETATM   15  H   UNL     1      -9.925   5.645  65.501  1.00  0.00     0.000 HD 
ENDBRANCH   6   8
ENDBRANCH   5   6
ENDBRANCH   4   5
ENDBRANCH   3   4
ENDBRANCH   2   3
TORSDOF 5
ENDMDL
MODEL      187
REMARK 921   NORMALIZED FREE ENERGY PREDICTED BY IDOCK:   -2.83 KCAL/MOL
REMARK 922        TOTAL FREE ENERGY PREDICTED BY IDOCK:   -3.96 KCAL/MOL
REMARK 923 INTER-LIGAND FREE ENERGY PREDICTED BY IDOCK:   -3.89 KCAL/MOL
REMARK 924 INTRA-LIGAND FREE ENERGY PREDICTED BY IDOCK:   -0.08 KCAL/MOL
REMARK 927      BINDING AFFINITY PREDICTED BY RF-SCORE:    0.00 PKD
ROOT
HETATM    1  C   UNL     1     -11.748  12.179  69.301  1.00  0.00    -0.386 C  
HETATM    2  C   UNL     1     -12.088  10.728  69.576  1.00  0.00    -0.344 C  
ENDROOT
BRANCH   2   3
HETATM    3  C   UNL     1     -11.301  10.154  70.753  1.00  0.00    -0.436 C  
BRANCH   3   4
HETATM    4  C   UNL     1     -10.185   9.266  70.226  1.00  0.00    -0.227 C  
BRANCH   4   5
HETATM    5  O   UNL     1     -10.626   8.437  69.148  1.00  0.00    -0.217 OA 
BRANCH   5   6
HETATM    6  C   UNL     1     -10.079   7.198  69.136  1.00  0.00    -0.183 C  
HETATM    7  O   UNL     1      -9.291   6.768  68.307  1.00  0.00    -0.126 OA 
BRANCH   6   8
HETATM    8  C   UNL     1     -10.429   6.498  70.402  1.00  0.00    -0.256 A  
HETATM    9  C   UNL     1      -9.417   5.803  71.078  1.00  0.00    -0.195 A  
HETATM   10  C   UNL     1      -9.667   5.244  72.333  1.00  0.00    -0.183 A  
HETATM   11  C   UNL     1     -10.929   5.381  72.906  1.00  0.00    -0.287 A  
HETATM   12  C   UNL     1     -11.943   6.064  72.246  1.00  0.00    -0.259 A  
HETATM   13  O   UNL     1     -11.215   4.862  74.133  1.00  0.00    -0.373 OA 
HETATM   14  C   UNL     1     -11.698   6.620  70.989  1.00  0.00    -0.415 A  
HETATM   15  H   UNL     1     -12.075   4.956  74.524  1.00  0.00     0.000 HD 
ENDBRANCH   6   8
ENDBRANCH   5   6
ENDBRANCH   4   5
ENDBRANCH   3   4
ENDBRANCH   2   3
TORSDOF 5
ENDMDL
MODEL      188
REMARK 921   NORMALIZED FREE ENERGY PREDICTED BY IDOCK:   -2.82 KCAL/MOL
REMARK 922        TOTAL FREE ENERGY PREDICTED BY IDOCK:   -3.94 KCAL/MOL
REMARK 923 INTER-LIGAND FREE ENERGY PREDICTED BY IDOCK:   -3.69 KCAL/MOL
REMARK 924 INTRA-LIGAND FREE ENERGY PREDICTED BY IDOCK:   -0.25 KCAL/MOL
REMARK 927      BINDING AFFINITY PREDICTED BY RF-SCORE:    0.00 PKD
ROOT
HETATM    1  C   UNL     1     -10.724  20.047  66.454  1.00  0.00    -0.353 C  
HETATM    2  C   UNL     1      -9.271  20.292  66.810  1.00  0.00    -0.452 C  
ENDROOT
BRANCH   2   3
HETATM    3  C   UNL     1      -8.820  19.481  68.024  1.00  0.00    -0.368 C  
BRANCH   3   4
HETATM    4  C   UNL     1      -8.091  18.234  67.552  1.00  0.00    -0.239 C  
BRANCH   4   5
HETATM    5  O   UNL     1      -8.193  17.165  68.496  1.00  0.00    -0.243 OA 
BRANCH   5   6
HETATM    6  C   UNL     1      -7.756  15.969  68.035  1.00  0.00    -0.133 C  
HETATM    7  O   UNL     1      -6.589  15.635  67.893  1.00  0.00    -0.126 OA 
BRANCH   6   8
HETATM    8  C   UNL     1      -8.914  15.041  67.914  1.00  0.00    -0.175 A  
HETATM    9  C   UNL     1      -8.657  13.693  67.629  1.00  0.00    -0.185 A  
HETATM   10  C   UNL     1      -9.700  12.763  67.636  1.00  0.00    -0.205 A  
HETATM   11  C   UNL     1     -10.994  13.186  67.926  1.00  0.00    -0.249 A  
HETATM   12  C   UNL     1     -11.264  14.520  68.206  1.00  0.00    -0.295 A  
HETATM   13  O   UNL     1     -12.040  12.313  67.956  1.00  0.00    -0.439 OA 
HETATM   14  C   UNL     1     -10.226  15.453  68.195  1.00  0.00    -0.230 A  
HETATM   15  H   UNL     1     -12.923  12.602  68.154  1.00  0.00     0.000 HD 
ENDBRANCH   6   8
ENDBRANCH   5   6
ENDBRANCH   4   5
ENDBRANCH   3   4
ENDBRANCH   2   3
TORSDOF 5
ENDMDL
MODEL      189
REMARK 921   NORMALIZED FREE ENERGY PREDICTED BY IDOCK:   -2.82 KCAL/MOL
REMARK 922        TOTAL FREE ENERGY PREDICTED BY IDOCK:   -3.94 KCAL/MOL
REMARK 923 INTER-LIGAND FREE ENERGY PREDICTED BY IDOCK:   -3.55 KCAL/MOL
REMARK 924 INTRA-LIGAND FREE ENERGY PREDICTED BY IDOCK:   -0.39 KCAL/MOL
REMARK 927      BINDING AFFINITY PREDICTED BY RF-SCORE:    0.00 PKD
ROOT
HETATM    1  C   UNL     1     -10.837   7.596  73.060  1.00  0.00    -0.457 C  
HETATM    2  C   UNL     1     -10.608   8.382  71.783  1.00  0.00    -0.352 C  
ENDROOT
BRANCH   2   3
HETATM    3  C   UNL     1     -11.651   9.479  71.576  1.00  0.00    -0.465 C  
BRANCH   3   4
HETATM    4  C   UNL     1     -11.367  10.200  70.268  1.00  0.00    -0.315 C  
BRANCH   4   5
HETATM    5  O   UNL     1      -9.984  10.142  69.914  1.00  0.00    -0.242 OA 
BRANCH   5   6
HETATM    6  C   UNL     1      -9.664  10.827  68.791  1.00  0.00    -0.192 C  
HETATM    7  O   UNL     1      -9.529  12.038  68.700  1.00  0.00    -0.163 OA 
BRANCH   6   8
HETATM    8  C   UNL     1      -9.305   9.861  67.717  1.00  0.00    -0.154 A  
HETATM    9  C   UNL     1      -8.728   8.640  68.088  1.00  0.00    -0.142 A  
HETATM   10  C   UNL     1      -8.497   7.651  67.129  1.00  0.00    -0.121 A  
HETATM   11  C   UNL     1      -8.843   7.890  65.801  1.00  0.00    -0.119 A  
HETATM   12  C   UNL     1      -9.412   9.097  65.417  1.00  0.00    -0.231 A  
HETATM   13  O   UNL     1      -8.646   6.950  64.834  1.00  0.00    -0.346 OA 
HETATM   14  C   UNL     1      -9.640  10.089  66.373  1.00  0.00    -0.248 A  
HETATM   15  H   UNL     1      -8.883   7.113  63.928  1.00  0.00     0.000 HD 
ENDBRANCH   6   8
ENDBRANCH   5   6
ENDBRANCH   4   5
ENDBRANCH   3   4
ENDBRANCH   2   3
TORSDOF 5
ENDMDL
MODEL      190
REMARK 921   NORMALIZED FREE ENERGY PREDICTED BY IDOCK:   -2.81 KCAL/MOL
REMARK 922        TOTAL FREE ENERGY PREDICTED BY IDOCK:   -3.93 KCAL/MOL
REMARK 923 INTER-LIGAND FREE ENERGY PREDICTED BY IDOCK:   -3.64 KCAL/MOL
REMARK 924 INTRA-LIGAND FREE ENERGY PREDICTED BY IDOCK:   -0.29 KCAL/MOL
REMARK 927      BINDING AFFINITY PREDICTED BY RF-SCORE:    0.00 PKD
ROOT
HETATM    1  C   UNL     1      -9.946   4.783  67.338  1.00  0.00    -0.204 C  
HETATM    2  C   UNL     1     -10.456   5.911  68.213  1.00  0.00    -0.293 C  
ENDROOT
BRANCH   2   3
HETATM    3  C   UNL     1      -9.595   7.169  68.107  1.00  0.00    -0.134 C  
BRANCH   3   4
HETATM    4  C   UNL     1      -9.799   8.022  69.350  1.00  0.00    -0.181 C  
BRANCH   4   5
HETATM    5  O   UNL     1      -9.552   9.406  69.095  1.00  0.00    -0.156 OA 
BRANCH   5   6
HETATM    6  C   UNL     1     -10.663  10.181  69.088  1.00  0.00    -0.226 C  
HETATM    7  O   UNL     1     -11.553  10.170  69.925  1.00  0.00    -0.253 OA 
BRANCH   6   8
HETATM    8  C   UNL     1     -10.543  11.196  68.006  1.00  0.00    -0.233 A  
HETATM    9  C   UNL     1      -9.354  11.932  67.915  1.00  0.00    -0.187 A  
HETATM   10  C   UNL     1      -9.145  12.799  66.840  1.00  0.00    -0.221 A  
HETATM   11  C   UNL     1     -10.127  12.927  65.861  1.00  0.00    -0.289 A  
HETATM   12  C   UNL     1     -11.313  12.207  65.940  1.00  0.00    -0.407 A  
HETATM   13  O   UNL     1      -9.961  13.752  64.789  1.00  0.00    -0.617 OA 
HETATM   14  C   UNL     1     -11.527  11.343  67.016  1.00  0.00    -0.234 A  
HETATM   15  H   UNL     1     -10.631  13.838  64.121  1.00  0.00     0.000 HD 
ENDBRANCH   6   8
ENDBRANCH   5   6
ENDBRANCH   4   5
ENDBRANCH   3   4
ENDBRANCH   2   3
TORSDOF 5
ENDMDL
MODEL      191
REMARK 921   NORMALIZED FREE ENERGY PREDICTED BY IDOCK:   -2.80 KCAL/MOL
REMARK 922        TOTAL FREE ENERGY PREDICTED BY IDOCK:   -3.92 KCAL/MOL
REMARK 923 INTER-LIGAND FREE ENERGY PREDICTED BY IDOCK:   -3.63 KCAL/MOL
REMARK 924 INTRA-LIGAND FREE ENERGY PREDICTED BY IDOCK:   -0.28 KCAL/MOL
REMARK 927      BINDING AFFINITY PREDICTED BY RF-SCORE:    0.00 PKD
ROOT
HETATM    1  C   UNL     1      -7.443   9.102  65.507  1.00  0.00    -0.089 C  
HETATM    2  C   UNL     1      -8.780   9.369  64.844  1.00  0.00    -0.220 C  
ENDROOT
BRANCH   2   3
HETATM    3  C   UNL     1      -9.828   9.892  65.826  1.00  0.00    -0.356 C  
BRANCH   3   4
HETATM    4  C   UNL     1      -9.317   9.713  67.247  1.00  0.00    -0.138 C  
BRANCH   4   5
HETATM    5  O   UNL     1      -9.501  10.892  68.034  1.00  0.00    -0.156 OA 
BRANCH   5   6
HETATM    6  C   UNL     1     -10.694  11.506  67.852  1.00  0.00    -0.200 C  
HETATM    7  O   UNL     1     -11.789  11.053  68.151  1.00  0.00    -0.573 OA 
BRANCH   6   8
HETATM    8  C   UNL     1     -10.458  12.908  67.410  1.00  0.00    -0.235 A  
HETATM    9  C   UNL     1     -11.569  13.744  67.235  1.00  0.00    -0.391 A  
HETATM   10  C   UNL     1     -11.389  15.100  66.950  1.00  0.00    -0.264 A  
HETATM   11  C   UNL     1     -10.099  15.612  66.839  1.00  0.00    -0.263 A  
HETATM   12  C   UNL     1      -8.988  14.793  67.005  1.00  0.00    -0.258 A  
HETATM   13  O   UNL     1      -9.875  16.929  66.573  1.00  0.00    -0.268 OA 
HETATM   14  C   UNL     1      -9.164  13.437  67.285  1.00  0.00    -0.222 A  
HETATM   15  H   UNL     1      -8.995  17.279  66.498  1.00  0.00     0.000 HD 
ENDBRANCH   6   8
ENDBRANCH   5   6
ENDBRANCH   4   5
ENDBRANCH   3   4
ENDBRANCH   2   3
TORSDOF 5
ENDMDL
MODEL      192
REMARK 921   NORMALIZED FREE ENERGY PREDICTED BY IDOCK:   -2.79 KCAL/MOL
REMARK 922        TOTAL FREE ENERGY PREDICTED BY IDOCK:   -3.91 KCAL/MOL
REMARK 923 INTER-LIGAND FREE ENERGY PREDICTED BY IDOCK:   -3.65 KCAL/MOL
REMARK 924 INTRA-LIGAND FREE ENERGY PREDICTED BY IDOCK:   -0.26 KCAL/MOL
REMARK 927      BINDING AFFINITY PREDICTED BY RF-SCORE:    0.00 PKD
ROOT
HETATM    1  C   UNL     1     -10.172   7.182  73.791  1.00  0.00    -0.395 C  
HETATM    2  C   UNL     1     -11.311   7.411  72.818  1.00  0.00    -0.356 C  
ENDROOT
BRANCH   2   3
HETATM    3  C   UNL     1     -10.822   7.663  71.392  1.00  0.00    -0.250 C  
BRANCH   3   4
HETATM    4  C   UNL     1     -11.737   8.674  70.719  1.00  0.00    -0.210 C  
BRANCH   4   5
HETATM    5  O   UNL     1     -11.068   9.909  70.455  1.00  0.00    -0.282 OA 
BRANCH   5   6
HETATM    6  C   UNL     1     -11.435  10.508  69.297  1.00  0.00    -0.256 C  
HETATM    7  O   UNL     1     -12.532  10.985  69.050  1.00  0.00    -0.449 OA 
BRANCH   6   8
HETATM    8  C   UNL     1     -10.233  10.675  68.434  1.00  0.00    -0.191 A  
HETATM    9  C   UNL     1      -9.926   9.660  67.520  1.00  0.00    -0.231 A  
HETATM   10  C   UNL     1      -8.888   9.832  66.601  1.00  0.00    -0.153 A  
HETATM   11  C   UNL     1      -8.161  11.020  66.602  1.00  0.00    -0.154 A  
HETATM   12  C   UNL     1      -8.452  12.034  67.507  1.00  0.00    -0.165 A  
HETATM   13  O   UNL     1      -7.148  11.237  65.717  1.00  0.00    -0.368 OA 
HETATM   14  C   UNL     1      -9.485  11.863  68.429  1.00  0.00    -0.189 A  
HETATM   15  H   UNL     1      -6.653  12.047  65.718  1.00  0.00     0.000 HD 
ENDBRANCH   6   8
ENDBRANCH   5   6
ENDBRANCH   4   5
ENDBRANCH   3   4
ENDBRANCH   2   3
TORSDOF 5
ENDMDL
MODEL      193
REMARK 921   NORMALIZED FREE ENERGY PREDICTED BY IDOCK:   -2.77 KCAL/MOL
REMARK 922        TOTAL FREE ENERGY PREDICTED BY IDOCK:   -3.88 KCAL/MOL
REMARK 923 INTER-LIGAND FREE ENERGY PREDICTED BY IDOCK:   -3.68 KCAL/MOL
REMARK 924 INTRA-LIGAND FREE ENERGY PREDICTED BY IDOCK:   -0.20 KCAL/MOL
REMARK 927      BINDING AFFINITY PREDICTED BY RF-SCORE:    0.00 PKD
ROOT
HETATM    1  C   UNL     1      -9.574  15.009  67.192  1.00  0.00    -0.222 C  
HETATM    2  C   UNL     1     -10.714  14.785  68.166  1.00  0.00    -0.247 C  
ENDROOT
BRANCH   2   3
HETATM    3  C   UNL     1     -11.970  14.244  67.484  1.00  0.00    -0.411 C  
BRANCH   3   4
HETATM    4  C   UNL     1     -11.583  13.113  66.545  1.00  0.00    -0.356 C  
BRANCH   4   5
HETATM    5  O   UNL     1     -12.097  11.853  66.983  1.00  0.00    -0.600 OA 
BRANCH   5   6
HETATM    6  C   UNL     1     -11.569  11.409  68.148  1.00  0.00    -0.294 C  
HETATM    7  O   UNL     1     -12.029  11.596  69.265  1.00  0.00    -0.320 OA 
BRANCH   6   8
HETATM    8  C   UNL     1     -10.442  10.482  67.850  1.00  0.00    -0.247 A  
HETATM    9  C   UNL     1     -10.441   9.813  66.619  1.00  0.00    -0.233 A  
HETATM   10  C   UNL     1      -9.342   9.039  66.242  1.00  0.00    -0.284 A  
HETATM   11  C   UNL     1      -8.249   8.936  67.099  1.00  0.00    -0.103 A  
HETATM   12  C   UNL     1      -8.238   9.590  68.325  1.00  0.00    -0.113 A  
HETATM   13  O   UNL     1      -7.151   8.200  66.768  1.00  0.00    -0.075 OA 
HETATM   14  C   UNL     1      -9.337  10.361  68.707  1.00  0.00    -0.175 A  
HETATM   15  H   UNL     1      -6.405   8.131  67.352  1.00  0.00     0.000 HD 
ENDBRANCH   6   8
ENDBRANCH   5   6
ENDBRANCH   4   5
ENDBRANCH   3   4
ENDBRANCH   2   3
TORSDOF 5
ENDMDL
MODEL      194
REMARK 921   NORMALIZED FREE ENERGY PREDICTED BY IDOCK:   -2.76 KCAL/MOL
REMARK 922        TOTAL FREE ENERGY PREDICTED BY IDOCK:   -3.87 KCAL/MOL
REMARK 923 INTER-LIGAND FREE ENERGY PREDICTED BY IDOCK:   -3.13 KCAL/MOL
REMARK 924 INTRA-LIGAND FREE ENERGY PREDICTED BY IDOCK:   -0.74 KCAL/MOL
REMARK 927      BINDING AFFINITY PREDICTED BY RF-SCORE:    0.00 PKD
ROOT
HETATM    1  C   UNL     1      -9.772   9.586  68.848  1.00  0.00    -0.166 C  
HETATM    2  C   UNL     1      -8.455   9.750  69.582  1.00  0.00    -0.194 C  
ENDROOT
BRANCH   2   3
HETATM    3  C   UNL     1      -8.526   9.266  71.029  1.00  0.00    -0.150 C  
BRANCH   3   4
HETATM    4  C   UNL     1      -9.774   8.418  71.214  1.00  0.00    -0.189 C  
BRANCH   4   5
HETATM    5  O   UNL     1      -9.472   7.022  71.252  1.00  0.00    -0.164 OA 
BRANCH   5   6
HETATM    6  C   UNL     1     -10.461   6.222  70.787  1.00  0.00    -0.222 C  
HETATM    7  O   UNL     1     -11.489   5.929  71.379  1.00  0.00    -0.242 OA 
BRANCH   6   8
HETATM    8  C   UNL     1     -10.200   5.909  69.355  1.00  0.00    -0.284 A  
HETATM    9  C   UNL     1     -11.149   6.308  68.405  1.00  0.00    -0.371 A  
HETATM   10  C   UNL     1     -10.886   6.153  67.041  1.00  0.00    -0.435 A  
HETATM   11  C   UNL     1      -9.675   5.597  66.636  1.00  0.00    -0.158 A  
HETATM   12  C   UNL     1      -8.727   5.192  67.567  1.00  0.00    -0.103 A  
HETATM   13  O   UNL     1      -9.371   5.437  65.317  1.00  0.00    -0.334 OA 
HETATM   14  C   UNL     1      -8.989   5.341  68.930  1.00  0.00    -0.120 A  
HETATM   15  H   UNL     1      -8.545   5.058  65.040  1.00  0.00     0.000 HD 
ENDBRANCH   6   8
ENDBRANCH   5   6
ENDBRANCH   4   5
ENDBRANCH   3   4
ENDBRANCH   2   3
TORSDOF 5
ENDMDL
MODEL      195
REMARK 921   NORMALIZED FREE ENERGY PREDICTED BY IDOCK:   -2.76 KCAL/MOL
REMARK 922        TOTAL FREE ENERGY PREDICTED BY IDOCK:   -3.87 KCAL/MOL
REMARK 923 INTER-LIGAND FREE ENERGY PREDICTED BY IDOCK:   -3.48 KCAL/MOL
REMARK 924 INTRA-LIGAND FREE ENERGY PREDICTED BY IDOCK:   -0.39 KCAL/MOL
REMARK 927      BINDING AFFINITY PREDICTED BY RF-SCORE:    0.00 PKD
ROOT
HETATM    1  C   UNL     1      -6.596  14.102  67.470  1.00  0.00    -0.098 C  
HETATM    2  C   UNL     1      -5.667  14.763  68.468  1.00  0.00    -0.099 C  
ENDROOT
BRANCH   2   3
HETATM    3  C   UNL     1      -6.320  15.944  69.184  1.00  0.00    -0.146 C  
BRANCH   3   4
HETATM    4  C   UNL     1      -7.769  15.603  69.495  1.00  0.00    -0.185 C  
BRANCH   4   5
HETATM    5  O   UNL     1      -8.661  16.649  69.106  1.00  0.00    -0.213 OA 
BRANCH   5   6
HETATM    6  C   UNL     1      -9.647  16.260  68.262  1.00  0.00    -0.218 C  
HETATM    7  O   UNL     1      -9.595  16.271  67.042  1.00  0.00    -0.224 OA 
BRANCH   6   8
HETATM    8  C   UNL     1     -10.739  15.625  69.050  1.00  0.00    -0.236 A  
HETATM    9  C   UNL     1     -10.991  14.261  68.856  1.00  0.00    -0.275 A  
HETATM   10  C   UNL     1     -11.915  13.595  69.665  1.00  0.00    -0.402 A  
HETATM   11  C   UNL     1     -12.583  14.299  70.664  1.00  0.00    -0.355 A  
HETATM   12  C   UNL     1     -12.347  15.653  70.865  1.00  0.00    -0.479 A  
HETATM   13  O   UNL     1     -13.484  13.688  71.484  1.00  0.00    -0.327 OA 
HETATM   14  C   UNL     1     -11.428  16.322  70.055  1.00  0.00    -0.218 A  
HETATM   15  H   UNL     1     -13.940  14.168  72.166  1.00  0.00     0.000 HD 
ENDBRANCH   6   8
ENDBRANCH   5   6
ENDBRANCH   4   5
ENDBRANCH   3   4
ENDBRANCH   2   3
TORSDOF 5
ENDMDL
MODEL      196
REMARK 921   NORMALIZED FREE ENERGY PREDICTED BY IDOCK:   -2.75 KCAL/MOL
REMARK 922        TOTAL FREE ENERGY PREDICTED BY IDOCK:   -3.86 KCAL/MOL
REMARK 923 INTER-LIGAND FREE ENERGY PREDICTED BY IDOCK:   -3.41 KCAL/MOL
REMARK 924 INTRA-LIGAND FREE ENERGY PREDICTED BY IDOCK:   -0.45 KCAL/MOL
REMARK 927      BINDING AFFINITY PREDICTED BY RF-SCORE:    0.00 PKD
ROOT
HETATM    1  C   UNL     1     -10.633  11.801  63.199  1.00  0.00    -0.341 C  
HETATM    2  C   UNL     1     -11.018  11.543  64.642  1.00  0.00    -0.353 C  
ENDROOT
BRANCH   2   3
HETATM    3  C   UNL     1     -12.082  12.516  65.147  1.00  0.00    -0.503 C  
BRANCH   3   4
HETATM    4  C   UNL     1     -11.452  13.883  65.360  1.00  0.00    -0.312 C  
BRANCH   4   5
HETATM    5  O   UNL     1     -10.298  13.815  66.201  1.00  0.00    -0.287 OA 
BRANCH   5   6
HETATM    6  C   UNL     1     -10.568  13.551  67.502  1.00  0.00    -0.244 C  
HETATM    7  O   UNL     1     -11.424  14.094  68.184  1.00  0.00    -0.276 OA 
BRANCH   6   8
HETATM    8  C   UNL     1      -9.793  12.353  67.926  1.00  0.00    -0.202 A  
HETATM    9  C   UNL     1      -8.437  12.516  68.239  1.00  0.00    -0.165 A  
HETATM   10  C   UNL     1      -7.705  11.449  68.767  1.00  0.00    -0.135 A  
HETATM   11  C   UNL     1      -8.333  10.224  68.977  1.00  0.00    -0.148 A  
HETATM   12  C   UNL     1      -9.676  10.047  68.667  1.00  0.00    -0.165 A  
HETATM   13  O   UNL     1      -7.661   9.160  69.500  1.00  0.00    -0.074 OA 
HETATM   14  C   UNL     1     -10.409  11.108  68.135  1.00  0.00    -0.207 A  
HETATM   15  H   UNL     1      -8.090   8.324  69.644  1.00  0.00     0.000 HD 
ENDBRANCH   6   8
ENDBRANCH   5   6
ENDBRANCH   4   5
ENDBRANCH   3   4
ENDBRANCH   2   3
TORSDOF 5
ENDMDL
MODEL      197
REMARK 921   NORMALIZED FREE ENERGY PREDICTED BY IDOCK:   -2.73 KCAL/MOL
REMARK 922        TOTAL FREE ENERGY PREDICTED BY IDOCK:   -3.83 KCAL/MOL
REMARK 923 INTER-LIGAND FREE ENERGY PREDICTED BY IDOCK:   -3.50 KCAL/MOL
REMARK 924 INTRA-LIGAND FREE ENERGY PREDICTED BY IDOCK:   -0.33 KCAL/MOL
REMARK 927      BINDING AFFINITY PREDICTED BY RF-SCORE:    0.00 PKD
ROOT
HETATM    1  C   UNL     1     -12.808  10.594  71.271  1.00  0.00    -0.535 C  
HETATM    2  C   UNL     1     -11.535  10.085  70.624  1.00  0.00    -0.425 C  
ENDROOT
BRANCH   2   3
HETATM    3  C   UNL     1     -10.829   9.029  71.473  1.00  0.00    -0.416 C  
BRANCH   3   4
HETATM    4  C   UNL     1     -11.823   8.424  72.451  1.00  0.00    -0.384 C  
BRANCH   4   5
HETATM    5  O   UNL     1     -11.672   7.007  72.560  1.00  0.00    -0.247 OA 
BRANCH   5   6
HETATM    6  C   UNL     1     -10.643   6.613  73.347  1.00  0.00    -0.309 C  
HETATM    7  O   UNL     1     -10.341   7.090  74.431  1.00  0.00    -0.221 OA 
BRANCH   6   8
HETATM    8  C   UNL     1     -10.046   5.371  72.783  1.00  0.00    -0.211 A  
HETATM    9  C   UNL     1      -8.694   5.391  72.416  1.00  0.00    -0.125 A  
HETATM   10  C   UNL     1      -8.059   4.216  72.007  1.00  0.00    -0.086 A  
HETATM   11  C   UNL     1      -8.782   3.026  71.965  1.00  0.00    -0.081 A  
HETATM   12  C   UNL     1     -10.124   2.992  72.322  1.00  0.00    -0.219 A  
HETATM   13  O   UNL     1      -8.201   1.854  71.584  1.00  0.00    -0.044 OA 
HETATM   14  C   UNL     1     -10.763   4.165  72.726  1.00  0.00    -0.197 A  
HETATM   15  H   UNL     1      -8.694   1.042  71.556  1.00  0.00     0.000 HD 
ENDBRANCH   6   8
ENDBRANCH   5   6
ENDBRANCH   4   5
ENDBRANCH   3   4
ENDBRANCH   2   3
TORSDOF 5
ENDMDL
MODEL      198
REMARK 921   NORMALIZED FREE ENERGY PREDICTED BY IDOCK:   -2.72 KCAL/MOL
REMARK 922        TOTAL FREE ENERGY PREDICTED BY IDOCK:   -3.82 KCAL/MOL
REMARK 923 INTER-LIGAND FREE ENERGY PREDICTED BY IDOCK:   -3.43 KCAL/MOL
REMARK 924 INTRA-LIGAND FREE ENERGY PREDICTED BY IDOCK:   -0.39 KCAL/MOL
REMARK 927      BINDING AFFINITY PREDICTED BY RF-SCORE:    0.00 PKD
ROOT
HETATM    1  C   UNL     1     -10.942   6.191  67.241  1.00  0.00    -0.418 C  
HETATM    2  C   UNL     1     -11.270   6.177  68.721  1.00  0.00    -0.307 C  
ENDROOT
BRANCH   2   3
HETATM    3  C   UNL     1     -10.274   5.350  69.534  1.00  0.00    -0.336 C  
BRANCH   3   4
HETATM    4  C   UNL     1     -10.369   5.748  70.998  1.00  0.00    -0.230 C  
BRANCH   4   5
HETATM    5  O   UNL     1     -11.305   6.809  71.205  1.00  0.00    -0.266 OA 
BRANCH   5   6
HETATM    6  C   UNL     1     -10.921   7.722  72.129  1.00  0.00    -0.266 C  
HETATM    7  O   UNL     1     -11.348   7.814  73.270  1.00  0.00    -0.321 OA 
BRANCH   6   8
HETATM    8  C   UNL     1      -9.749   8.479  71.608  1.00  0.00    -0.322 A  
HETATM    9  C   UNL     1      -8.482   8.175  72.122  1.00  0.00    -0.216 A  
HETATM   10  C   UNL     1      -7.341   8.765  71.571  1.00  0.00    -0.109 A  
HETATM   11  C   UNL     1      -7.474   9.656  70.510  1.00  0.00    -0.132 A  
HETATM   12  C   UNL     1      -8.725   9.970  69.993  1.00  0.00    -0.118 A  
HETATM   13  O   UNL     1      -6.389  10.246  69.934  1.00  0.00    -0.058 OA 
HETATM   14  C   UNL     1      -9.868   9.387  70.544  1.00  0.00    -0.331 A  
HETATM   15  H   UNL     1      -6.480  10.854  69.210  1.00  0.00     0.000 HD 
ENDBRANCH   6   8
ENDBRANCH   5   6
ENDBRANCH   4   5
ENDBRANCH   3   4
ENDBRANCH   2   3
TORSDOF 5
ENDMDL
MODEL      199
REMARK 921   NORMALIZED FREE ENERGY PREDICTED BY IDOCK:   -2.69 KCAL/MOL
REMARK 922        TOTAL FREE ENERGY PREDICTED BY IDOCK:   -3.78 KCAL/MOL
REMARK 923 INTER-LIGAND FREE ENERGY PREDICTED BY IDOCK:   -2.86 KCAL/MOL
REMARK 924 INTRA-LIGAND FREE ENERGY PREDICTED BY IDOCK:   -0.92 KCAL/MOL
REMARK 927      BINDING AFFINITY PREDICTED BY RF-SCORE:    0.00 PKD
ROOT
HETATM    1  C   UNL     1      -8.631   4.025  69.652  1.00  0.00    -0.105 C  
HETATM    2  C   UNL     1      -9.890   4.485  68.943  1.00  0.00    -0.190 C  
ENDROOT
BRANCH   2   3
HETATM    3  C   UNL     1      -9.792   5.929  68.452  1.00  0.00    -0.163 C  
BRANCH   3   4
HETATM    4  C   UNL     1     -10.929   6.741  69.050  1.00  0.00    -0.233 C  
BRANCH   4   5
HETATM    5  O   UNL     1     -10.459   7.710  69.989  1.00  0.00    -0.218 OA 
BRANCH   5   6
HETATM    6  C   UNL     1     -11.102   7.694  71.181  1.00  0.00    -0.251 C  
HETATM    7  O   UNL     1     -12.052   8.395  71.496  1.00  0.00    -0.282 OA 
BRANCH   6   8
HETATM    8  C   UNL     1     -10.602   6.547  71.987  1.00  0.00    -0.244 A  
HETATM    9  C   UNL     1      -9.242   6.512  72.320  1.00  0.00    -0.138 A  
HETATM   10  C   UNL     1      -8.755   5.528  73.184  1.00  0.00    -0.120 A  
HETATM   11  C   UNL     1      -9.631   4.581  73.709  1.00  0.00    -0.123 A  
HETATM   12  C   UNL     1     -10.982   4.601  73.384  1.00  0.00    -0.395 A  
HETATM   13  O   UNL     1      -9.203   3.610  74.563  1.00  0.00    -0.091 OA 
HETATM   14  C   UNL     1     -11.471   5.580  72.517  1.00  0.00    -0.303 A  
HETATM   15  H   UNL     1      -9.801   2.965  74.922  1.00  0.00     0.000 HD 
ENDBRANCH   6   8
ENDBRANCH   5   6
ENDBRANCH   4   5
ENDBRANCH   3   4
ENDBRANCH   2   3
TORSDOF 5
ENDMDL
MODEL      200
REMARK 921   NORMALIZED FREE ENERGY PREDICTED BY IDOCK:   -2.67 KCAL/MOL
REMARK 922        TOTAL FREE ENERGY PREDICTED BY IDOCK:   -3.76 KCAL/MOL
REMARK 923 INTER-LIGAND FREE ENERGY PREDICTED BY IDOCK:   -3.07 KCAL/MOL
REMARK 924 INTRA-LIGAND FREE ENERGY PREDICTED BY IDOCK:   -0.69 KCAL/MOL
REMARK 927      BINDING AFFINITY PREDICTED BY RF-SCORE:    0.00 PKD
ROOT
HETATM    1  C   UNL     1      -7.359   7.830  70.471  1.00  0.00    -0.072 C  
HETATM    2  C   UNL     1      -8.117   8.927  71.192  1.00  0.00    -0.201 C  
ENDROOT
BRANCH   2   3
HETATM    3  C   UNL     1      -8.797   8.430  72.466  1.00  0.00    -0.296 C  
BRANCH   3   4
HETATM    4  C   UNL     1     -10.294   8.672  72.363  1.00  0.00    -0.247 C  
BRANCH   4   5
HETATM    5  O   UNL     1     -11.040   7.456  72.457  1.00  0.00    -0.262 OA 
BRANCH   5   6
HETATM    6  C   UNL     1     -11.202   6.806  71.279  1.00  0.00    -0.276 C  
HETATM    7  O   UNL     1     -11.755   7.249  70.284  1.00  0.00    -0.229 OA 
BRANCH   6   8
HETATM    8  C   UNL     1     -10.426   5.536  71.313  1.00  0.00    -0.306 A  
HETATM    9  C   UNL     1     -10.238   4.906  72.550  1.00  0.00    -0.248 A  
HETATM   10  C   UNL     1      -9.632   3.649  72.613  1.00  0.00    -0.188 A  
HETATM   11  C   UNL     1      -9.215   3.029  71.437  1.00  0.00    -0.120 A  
HETATM   12  C   UNL     1      -9.391   3.645  70.204  1.00  0.00    -0.243 A  
HETATM   13  O   UNL     1      -8.630   1.799  71.449  1.00  0.00    -0.053 OA 
HETATM   14  C   UNL     1      -9.992   4.903  70.138  1.00  0.00    -0.325 A  
HETATM   15  H   UNL     1      -8.346   1.376  70.648  1.00  0.00     0.000 HD 
ENDBRANCH   6   8
ENDBRANCH   5   6
ENDBRANCH   4   5
ENDBRANCH   3   4
ENDBRANCH   2   3
TORSDOF 5
ENDMDL
MODEL      201
REMARK 921   NORMALIZED FREE ENERGY PREDICTED BY IDOCK:   -2.65 KCAL/MOL
REMARK 922        TOTAL FREE ENERGY PREDICTED BY IDOCK:   -3.72 KCAL/MOL
REMARK 923 INTER-LIGAND FREE ENERGY PREDICTED BY IDOCK:   -3.51 KCAL/MOL
REMARK 924 INTRA-LIGAND FREE ENERGY PREDICTED BY IDOCK:   -0.21 KCAL/MOL
REMARK 927      BINDING AFFINITY PREDICTED BY RF-SCORE:    0.00 PKD
ROOT
HETATM    1  C   UNL     1      -7.860   5.156  65.296  1.00  0.00    -0.090 C  
HETATM    2  C   UNL     1      -7.392   5.690  66.635  1.00  0.00    -0.083 C  
ENDROOT
BRANCH   2   3
HETATM    3  C   UNL     1      -8.537   6.263  67.470  1.00  0.00    -0.107 C  
BRANCH   3   4
HETATM    4  C   UNL     1      -8.123   7.615  68.028  1.00  0.00    -0.123 C  
BRANCH   4   5
HETATM    5  O   UNL     1      -9.216   8.536  68.064  1.00  0.00    -0.137 OA 
BRANCH   5   6
HETATM    6  C   UNL     1      -9.056   9.560  68.936  1.00  0.00    -0.141 C  
HETATM    7  O   UNL     1      -8.138  10.367  68.939  1.00  0.00    -0.111 OA 
BRANCH   6   8
HETATM    8  C   UNL     1     -10.279   9.678  69.777  1.00  0.00    -0.262 A  
HETATM    9  C   UNL     1     -10.260   9.111  71.058  1.00  0.00    -0.372 A  
HETATM   10  C   UNL     1     -11.333   9.311  71.930  1.00  0.00    -0.359 A  
HETATM   11  C   UNL     1     -12.421  10.075  71.515  1.00  0.00    -0.419 A  
HETATM   12  C   UNL     1     -12.455  10.640  70.246  1.00  0.00    -0.381 A  
HETATM   13  O   UNL     1     -13.484  10.305  72.336  1.00  0.00    -0.618 OA 
HETATM   14  C   UNL     1     -11.387  10.438  69.371  1.00  0.00    -0.310 A  
HETATM   15  H   UNL     1     -14.226  10.827  72.053  1.00  0.00     0.000 HD 
ENDBRANCH   6   8
ENDBRANCH   5   6
ENDBRANCH   4   5
ENDBRANCH   3   4
ENDBRANCH   2   3
TORSDOF 5
ENDMDL
MODEL      202
REMARK 921   NORMALIZED FREE ENERGY PREDICTED BY IDOCK:   -2.65 KCAL/MOL
REMARK 922        TOTAL FREE ENERGY PREDICTED BY IDOCK:   -3.72 KCAL/MOL
REMARK 923 INTER-LIGAND FREE ENERGY PREDICTED BY IDOCK:   -3.50 KCAL/MOL
REMARK 924 INTRA-LIGAND FREE ENERGY PREDICTED BY IDOCK:   -0.22 KCAL/MOL
REMARK 927      BINDING AFFINITY PREDICTED BY RF-SCORE:    0.00 PKD
ROOT
HETATM    1  C   UNL     1      -8.773  11.737  68.133  1.00  0.00    -0.168 C  
HETATM    2  C   UNL     1      -7.274  11.834  67.929  1.00  0.00    -0.092 C  
ENDROOT
BRANCH   2   3
HETATM    3  C   UNL     1      -6.826  13.239  67.528  1.00  0.00    -0.155 C  
BRANCH   3   4
HETATM    4  C   UNL     1      -7.414  14.249  68.499  1.00  0.00    -0.121 C  
BRANCH   4   5
HETATM    5  O   UNL     1      -7.856  15.435  67.835  1.00  0.00    -0.122 OA 
BRANCH   5   6
HETATM    6  C   UNL     1      -7.608  16.581  68.513  1.00  0.00    -0.200 C  
HETATM    7  O   UNL     1      -6.815  16.717  69.433  1.00  0.00    -0.230 OA 
BRANCH   6   8
HETATM    8  C   UNL     1      -8.307  17.708  67.836  1.00  0.00    -0.235 A  
HETATM    9  C   UNL     1      -7.533  18.762  67.332  1.00  0.00    -0.233 A  
HETATM   10  C   UNL     1      -8.132  19.773  66.575  1.00  0.00    -0.351 A  
HETATM   11  C   UNL     1      -9.501  19.726  66.330  1.00  0.00    -0.406 A  
HETATM   12  C   UNL     1     -10.282  18.690  66.828  1.00  0.00    -0.431 A  
HETATM   13  O   UNL     1     -10.125  20.684  65.588  1.00  0.00    -0.478 OA 
HETATM   14  C   UNL     1      -9.688  17.681  67.587  1.00  0.00    -0.277 A  
HETATM   15  H   UNL     1     -11.060  20.652  65.420  1.00  0.00     0.000 HD 
ENDBRANCH   6   8
ENDBRANCH   5   6
ENDBRANCH   4   5
ENDBRANCH   3   4
ENDBRANCH   2   3
TORSDOF 5
ENDMDL
MODEL      203
REMARK 921   NORMALIZED FREE ENERGY PREDICTED BY IDOCK:   -2.61 KCAL/MOL
REMARK 922        TOTAL FREE ENERGY PREDICTED BY IDOCK:   -3.67 KCAL/MOL
REMARK 923 INTER-LIGAND FREE ENERGY PREDICTED BY IDOCK:   -2.93 KCAL/MOL
REMARK 924 INTRA-LIGAND FREE ENERGY PREDICTED BY IDOCK:   -0.74 KCAL/MOL
REMARK 927      BINDING AFFINITY PREDICTED BY RF-SCORE:    0.00 PKD
ROOT
HETATM    1  C   UNL     1      -9.924  10.513  65.333  1.00  0.00    -0.353 C  
HETATM    2  C   UNL     1     -10.524  11.601  66.203  1.00  0.00    -0.289 C  
ENDROOT
BRANCH   2   3
HETATM    3  C   UNL     1      -9.508  12.204  67.171  1.00  0.00    -0.190 C  
BRANCH   3   4
HETATM    4  C   UNL     1      -8.661  11.091  67.768  1.00  0.00    -0.130 C  
BRANCH   4   5
HETATM    5  O   UNL     1      -9.357  10.381  68.794  1.00  0.00    -0.158 OA 
BRANCH   5   6
HETATM    6  C   UNL     1      -8.799   9.194  69.130  1.00  0.00    -0.146 C  
HETATM    7  O   UNL     1      -8.157   8.961  70.144  1.00  0.00    -0.101 OA 
BRANCH   6   8
HETATM    8  C   UNL     1      -9.254   8.152  68.168  1.00  0.00    -0.136 A  
HETATM    9  C   UNL     1      -8.283   7.409  67.486  1.00  0.00    -0.113 A  
HETATM   10  C   UNL     1      -8.660   6.335  66.676  1.00  0.00    -0.119 A  
HETATM   11  C   UNL     1     -10.009   6.013  66.550  1.00  0.00    -0.141 A  
HETATM   12  C   UNL     1     -10.984   6.744  67.217  1.00  0.00    -0.433 A  
HETATM   13  O   UNL     1     -10.423   4.967  65.780  1.00  0.00    -0.418 OA 
HETATM   14  C   UNL     1     -10.611   7.820  68.024  1.00  0.00    -0.201 A  
HETATM   15  H   UNL     1     -11.343   4.747  65.694  1.00  0.00     0.000 HD 
ENDBRANCH   6   8
ENDBRANCH   5   6
ENDBRANCH   4   5
ENDBRANCH   3   4
ENDBRANCH   2   3
TORSDOF 5
ENDMDL
MODEL      204
REMARK 921   NORMALIZED FREE ENERGY PREDICTED BY IDOCK:   -2.59 KCAL/MOL
REMARK 922        TOTAL FREE ENERGY PREDICTED BY IDOCK:   -3.65 KCAL/MOL
REMARK 923 INTER-LIGAND FREE ENERGY PREDICTED BY IDOCK:   -2.89 KCAL/MOL
REMARK 924 INTRA-LIGAND FREE ENERGY PREDICTED BY IDOCK:   -0.76 KCAL/MOL
REMARK 927      BINDING AFFINITY PREDICTED BY RF-SCORE:    0.00 PKD
ROOT
HETATM    1  C   UNL     1      -9.049   5.240  65.640  1.00  0.00    -0.158 C  
HETATM    2  C   UNL     1     -10.138   4.726  66.562  1.00  0.00    -0.286 C  
ENDROOT
BRANCH   2   3
HETATM    3  C   UNL     1      -9.579   4.089  67.832  1.00  0.00    -0.199 C  
BRANCH   3   4
HETATM    4  C   UNL     1     -10.009   4.910  69.037  1.00  0.00    -0.167 C  
BRANCH   4   5
HETATM    5  O   UNL     1     -11.079   5.803  68.721  1.00  0.00    -0.243 OA 
BRANCH   5   6
HETATM    6  C   UNL     1     -10.969   7.030  69.284  1.00  0.00    -0.178 C  
HETATM    7  O   UNL     1     -11.412   7.365  70.372  1.00  0.00    -0.279 OA 
BRANCH   6   8
HETATM    8  C   UNL     1     -10.049   7.862  68.461  1.00  0.00    -0.216 A  
HETATM    9  C   UNL     1     -10.511   8.340  67.228  1.00  0.00    -0.373 A  
HETATM   10  C   UNL     1      -9.733   9.231  66.484  1.00  0.00    -0.305 A  
HETATM   11  C   UNL     1      -8.496   9.638  66.977  1.00  0.00    -0.124 A  
HETATM   12  C   UNL     1      -8.023   9.169  68.197  1.00  0.00    -0.100 A  
HETATM   13  O   UNL     1      -7.708  10.514  66.292  1.00  0.00    -0.123 OA 
HETATM   14  C   UNL     1      -8.795   8.275  68.940  1.00  0.00    -0.140 A  
HETATM   15  H   UNL     1      -6.865  10.792  66.628  1.00  0.00     0.000 HD 
ENDBRANCH   6   8
ENDBRANCH   5   6
ENDBRANCH   4   5
ENDBRANCH   3   4
ENDBRANCH   2   3
TORSDOF 5
ENDMDL
MODEL      205
REMARK 921   NORMALIZED FREE ENERGY PREDICTED BY IDOCK:   -2.58 KCAL/MOL
REMARK 922        TOTAL FREE ENERGY PREDICTED BY IDOCK:   -3.64 KCAL/MOL
REMARK 923 INTER-LIGAND FREE ENERGY PREDICTED BY IDOCK:   -2.95 KCAL/MOL
REMARK 924 INTRA-LIGAND FREE ENERGY PREDICTED BY IDOCK:   -0.69 KCAL/MOL
REMARK 927      BINDING AFFINITY PREDICTED BY RF-SCORE:    0.00 PKD
ROOT
HETATM    1  C   UNL     1     -10.890   6.840  72.536  1.00  0.00    -0.271 C  
HETATM    2  C   UNL     1      -9.479   6.367  72.246  1.00  0.00    -0.149 C  
ENDROOT
BRANCH   2   3
HETATM    3  C   UNL     1      -8.547   7.511  71.851  1.00  0.00    -0.122 C  
BRANCH   3   4
HETATM    4  C   UNL     1      -9.345   8.802  71.764  1.00  0.00    -0.280 C  
BRANCH   4   5
HETATM    5  O   UNL     1      -9.332   9.351  70.444  1.00  0.00    -0.232 OA 
BRANCH   5   6
HETATM    6  C   UNL     1     -10.439   9.078  69.713  1.00  0.00    -0.218 C  
HETATM    7  O   UNL     1     -11.514   9.654  69.793  1.00  0.00    -0.176 OA 
BRANCH   6   8
HETATM    8  C   UNL     1     -10.092   8.094  68.652  1.00  0.00    -0.211 A  
HETATM    9  C   UNL     1     -10.978   7.036  68.412  1.00  0.00    -0.137 A  
HETATM   10  C   UNL     1     -10.760   6.166  67.341  1.00  0.00    -0.403 A  
HETATM   11  C   UNL     1      -9.655   6.357  66.516  1.00  0.00    -0.145 A  
HETATM   12  C   UNL     1      -8.765   7.400  66.745  1.00  0.00    -0.136 A  
HETATM   13  O   UNL     1      -9.409   5.541  65.453  1.00  0.00    -0.334 OA 
HETATM   14  C   UNL     1      -8.977   8.268  67.817  1.00  0.00    -0.139 A  
HETATM   15  H   UNL     1      -8.655   5.672  64.890  1.00  0.00     0.000 HD 
ENDBRANCH   6   8
ENDBRANCH   5   6
ENDBRANCH   4   5
ENDBRANCH   3   4
ENDBRANCH   2   3
TORSDOF 5
ENDMDL
MODEL      206
REMARK 921   NORMALIZED FREE ENERGY PREDICTED BY IDOCK:   -2.58 KCAL/MOL
REMARK 922        TOTAL FREE ENERGY PREDICTED BY IDOCK:   -3.63 KCAL/MOL
REMARK 923 INTER-LIGAND FREE ENERGY PREDICTED BY IDOCK:   -3.30 KCAL/MOL
REMARK 924 INTRA-LIGAND FREE ENERGY PREDICTED BY IDOCK:   -0.33 KCAL/MOL
REMARK 927      BINDING AFFINITY PREDICTED BY RF-SCORE:    0.00 PKD
ROOT
HETATM    1  C   UNL     1      -6.451   5.227  65.785  1.00  0.00    -0.036 C  
HETATM    2  C   UNL     1      -5.957   5.957  67.019  1.00  0.00    -0.018 C  
ENDROOT
BRANCH   2   3
HETATM    3  C   UNL     1      -7.099   6.433  67.915  1.00  0.00    -0.085 C  
BRANCH   3   4
HETATM    4  C   UNL     1      -8.169   7.090  67.058  1.00  0.00    -0.117 C  
BRANCH   4   5
HETATM    5  O   UNL     1      -9.474   6.937  67.620  1.00  0.00    -0.124 OA 
BRANCH   5   6
HETATM    6  C   UNL     1     -10.064   8.099  67.990  1.00  0.00    -0.197 C  
HETATM    7  O   UNL     1     -10.380   9.014  67.244  1.00  0.00    -0.237 OA 
BRANCH   6   8
HETATM    8  C   UNL     1     -10.452   8.013  69.424  1.00  0.00    -0.223 A  
HETATM    9  C   UNL     1     -10.523   9.200  70.165  1.00  0.00    -0.249 A  
HETATM   10  C   UNL     1     -11.010   9.184  71.474  1.00  0.00    -0.434 A  
HETATM   11  C   UNL     1     -11.420   7.978  72.038  1.00  0.00    -0.309 A  
HETATM   12  C   UNL     1     -11.351   6.792  71.317  1.00  0.00    -0.333 A  
HETATM   13  O   UNL     1     -11.912   7.916  73.307  1.00  0.00    -0.629 OA 
HETATM   14  C   UNL     1     -10.861   6.805  70.010  1.00  0.00    -0.311 A  
HETATM   15  H   UNL     1     -12.192   7.094  73.691  1.00  0.00     0.000 HD 
ENDBRANCH   6   8
ENDBRANCH   5   6
ENDBRANCH   4   5
ENDBRANCH   3   4
ENDBRANCH   2   3
TORSDOF 5
ENDMDL
MODEL      207
REMARK 921   NORMALIZED FREE ENERGY PREDICTED BY IDOCK:   -2.54 KCAL/MOL
REMARK 922        TOTAL FREE ENERGY PREDICTED BY IDOCK:   -3.59 KCAL/MOL
REMARK 923 INTER-LIGAND FREE ENERGY PREDICTED BY IDOCK:   -3.29 KCAL/MOL
REMARK 924 INTRA-LIGAND FREE ENERGY PREDICTED BY IDOCK:   -0.30 KCAL/MOL
REMARK 927      BINDING AFFINITY PREDICTED BY RF-SCORE:    0.00 PKD
ROOT
HETATM    1  C   UNL     1     -13.267  10.864  71.732  1.00  0.00    -0.513 C  
HETATM    2  C   UNL     1     -13.795   9.454  71.906  1.00  0.00    -0.380 C  
ENDROOT
BRANCH   2   3
HETATM    3  C   UNL     1     -12.701   8.463  72.303  1.00  0.00    -0.376 C  
BRANCH   3   4
HETATM    4  C   UNL     1     -12.911   7.157  71.555  1.00  0.00    -0.383 C  
BRANCH   4   5
HETATM    5  O   UNL     1     -11.856   6.224  71.800  1.00  0.00    -0.316 OA 
BRANCH   5   6
HETATM    6  C   UNL     1     -10.900   6.196  70.841  1.00  0.00    -0.281 C  
HETATM    7  O   UNL     1     -10.962   6.736  69.747  1.00  0.00    -0.257 OA 
BRANCH   6   8
HETATM    8  C   UNL     1      -9.670   5.570  71.398  1.00  0.00    -0.205 A  
HETATM    9  C   UNL     1      -9.417   5.709  72.769  1.00  0.00    -0.157 A  
HETATM   10  C   UNL     1      -8.348   5.030  73.359  1.00  0.00    -0.110 A  
HETATM   11  C   UNL     1      -7.535   4.217  72.573  1.00  0.00    -0.073 A  
HETATM   12  C   UNL     1      -7.771   4.073  71.211  1.00  0.00    -0.066 A  
HETATM   13  O   UNL     1      -6.489   3.527  73.107  1.00  0.00    -0.022 OA 
HETATM   14  C   UNL     1      -8.836   4.754  70.618  1.00  0.00    -0.146 A  
HETATM   15  H   UNL     1      -5.935   2.972  72.571  1.00  0.00     0.000 HD 
ENDBRANCH   6   8
ENDBRANCH   5   6
ENDBRANCH   4   5
ENDBRANCH   3   4
ENDBRANCH   2   3
TORSDOF 5
ENDMDL
MODEL      208
REMARK 921   NORMALIZED FREE ENERGY PREDICTED BY IDOCK:   -2.54 KCAL/MOL
REMARK 922        TOTAL FREE ENERGY PREDICTED BY IDOCK:   -3.59 KCAL/MOL
REMARK 923 INTER-LIGAND FREE ENERGY PREDICTED BY IDOCK:   -3.36 KCAL/MOL
REMARK 924 INTRA-LIGAND FREE ENERGY PREDICTED BY IDOCK:   -0.23 KCAL/MOL
REMARK 927      BINDING AFFINITY PREDICTED BY RF-SCORE:    0.00 PKD
ROOT
HETATM    1  C   UNL     1     -10.368  10.154  66.842  1.00  0.00    -0.298 C  
HETATM    2  C   UNL     1      -9.132  10.687  66.145  1.00  0.00    -0.190 C  
ENDROOT
BRANCH   2   3
HETATM    3  C   UNL     1      -8.797  12.119  66.557  1.00  0.00    -0.151 C  
BRANCH   3   4
HETATM    4  C   UNL     1      -9.914  13.046  66.104  1.00  0.00    -0.278 C  
BRANCH   4   5
HETATM    5  O   UNL     1      -9.548  14.423  66.221  1.00  0.00    -0.289 OA 
BRANCH   5   6
HETATM    6  C   UNL     1     -10.325  15.138  67.069  1.00  0.00    -0.271 C  
HETATM    7  O   UNL     1     -11.381  14.770  67.562  1.00  0.00    -0.319 OA 
BRANCH   6   8
HETATM    8  C   UNL     1      -9.598  16.374  67.470  1.00  0.00    -0.227 A  
HETATM    9  C   UNL     1      -9.173  16.492  68.800  1.00  0.00    -0.252 A  
HETATM   10  C   UNL     1      -8.374  17.570  69.189  1.00  0.00     0.078 A  
HETATM   11  C   UNL     1      -8.007  18.527  68.246  1.00  0.00    -0.305 A  
HETATM   12  C   UNL     1      -8.426  18.426  66.925  1.00  0.00    -0.272 A  
HETATM   13  O   UNL     1      -7.221  19.589  68.578  1.00  0.00    -0.300 OA 
HETATM   14  C   UNL     1      -9.227  17.352  66.534  1.00  0.00    -0.286 A  
HETATM   15  H   UNL     1      -6.970  20.242  67.935  1.00  0.00     0.000 HD 
ENDBRANCH   6   8
ENDBRANCH   5   6
ENDBRANCH   4   5
ENDBRANCH   3   4
ENDBRANCH   2   3
TORSDOF 5
ENDMDL
MODEL      209
REMARK 921   NORMALIZED FREE ENERGY PREDICTED BY IDOCK:   -2.54 KCAL/MOL
REMARK 922        TOTAL FREE ENERGY PREDICTED BY IDOCK:   -3.59 KCAL/MOL
REMARK 923 INTER-LIGAND FREE ENERGY PREDICTED BY IDOCK:   -2.94 KCAL/MOL
REMARK 924 INTRA-LIGAND FREE ENERGY PREDICTED BY IDOCK:   -0.64 KCAL/MOL
REMARK 927      BINDING AFFINITY PREDICTED BY RF-SCORE:    0.00 PKD
ROOT
HETATM    1  C   UNL     1      -8.513   4.401  69.616  1.00  0.00    -0.089 C  
HETATM    2  C   UNL     1      -9.404   4.357  70.842  1.00  0.00    -0.218 C  
ENDROOT
BRANCH   2   3
HETATM    3  C   UNL     1     -10.391   5.522  70.891  1.00  0.00    -0.310 C  
BRANCH   3   4
HETATM    4  C   UNL     1      -9.758   6.744  70.245  1.00  0.00    -0.171 C  
BRANCH   4   5
HETATM    5  O   UNL     1     -10.730   7.579  69.612  1.00  0.00    -0.238 OA 
BRANCH   5   6
HETATM    6  C   UNL     1     -10.279   8.228  68.512  1.00  0.00    -0.208 C  
HETATM    7  O   UNL     1      -9.997   9.415  68.442  1.00  0.00    -0.160 OA 
BRANCH   6   8
HETATM    8  C   UNL     1      -9.988   7.232  67.445  1.00  0.00    -0.228 A  
HETATM    9  C   UNL     1      -8.723   7.253  66.845  1.00  0.00    -0.126 A  
HETATM   10  C   UNL     1      -8.360   6.257  65.935  1.00  0.00    -0.142 A  
HETATM   11  C   UNL     1      -9.267   5.246  65.627  1.00  0.00    -0.136 A  
HETATM   12  C   UNL     1     -10.527   5.215  66.211  1.00  0.00    -0.341 A  
HETATM   13  O   UNL     1      -8.952   4.248  64.754  1.00  0.00    -0.132 OA 
HETATM   14  C   UNL     1     -10.895   6.211  67.117  1.00  0.00    -0.442 A  
HETATM   15  H   UNL     1      -9.571   3.558  64.545  1.00  0.00     0.000 HD 
ENDBRANCH   6   8
ENDBRANCH   5   6
ENDBRANCH   4   5
ENDBRANCH   3   4
ENDBRANCH   2   3
TORSDOF 5
ENDMDL
MODEL      210
REMARK 921   NORMALIZED FREE ENERGY PREDICTED BY IDOCK:   -2.53 KCAL/MOL
REMARK 922        TOTAL FREE ENERGY PREDICTED BY IDOCK:   -3.57 KCAL/MOL
REMARK 923 INTER-LIGAND FREE ENERGY PREDICTED BY IDOCK:   -3.35 KCAL/MOL
REMARK 924 INTRA-LIGAND FREE ENERGY PREDICTED BY IDOCK:   -0.23 KCAL/MOL
REMARK 927      BINDING AFFINITY PREDICTED BY RF-SCORE:    0.00 PKD
ROOT
HETATM    1  C   UNL     1      -8.833   6.777  69.243  1.00  0.00    -0.137 C  
HETATM    2  C   UNL     1      -9.184   7.707  68.099  1.00  0.00    -0.138 C  
ENDROOT
BRANCH   2   3
HETATM    3  C   UNL     1      -8.468   9.053  68.197  1.00  0.00    -0.129 C  
BRANCH   3   4
HETATM    4  C   UNL     1      -9.394  10.152  67.701  1.00  0.00    -0.148 C  
BRANCH   4   5
HETATM    5  O   UNL     1      -9.533  11.206  68.657  1.00  0.00    -0.190 OA 
BRANCH   5   6
HETATM    6  C   UNL     1     -10.801  11.653  68.817  1.00  0.00    -0.220 C  
HETATM    7  O   UNL     1     -11.768  10.976  69.134  1.00  0.00    -0.284 OA 
BRANCH   6   8
HETATM    8  C   UNL     1     -10.807  13.140  68.741  1.00  0.00    -0.278 A  
HETATM    9  C   UNL     1      -9.698  13.779  68.172  1.00  0.00    -0.227 A  
HETATM   10  C   UNL     1      -9.716  15.160  67.959  1.00  0.00    -0.209 A  
HETATM   11  C   UNL     1     -10.843  15.895  68.320  1.00  0.00    -0.315 A  
HETATM   12  C   UNL     1     -11.948  15.274  68.890  1.00  0.00    -0.292 A  
HETATM   13  O   UNL     1     -10.909  17.241  68.122  1.00  0.00    -0.375 OA 
HETATM   14  C   UNL     1     -11.932  13.896  69.108  1.00  0.00    -0.404 A  
HETATM   15  H   UNL     1     -11.678  17.742  68.367  1.00  0.00     0.000 HD 
ENDBRANCH   6   8
ENDBRANCH   5   6
ENDBRANCH   4   5
ENDBRANCH   3   4
ENDBRANCH   2   3
TORSDOF 5
ENDMDL
MODEL      211
REMARK 921   NORMALIZED FREE ENERGY PREDICTED BY IDOCK:   -2.52 KCAL/MOL
REMARK 922        TOTAL FREE ENERGY PREDICTED BY IDOCK:   -3.56 KCAL/MOL
REMARK 923 INTER-LIGAND FREE ENERGY PREDICTED BY IDOCK:   -3.22 KCAL/MOL
REMARK 924 INTRA-LIGAND FREE ENERGY PREDICTED BY IDOCK:   -0.34 KCAL/MOL
REMARK 927      BINDING AFFINITY PREDICTED BY RF-SCORE:    0.00 PKD
ROOT
HETATM    1  C   UNL     1      -9.254   7.114  74.330  1.00  0.00    -0.250 C  
HETATM    2  C   UNL     1      -8.952   6.309  73.081  1.00  0.00    -0.130 C  
ENDROOT
BRANCH   2   3
HETATM    3  C   UNL     1      -7.498   6.445  72.633  1.00  0.00    -0.091 C  
BRANCH   3   4
HETATM    4  C   UNL     1      -7.455   7.064  71.245  1.00  0.00    -0.081 C  
BRANCH   4   5
HETATM    5  O   UNL     1      -8.570   7.927  71.010  1.00  0.00    -0.126 OA 
BRANCH   5   6
HETATM    6  C   UNL     1      -8.236   9.216  70.759  1.00  0.00    -0.190 C  
HETATM    7  O   UNL     1      -7.205   9.773  71.104  1.00  0.00    -0.327 OA 
BRANCH   6   8
HETATM    8  C   UNL     1      -9.232   9.803  69.821  1.00  0.00    -0.248 A  
HETATM    9  C   UNL     1     -10.590   9.713  70.154  1.00  0.00    -0.320 A  
HETATM   10  C   UNL     1     -11.549  10.363  69.374  1.00  0.00    -0.272 A  
HETATM   11  C   UNL     1     -11.145  11.098  68.262  1.00  0.00    -0.251 A  
HETATM   12  C   UNL     1      -9.803  11.192  67.917  1.00  0.00    -0.187 A  
HETATM   13  O   UNL     1     -12.044  11.757  67.478  1.00  0.00    -0.599 OA 
HETATM   14  C   UNL     1      -8.842  10.540  68.692  1.00  0.00    -0.147 A  
HETATM   15  H   UNL     1     -11.769  12.259  66.720  1.00  0.00     0.000 HD 
ENDBRANCH   6   8
ENDBRANCH   5   6
ENDBRANCH   4   5
ENDBRANCH   3   4
ENDBRANCH   2   3
TORSDOF 5
ENDMDL
MODEL      212
REMARK 921   NORMALIZED FREE ENERGY PREDICTED BY IDOCK:   -2.51 KCAL/MOL
REMARK 922        TOTAL FREE ENERGY PREDICTED BY IDOCK:   -3.55 KCAL/MOL
REMARK 923 INTER-LIGAND FREE ENERGY PREDICTED BY IDOCK:   -3.38 KCAL/MOL
REMARK 924 INTRA-LIGAND FREE ENERGY PREDICTED BY IDOCK:   -0.16 KCAL/MOL
REMARK 927      BINDING AFFINITY PREDICTED BY RF-SCORE:    0.00 PKD
ROOT
HETATM    1  C   UNL     1     -11.391  16.349  68.571  1.00  0.00    -0.289 C  
HETATM    2  C   UNL     1     -10.429  16.792  67.486  1.00  0.00    -0.319 C  
ENDROOT
BRANCH   2   3
HETATM    3  C   UNL     1     -10.607  16.006  66.188  1.00  0.00    -0.302 C  
BRANCH   3   4
HETATM    4  C   UNL     1      -9.615  14.854  66.159  1.00  0.00    -0.310 C  
BRANCH   4   5
HETATM    5  O   UNL     1      -9.793  13.966  67.266  1.00  0.00    -0.235 OA 
BRANCH   5   6
HETATM    6  C   UNL     1      -8.823  13.030  67.393  1.00  0.00    -0.203 C  
HETATM    7  O   UNL     1      -7.646  13.168  67.096  1.00  0.00    -0.117 OA 
BRANCH   6   8
HETATM    8  C   UNL     1      -9.369  11.862  68.139  1.00  0.00    -0.191 A  
HETATM    9  C   UNL     1     -10.754  11.788  68.335  1.00  0.00    -0.249 A  
HETATM   10  C   UNL     1     -11.322  10.650  68.912  1.00  0.00    -0.337 A  
HETATM   11  C   UNL     1     -10.500   9.591  69.292  1.00  0.00    -0.212 A  
HETATM   12  C   UNL     1      -9.124   9.653  69.109  1.00  0.00    -0.154 A  
HETATM   13  O   UNL     1     -11.011   8.457  69.849  1.00  0.00    -0.316 OA 
HETATM   14  C   UNL     1      -8.553  10.791  68.537  1.00  0.00    -0.148 A  
HETATM   15  H   UNL     1     -10.450   7.735  70.108  1.00  0.00     0.000 HD 
ENDBRANCH   6   8
ENDBRANCH   5   6
ENDBRANCH   4   5
ENDBRANCH   3   4
ENDBRANCH   2   3
TORSDOF 5
ENDMDL
MODEL      213
REMARK 921   NORMALIZED FREE ENERGY PREDICTED BY IDOCK:   -2.51 KCAL/MOL
REMARK 922        TOTAL FREE ENERGY PREDICTED BY IDOCK:   -3.55 KCAL/MOL
REMARK 923 INTER-LIGAND FREE ENERGY PREDICTED BY IDOCK:   -3.31 KCAL/MOL
REMARK 924 INTRA-LIGAND FREE ENERGY PREDICTED BY IDOCK:   -0.24 KCAL/MOL
REMARK 927      BINDING AFFINITY PREDICTED BY RF-SCORE:    0.00 PKD
ROOT
HETATM    1  C   UNL     1      -9.067   5.411  69.059  1.00  0.00    -0.136 C  
HETATM    2  C   UNL     1      -9.848   6.671  69.381  1.00  0.00    -0.160 C  
ENDROOT
BRANCH   2   3
HETATM    3  C   UNL     1      -9.810   7.690  68.243  1.00  0.00    -0.181 C  
BRANCH   3   4
HETATM    4  C   UNL     1      -9.425   9.051  68.801  1.00  0.00    -0.148 C  
BRANCH   4   5
HETATM    5  O   UNL     1     -10.267  10.092  68.301  1.00  0.00    -0.159 OA 
BRANCH   5   6
HETATM    6  C   UNL     1      -9.604  11.100  67.686  1.00  0.00    -0.170 C  
HETATM    7  O   UNL     1      -8.667  10.979  66.912  1.00  0.00    -0.141 OA 
BRANCH   6   8
HETATM    8  C   UNL     1     -10.320  12.380  67.941  1.00  0.00    -0.215 A  
HETATM    9  C   UNL     1     -11.520  12.337  68.664  1.00  0.00    -0.355 A  
HETATM   10  C   UNL     1     -12.156  13.523  69.040  1.00  0.00    -0.330 A  
HETATM   11  C   UNL     1     -11.590  14.746  68.690  1.00  0.00    -0.319 A  
HETATM   12  C   UNL     1     -10.403  14.804  67.969  1.00  0.00    -0.237 A  
HETATM   13  O   UNL     1     -12.169  15.927  69.045  1.00  0.00    -0.531 OA 
HETATM   14  C   UNL     1      -9.767  13.621  67.588  1.00  0.00    -0.228 A  
HETATM   15  H   UNL     1     -11.783  16.761  68.806  1.00  0.00     0.000 HD 
ENDBRANCH   6   8
ENDBRANCH   5   6
ENDBRANCH   4   5
ENDBRANCH   3   4
ENDBRANCH   2   3
TORSDOF 5
ENDMDL
MODEL      214
REMARK 921   NORMALIZED FREE ENERGY PREDICTED BY IDOCK:   -2.51 KCAL/MOL
REMARK 922        TOTAL FREE ENERGY PREDICTED BY IDOCK:   -3.54 KCAL/MOL
REMARK 923 INTER-LIGAND FREE ENERGY PREDICTED BY IDOCK:   -3.32 KCAL/MOL
REMARK 924 INTRA-LIGAND FREE ENERGY PREDICTED BY IDOCK:   -0.22 KCAL/MOL
REMARK 927      BINDING AFFINITY PREDICTED BY RF-SCORE:    0.00 PKD
ROOT
HETATM    1  C   UNL     1      -8.538   2.786  66.977  1.00  0.00    -0.117 C  
HETATM    2  C   UNL     1      -9.517   3.064  68.101  1.00  0.00    -0.219 C  
ENDROOT
BRANCH   2   3
HETATM    3  C   UNL     1      -8.833   3.159  69.464  1.00  0.00    -0.150 C  
BRANCH   3   4
HETATM    4  C   UNL     1      -9.716   3.953  70.414  1.00  0.00    -0.175 C  
BRANCH   4   5
HETATM    5  O   UNL     1      -9.485   5.359  70.311  1.00  0.00    -0.151 OA 
BRANCH   5   6
HETATM    6  C   UNL     1      -9.418   6.004  71.500  1.00  0.00    -0.149 C  
HETATM    7  O   UNL     1      -8.614   5.784  72.394  1.00  0.00    -0.121 OA 
BRANCH   6   8
HETATM    8  C   UNL     1     -10.351   7.164  71.478  1.00  0.00    -0.218 A  
HETATM    9  C   UNL     1     -11.269   7.296  72.528  1.00  0.00    -0.342 A  
HETATM   10  C   UNL     1     -12.072   8.436  72.618  1.00  0.00    -0.324 A  
HETATM   11  C   UNL     1     -11.954   9.437  71.657  1.00  0.00    -0.393 A  
HETATM   12  C   UNL     1     -11.050   9.317  70.609  1.00  0.00    -0.335 A  
HETATM   13  O   UNL     1     -12.708  10.570  71.712  1.00  0.00    -0.420 OA 
HETATM   14  C   UNL     1     -10.250   8.177  70.512  1.00  0.00    -0.207 A  
HETATM   15  H   UNL     1     -12.627  11.253  71.057  1.00  0.00     0.000 HD 
ENDBRANCH   6   8
ENDBRANCH   5   6
ENDBRANCH   4   5
ENDBRANCH   3   4
ENDBRANCH   2   3
TORSDOF 5
ENDMDL
MODEL      215
REMARK 921   NORMALIZED FREE ENERGY PREDICTED BY IDOCK:   -2.48 KCAL/MOL
REMARK 922        TOTAL FREE ENERGY PREDICTED BY IDOCK:   -3.51 KCAL/MOL
REMARK 923 INTER-LIGAND FREE ENERGY PREDICTED BY IDOCK:   -3.78 KCAL/MOL
REMARK 924 INTRA-LIGAND FREE ENERGY PREDICTED BY IDOCK:    0.27 KCAL/MOL
REMARK 927      BINDING AFFINITY PREDICTED BY RF-SCORE:    0.00 PKD
ROOT
HETATM    1  C   UNL     1     -10.897  10.152  67.413  1.00  0.00    -0.323 C  
HETATM    2  C   UNL     1      -9.435  10.321  67.051  1.00  0.00    -0.191 C  
ENDROOT
BRANCH   2   3
HETATM    3  C   UNL     1      -8.836  11.608  67.616  1.00  0.00    -0.159 C  
BRANCH   3   4
HETATM    4  C   UNL     1      -9.635  12.798  67.110  1.00  0.00    -0.219 C  
BRANCH   4   5
HETATM    5  O   UNL     1      -8.839  13.983  67.036  1.00  0.00    -0.217 OA 
BRANCH   5   6
HETATM    6  C   UNL     1      -9.537  15.108  66.748  1.00  0.00    -0.245 C  
HETATM    7  O   UNL     1      -9.580  15.670  65.663  1.00  0.00    -0.333 OA 
BRANCH   6   8
HETATM    8  C   UNL     1     -10.408  15.451  67.905  1.00  0.00    -0.247 A  
HETATM    9  C   UNL     1     -11.615  14.756  68.056  1.00  0.00    -0.367 A  
HETATM   10  C   UNL     1     -12.399  14.950  69.196  1.00  0.00    -0.098 A  
HETATM   11  C   UNL     1     -11.973  15.841  70.178  1.00  0.00    -0.347 A  
HETATM   12  C   UNL     1     -10.780  16.540  70.039  1.00  0.00    -0.222 A  
HETATM   13  O   UNL     1     -12.700  16.054  71.311  1.00  0.00    -0.552 OA 
HETATM   14  C   UNL     1      -9.996  16.352  68.900  1.00  0.00    -0.257 A  
HETATM   15  H   UNL     1     -12.408  16.661  71.981  1.00  0.00     0.000 HD 
ENDBRANCH   6   8
ENDBRANCH   5   6
ENDBRANCH   4   5
ENDBRANCH   3   4
ENDBRANCH   2   3
TORSDOF 5
ENDMDL
MODEL      216
REMARK 921   NORMALIZED FREE ENERGY PREDICTED BY IDOCK:   -2.48 KCAL/MOL
REMARK 922        TOTAL FREE ENERGY PREDICTED BY IDOCK:   -3.51 KCAL/MOL
REMARK 923 INTER-LIGAND FREE ENERGY PREDICTED BY IDOCK:   -3.18 KCAL/MOL
REMARK 924 INTRA-LIGAND FREE ENERGY PREDICTED BY IDOCK:   -0.33 KCAL/MOL
REMARK 927      BINDING AFFINITY PREDICTED BY RF-SCORE:    0.00 PKD
ROOT
HETATM    1  C   UNL     1      -6.808   5.300  65.356  1.00  0.00    -0.060 C  
HETATM    2  C   UNL     1      -7.312   6.644  65.843  1.00  0.00    -0.079 C  
ENDROOT
BRANCH   2   3
HETATM    3  C   UNL     1      -7.300   6.757  67.367  1.00  0.00    -0.095 C  
BRANCH   3   4
HETATM    4  C   UNL     1      -8.690   7.133  67.853  1.00  0.00    -0.126 C  
BRANCH   4   5
HETATM    5  O   UNL     1      -9.631   6.075  67.652  1.00  0.00    -0.112 OA 
BRANCH   5   6
HETATM    6  C   UNL     1      -9.616   5.122  68.614  1.00  0.00    -0.142 C  
HETATM    7  O   UNL     1      -9.048   4.043  68.549  1.00  0.00    -0.116 OA 
BRANCH   6   8
HETATM    8  C   UNL     1     -10.236   5.670  69.852  1.00  0.00    -0.320 A  
HETATM    9  C   UNL     1      -9.464   5.709  71.019  1.00  0.00    -0.200 A  
HETATM   10  C   UNL     1      -9.957   6.334  72.168  1.00  0.00    -0.184 A  
HETATM   11  C   UNL     1     -11.223   6.914  72.142  1.00  0.00    -0.258 A  
HETATM   12  C   UNL     1     -12.002   6.879  70.992  1.00  0.00    -0.422 A  
HETATM   13  O   UNL     1     -11.740   7.544  73.234  1.00  0.00    -0.604 OA 
HETATM   14  C   UNL     1     -11.514   6.252  69.845  1.00  0.00    -0.459 A  
HETATM   15  H   UNL     1     -12.603   7.940  73.217  1.00  0.00     0.000 HD 
ENDBRANCH   6   8
ENDBRANCH   5   6
ENDBRANCH   4   5
ENDBRANCH   3   4
ENDBRANCH   2   3
TORSDOF 5
ENDMDL
MODEL      217
REMARK 921   NORMALIZED FREE ENERGY PREDICTED BY IDOCK:   -2.47 KCAL/MOL
REMARK 922        TOTAL FREE ENERGY PREDICTED BY IDOCK:   -3.49 KCAL/MOL
REMARK 923 INTER-LIGAND FREE ENERGY PREDICTED BY IDOCK:   -3.42 KCAL/MOL
REMARK 924 INTRA-LIGAND FREE ENERGY PREDICTED BY IDOCK:   -0.08 KCAL/MOL
REMARK 927      BINDING AFFINITY PREDICTED BY RF-SCORE:    0.00 PKD
ROOT
HETATM    1  C   UNL     1      -5.902  12.868  69.441  1.00  0.00    -0.097 C  
HETATM    2  C   UNL     1      -6.691  11.574  69.493  1.00  0.00    -0.106 C  
ENDROOT
BRANCH   2   3
HETATM    3  C   UNL     1      -7.184  11.133  68.116  1.00  0.00    -0.080 C  
BRANCH   3   4
HETATM    4  C   UNL     1      -8.691  11.317  68.039  1.00  0.00    -0.144 C  
BRANCH   4   5
HETATM    5  O   UNL     1      -9.086  12.011  66.854  1.00  0.00    -0.184 OA 
BRANCH   5   6
HETATM    6  C   UNL     1     -10.416  12.247  66.760  1.00  0.00    -0.218 C  
HETATM    7  O   UNL     1     -11.220  11.590  66.115  1.00  0.00    -0.286 OA 
BRANCH   6   8
HETATM    8  C   UNL     1     -10.790  13.318  67.724  1.00  0.00    -0.268 A  
HETATM    9  C   UNL     1     -10.737  14.649  67.291  1.00  0.00    -0.290 A  
HETATM   10  C   UNL     1     -11.203  15.675  68.116  1.00  0.00    -0.345 A  
HETATM   11  C   UNL     1     -11.719  15.365  69.372  1.00  0.00    -0.351 A  
HETATM   12  C   UNL     1     -11.774  14.049  69.816  1.00  0.00    -0.375 A  
HETATM   13  O   UNL     1     -12.196  16.331  70.205  1.00  0.00    -0.334 OA 
HETATM   14  C   UNL     1     -11.304  13.022  68.996  1.00  0.00    -0.340 A  
HETATM   15  H   UNL     1     -12.548  16.119  71.062  1.00  0.00     0.000 HD 
ENDBRANCH   6   8
ENDBRANCH   5   6
ENDBRANCH   4   5
ENDBRANCH   3   4
ENDBRANCH   2   3
TORSDOF 5
ENDMDL
MODEL      218
REMARK 921   NORMALIZED FREE ENERGY PREDICTED BY IDOCK:   -2.47 KCAL/MOL
REMARK 922        TOTAL FREE ENERGY PREDICTED BY IDOCK:   -3.49 KCAL/MOL
REMARK 923 INTER-LIGAND FREE ENERGY PREDICTED BY IDOCK:   -3.06 KCAL/MOL
REMARK 924 INTRA-LIGAND FREE ENERGY PREDICTED BY IDOCK:   -0.43 KCAL/MOL
REMARK 927      BINDING AFFINITY PREDICTED BY RF-SCORE:    0.00 PKD
ROOT
HETATM    1  C   UNL     1      -8.679   9.496  69.994  1.00  0.00    -0.242 C  
HETATM    2  C   UNL     1      -9.338  10.375  68.949  1.00  0.00    -0.190 C  
ENDROOT
BRANCH   2   3
HETATM    3  C   UNL     1     -10.856  10.442  69.113  1.00  0.00    -0.274 C  
BRANCH   3   4
HETATM    4  C   UNL     1     -11.412  11.521  68.197  1.00  0.00    -0.315 C  
BRANCH   4   5
HETATM    5  O   UNL     1     -10.415  12.477  67.830  1.00  0.00    -0.208 OA 
BRANCH   5   6
HETATM    6  C   UNL     1     -10.627  13.722  68.320  1.00  0.00    -0.255 C  
HETATM    7  O   UNL     1     -11.673  14.140  68.794  1.00  0.00    -0.303 OA 
BRANCH   6   8
HETATM    8  C   UNL     1      -9.330  14.450  68.378  1.00  0.00    -0.206 A  
HETATM    9  C   UNL     1      -8.304  14.046  67.514  1.00  0.00    -0.200 A  
HETATM   10  C   UNL     1      -7.118  14.782  67.440  1.00  0.00    -0.173 A  
HETATM   11  C   UNL     1      -6.965  15.917  68.232  1.00  0.00    -0.117 A  
HETATM   12  C   UNL     1      -7.973  16.327  69.096  1.00  0.00    -0.221 A  
HETATM   13  O   UNL     1      -5.831  16.671  68.184  1.00  0.00    -0.109 OA 
HETATM   14  C   UNL     1      -9.157  15.592  69.176  1.00  0.00    -0.248 A  
HETATM   15  H   UNL     1      -5.727  17.446  68.724  1.00  0.00     0.000 HD 
ENDBRANCH   6   8
ENDBRANCH   5   6
ENDBRANCH   4   5
ENDBRANCH   3   4
ENDBRANCH   2   3
TORSDOF 5
ENDMDL
MODEL      219
REMARK 921   NORMALIZED FREE ENERGY PREDICTED BY IDOCK:   -2.46 KCAL/MOL
REMARK 922        TOTAL FREE ENERGY PREDICTED BY IDOCK:   -3.48 KCAL/MOL
REMARK 923 INTER-LIGAND FREE ENERGY PREDICTED BY IDOCK:   -3.39 KCAL/MOL
REMARK 924 INTRA-LIGAND FREE ENERGY PREDICTED BY IDOCK:   -0.09 KCAL/MOL
REMARK 927      BINDING AFFINITY PREDICTED BY RF-SCORE:    0.00 PKD
ROOT
HETATM    1  C   UNL     1      -6.227   4.417  67.468  1.00  0.00    -0.036 C  
HETATM    2  C   UNL     1      -7.296   5.310  66.870  1.00  0.00    -0.086 C  
ENDROOT
BRANCH   2   3
HETATM    3  C   UNL     1      -8.445   5.579  67.841  1.00  0.00    -0.098 C  
BRANCH   3   4
HETATM    4  C   UNL     1      -8.341   7.004  68.361  1.00  0.00    -0.124 C  
BRANCH   4   5
HETATM    5  O   UNL     1      -9.626   7.600  68.551  1.00  0.00    -0.146 OA 
BRANCH   5   6
HETATM    6  C   UNL     1     -10.359   7.721  67.419  1.00  0.00    -0.284 C  
HETATM    7  O   UNL     1     -11.051   6.850  66.913  1.00  0.00    -0.379 OA 
BRANCH   6   8
HETATM    8  C   UNL     1     -10.355   9.146  66.986  1.00  0.00    -0.333 A  
HETATM    9  C   UNL     1      -9.799   9.458  65.738  1.00  0.00    -0.345 A  
HETATM   10  C   UNL     1      -9.891  10.758  65.234  1.00  0.00    -0.329 A  
HETATM   11  C   UNL     1     -10.537  11.739  65.982  1.00  0.00    -0.260 A  
HETATM   12  C   UNL     1     -11.089  11.445  67.223  1.00  0.00    -0.363 A  
HETATM   13  O   UNL     1     -10.660  13.017  65.525  1.00  0.00    -0.273 OA 
HETATM   14  C   UNL     1     -10.994  10.149  67.731  1.00  0.00    -0.338 A  
HETATM   15  H   UNL     1     -11.101  13.686  66.035  1.00  0.00     0.000 HD 
ENDBRANCH   6   8
ENDBRANCH   5   6
ENDBRANCH   4   5
ENDBRANCH   3   4
ENDBRANCH   2   3
TORSDOF 5
ENDMDL
MODEL      220
REMARK 921   NORMALIZED FREE ENERGY PREDICTED BY IDOCK:   -2.45 KCAL/MOL
REMARK 922        TOTAL FREE ENERGY PREDICTED BY IDOCK:   -3.47 KCAL/MOL
REMARK 923 INTER-LIGAND FREE ENERGY PREDICTED BY IDOCK:   -3.20 KCAL/MOL
REMARK 924 INTRA-LIGAND FREE ENERGY PREDICTED BY IDOCK:   -0.27 KCAL/MOL
REMARK 927      BINDING AFFINITY PREDICTED BY RF-SCORE:    0.00 PKD
ROOT
HETATM    1  C   UNL     1      -7.248   9.084  70.651  1.00  0.00    -0.093 C  
HETATM    2  C   UNL     1      -8.548   9.715  70.192  1.00  0.00    -0.243 C  
ENDROOT
BRANCH   2   3
HETATM    3  C   UNL     1      -9.756   9.203  70.973  1.00  0.00    -0.359 C  
BRANCH   3   4
HETATM    4  C   UNL     1     -10.833   8.758  69.997  1.00  0.00    -0.223 C  
BRANCH   4   5
HETATM    5  O   UNL     1     -10.330   7.834  69.030  1.00  0.00    -0.205 OA 
BRANCH   5   6
HETATM    6  C   UNL     1     -10.496   8.225  67.743  1.00  0.00    -0.215 C  
HETATM    7  O   UNL     1     -10.776   9.352  67.364  1.00  0.00    -0.280 OA 
BRANCH   6   8
HETATM    8  C   UNL     1     -10.089   7.113  66.841  1.00  0.00    -0.308 A  
HETATM    9  C   UNL     1      -8.888   7.239  66.132  1.00  0.00    -0.181 A  
HETATM   10  C   UNL     1      -8.401   6.169  65.377  1.00  0.00    -0.150 A  
HETATM   11  C   UNL     1      -9.122   4.978  65.333  1.00  0.00    -0.154 A  
HETATM   12  C   UNL     1     -10.317   4.840  66.027  1.00  0.00    -0.328 A  
HETATM   13  O   UNL     1      -8.680   3.905  64.618  1.00  0.00    -0.111 OA 
HETATM   14  C   UNL     1     -10.808   5.909  66.778  1.00  0.00    -0.347 A  
HETATM   15  H   UNL     1      -9.172   3.092  64.589  1.00  0.00     0.000 HD 
ENDBRANCH   6   8
ENDBRANCH   5   6
ENDBRANCH   4   5
ENDBRANCH   3   4
ENDBRANCH   2   3
TORSDOF 5
ENDMDL
MODEL      221
REMARK 921   NORMALIZED FREE ENERGY PREDICTED BY IDOCK:   -2.43 KCAL/MOL
REMARK 922        TOTAL FREE ENERGY PREDICTED BY IDOCK:   -3.45 KCAL/MOL
REMARK 923 INTER-LIGAND FREE ENERGY PREDICTED BY IDOCK:   -2.77 KCAL/MOL
REMARK 924 INTRA-LIGAND FREE ENERGY PREDICTED BY IDOCK:   -0.68 KCAL/MOL
REMARK 927      BINDING AFFINITY PREDICTED BY RF-SCORE:    0.00 PKD
ROOT
HETATM    1  C   UNL     1      -8.554   2.980  67.043  1.00  0.00    -0.120 C  
HETATM    2  C   UNL     1      -9.450   3.194  68.248  1.00  0.00    -0.215 C  
ENDROOT
BRANCH   2   3
HETATM    3  C   UNL     1      -8.663   3.274  69.555  1.00  0.00    -0.132 C  
BRANCH   3   4
HETATM    4  C   UNL     1      -9.586   3.748  70.667  1.00  0.00    -0.189 C  
BRANCH   4   5
HETATM    5  O   UNL     1      -9.351   5.115  71.010  1.00  0.00    -0.142 OA 
BRANCH   5   6
HETATM    6  C   UNL     1     -10.340   5.963  70.637  1.00  0.00    -0.235 C  
HETATM    7  O   UNL     1     -11.268   6.339  71.338  1.00  0.00    -0.272 OA 
BRANCH   6   8
HETATM    8  C   UNL     1     -10.017   6.529  69.299  1.00  0.00    -0.172 A  
HETATM    9  C   UNL     1     -11.068   6.741  68.397  1.00  0.00    -0.214 A  
HETATM   10  C   UNL     1     -10.832   7.390  67.183  1.00  0.00    -0.340 A  
HETATM   11  C   UNL     1      -9.545   7.823  66.876  1.00  0.00    -0.198 A  
HETATM   12  C   UNL     1      -8.492   7.615  67.758  1.00  0.00    -0.122 A  
HETATM   13  O   UNL     1      -9.270   8.470  65.709  1.00  0.00    -0.289 OA 
HETATM   14  C   UNL     1      -8.723   6.963  68.970  1.00  0.00    -0.131 A  
HETATM   15  H   UNL     1      -8.392   8.766  65.500  1.00  0.00     0.000 HD 
ENDBRANCH   6   8
ENDBRANCH   5   6
ENDBRANCH   4   5
ENDBRANCH   3   4
ENDBRANCH   2   3
TORSDOF 5
ENDMDL
MODEL      222
REMARK 921   NORMALIZED FREE ENERGY PREDICTED BY IDOCK:   -2.42 KCAL/MOL
REMARK 922        TOTAL FREE ENERGY PREDICTED BY IDOCK:   -3.44 KCAL/MOL
REMARK 923 INTER-LIGAND FREE ENERGY PREDICTED BY IDOCK:   -3.21 KCAL/MOL
REMARK 924 INTRA-LIGAND FREE ENERGY PREDICTED BY IDOCK:   -0.22 KCAL/MOL
REMARK 927      BINDING AFFINITY PREDICTED BY RF-SCORE:    0.00 PKD
ROOT
HETATM    1  C   UNL     1      -7.729  18.666  69.235  1.00  0.00    -0.003 C  
HETATM    2  C   UNL     1      -7.101  17.432  68.617  1.00  0.00    -0.237 C  
ENDROOT
BRANCH   2   3
HETATM    3  C   UNL     1      -7.914  16.886  67.444  1.00  0.00    -0.190 C  
BRANCH   3   4
HETATM    4  C   UNL     1      -9.130  16.146  67.977  1.00  0.00    -0.190 C  
BRANCH   4   5
HETATM    5  O   UNL     1      -9.066  14.744  67.702  1.00  0.00    -0.178 OA 
BRANCH   5   6
HETATM    6  C   UNL     1     -10.254  14.101  67.794  1.00  0.00    -0.242 C  
HETATM    7  O   UNL     1     -11.183  14.405  68.529  1.00  0.00    -0.243 OA 
BRANCH   6   8
HETATM    8  C   UNL     1     -10.339  13.077  66.717  1.00  0.00    -0.256 A  
HETATM    9  C   UNL     1     -11.590  12.821  66.141  1.00  0.00    -0.431 A  
HETATM   10  C   UNL     1     -11.696  11.967  65.041  1.00  0.00    -0.316 A  
HETATM   11  C   UNL     1     -10.548  11.372  64.522  1.00  0.00    -0.328 A  
HETATM   12  C   UNL     1      -9.301  11.613  65.086  1.00  0.00    -0.076 A  
HETATM   13  O   UNL     1     -10.602  10.541  63.443  1.00  0.00    -0.417 OA 
HETATM   14  C   UNL     1      -9.193  12.462  66.189  1.00  0.00    -0.103 A  
HETATM   15  H   UNL     1      -9.819  10.136  63.090  1.00  0.00     0.000 HD 
ENDBRANCH   6   8
ENDBRANCH   5   6
ENDBRANCH   4   5
ENDBRANCH   3   4
ENDBRANCH   2   3
TORSDOF 5
ENDMDL
MODEL      223
REMARK 921   NORMALIZED FREE ENERGY PREDICTED BY IDOCK:   -2.40 KCAL/MOL
REMARK 922        TOTAL FREE ENERGY PREDICTED BY IDOCK:   -3.40 KCAL/MOL
REMARK 923 INTER-LIGAND FREE ENERGY PREDICTED BY IDOCK:   -3.16 KCAL/MOL
REMARK 924 INTRA-LIGAND FREE ENERGY PREDICTED BY IDOCK:   -0.24 KCAL/MOL
REMARK 927      BINDING AFFINITY PREDICTED BY RF-SCORE:    0.00 PKD
ROOT
HETATM    1  C   UNL     1      -9.915  12.175  67.392  1.00  0.00    -0.206 C  
HETATM    2  C   UNL     1      -8.420  12.079  67.159  1.00  0.00    -0.180 C  
ENDROOT
BRANCH   2   3
HETATM    3  C   UNL     1      -7.658  11.642  68.410  1.00  0.00    -0.126 C  
BRANCH   3   4
HETATM    4  C   UNL     1      -7.013  12.858  69.055  1.00  0.00    -0.058 C  
BRANCH   4   5
HETATM    5  O   UNL     1      -7.764  14.051  68.818  1.00  0.00    -0.135 OA 
BRANCH   5   6
HETATM    6  C   UNL     1      -7.067  15.197  69.005  1.00  0.00    -0.140 C  
HETATM    7  O   UNL     1      -5.849  15.307  69.004  1.00  0.00    -0.096 OA 
BRANCH   6   8
HETATM    8  C   UNL     1      -8.013  16.346  69.014  1.00  0.00    -0.227 A  
HETATM    9  C   UNL     1      -7.512  17.620  68.718  1.00  0.00    -0.255 A  
HETATM   10  C   UNL     1      -8.383  18.705  68.586  1.00  0.00    -0.344 A  
HETATM   11  C   UNL     1      -9.751  18.509  68.753  1.00  0.00    -0.357 A  
HETATM   12  C   UNL     1     -10.262  17.251  69.052  1.00  0.00    -0.318 A  
HETATM   13  O   UNL     1     -10.639  19.534  68.623  1.00  0.00    -0.479 OA 
HETATM   14  C   UNL     1      -9.394  16.167  69.189  1.00  0.00    -0.238 A  
HETATM   15  H   UNL     1     -11.573  19.400  68.736  1.00  0.00     0.000 HD 
ENDBRANCH   6   8
ENDBRANCH   5   6
ENDBRANCH   4   5
ENDBRANCH   3   4
ENDBRANCH   2   3
TORSDOF 5
ENDMDL
MODEL      224
REMARK 921   NORMALIZED FREE ENERGY PREDICTED BY IDOCK:   -2.39 KCAL/MOL
REMARK 922        TOTAL FREE ENERGY PREDICTED BY IDOCK:   -3.39 KCAL/MOL
REMARK 923 INTER-LIGAND FREE ENERGY PREDICTED BY IDOCK:   -2.78 KCAL/MOL
REMARK 924 INTRA-LIGAND FREE ENERGY PREDICTED BY IDOCK:   -0.61 KCAL/MOL
REMARK 927      BINDING AFFINITY PREDICTED BY RF-SCORE:    0.00 PKD
ROOT
HETATM    1  C   UNL     1     -11.083  10.412  67.919  1.00  0.00    -0.363 C  
HETATM    2  C   UNL     1      -9.753   9.820  67.497  1.00  0.00    -0.192 C  
ENDROOT
BRANCH   2   3
HETATM    3  C   UNL     1      -8.615  10.204  68.441  1.00  0.00    -0.119 C  
BRANCH   3   4
HETATM    4  C   UNL     1      -7.457  10.763  67.630  1.00  0.00    -0.095 C  
BRANCH   4   5
HETATM    5  O   UNL     1      -7.581  12.171  67.421  1.00  0.00    -0.136 OA 
BRANCH   5   6
HETATM    6  C   UNL     1      -7.420  12.920  68.538  1.00  0.00    -0.123 C  
HETATM    7  O   UNL     1      -6.518  12.808  69.355  1.00  0.00    -0.111 OA 
BRANCH   6   8
HETATM    8  C   UNL     1      -8.401  14.039  68.520  1.00  0.00    -0.143 A  
HETATM    9  C   UNL     1      -7.955  15.319  68.874  1.00  0.00    -0.176 A  
HETATM   10  C   UNL     1      -8.806  16.420  68.745  1.00  0.00    -0.246 A  
HETATM   11  C   UNL     1     -10.100  16.234  68.266  1.00  0.00    -0.243 A  
HETATM   12  C   UNL     1     -10.557  14.969  67.916  1.00  0.00    -0.259 A  
HETATM   13  O   UNL     1     -10.960  17.280  68.114  1.00  0.00    -0.347 OA 
HETATM   14  C   UNL     1      -9.712  13.867  68.047  1.00  0.00    -0.226 A  
HETATM   15  H   UNL     1     -11.842  17.153  67.786  1.00  0.00     0.000 HD 
ENDBRANCH   6   8
ENDBRANCH   5   6
ENDBRANCH   4   5
ENDBRANCH   3   4
ENDBRANCH   2   3
TORSDOF 5
ENDMDL
MODEL      225
REMARK 921   NORMALIZED FREE ENERGY PREDICTED BY IDOCK:   -2.37 KCAL/MOL
REMARK 922        TOTAL FREE ENERGY PREDICTED BY IDOCK:   -3.37 KCAL/MOL
REMARK 923 INTER-LIGAND FREE ENERGY PREDICTED BY IDOCK:   -2.85 KCAL/MOL
REMARK 924 INTRA-LIGAND FREE ENERGY PREDICTED BY IDOCK:   -0.52 KCAL/MOL
REMARK 927      BINDING AFFINITY PREDICTED BY RF-SCORE:    0.00 PKD
ROOT
HETATM    1  C   UNL     1      -7.862   7.856  70.266  1.00  0.00    -0.089 C  
HETATM    2  C   UNL     1      -8.443   9.210  69.908  1.00  0.00    -0.151 C  
ENDROOT
BRANCH   2   3
HETATM    3  C   UNL     1      -9.815   9.445  70.539  1.00  0.00    -0.331 C  
BRANCH   3   4
HETATM    4  C   UNL     1     -10.734  10.091  69.515  1.00  0.00    -0.244 C  
BRANCH   4   5
HETATM    5  O   UNL     1     -10.082  10.286  68.258  1.00  0.00    -0.147 OA 
BRANCH   5   6
HETATM    6  C   UNL     1     -10.505  11.374  67.570  1.00  0.00    -0.201 C  
HETATM    7  O   UNL     1     -11.603  11.515  67.052  1.00  0.00    -0.510 OA 
BRANCH   6   8
HETATM    8  C   UNL     1      -9.498  12.461  67.710  1.00  0.00    -0.199 A  
HETATM    9  C   UNL     1      -9.873  13.631  68.383  1.00  0.00    -0.223 A  
HETATM   10  C   UNL     1      -8.924  14.621  68.652  1.00  0.00    -0.184 A  
HETATM   11  C   UNL     1      -7.606  14.436  68.244  1.00  0.00    -0.124 A  
HETATM   12  C   UNL     1      -7.221  13.282  67.572  1.00  0.00    -0.157 A  
HETATM   13  O   UNL     1      -6.645  15.369  68.495  1.00  0.00    -0.103 OA 
HETATM   14  C   UNL     1      -8.166  12.293  67.297  1.00  0.00    -0.182 A  
HETATM   15  H   UNL     1      -5.745  15.242  68.218  1.00  0.00     0.000 HD 
ENDBRANCH   6   8
ENDBRANCH   5   6
ENDBRANCH   4   5
ENDBRANCH   3   4
ENDBRANCH   2   3
TORSDOF 5
ENDMDL
MODEL      226
REMARK 921   NORMALIZED FREE ENERGY PREDICTED BY IDOCK:   -2.36 KCAL/MOL
REMARK 922        TOTAL FREE ENERGY PREDICTED BY IDOCK:   -3.35 KCAL/MOL
REMARK 923 INTER-LIGAND FREE ENERGY PREDICTED BY IDOCK:   -3.07 KCAL/MOL
REMARK 924 INTRA-LIGAND FREE ENERGY PREDICTED BY IDOCK:   -0.28 KCAL/MOL
REMARK 927      BINDING AFFINITY PREDICTED BY RF-SCORE:    0.00 PKD
ROOT
HETATM    1  C   UNL     1      -9.328   4.307  69.365  1.00  0.00    -0.236 C  
HETATM    2  C   UNL     1      -9.907   5.535  70.040  1.00  0.00    -0.262 C  
ENDROOT
BRANCH   2   3
HETATM    3  C   UNL     1     -11.204   6.006  69.384  1.00  0.00    -0.397 C  
BRANCH   3   4
HETATM    4  C   UNL     1     -10.872   6.835  68.153  1.00  0.00    -0.228 C  
BRANCH   4   5
HETATM    5  O   UNL     1      -9.898   7.842  68.433  1.00  0.00    -0.160 OA 
BRANCH   5   6
HETATM    6  C   UNL     1     -10.278   9.097  68.096  1.00  0.00    -0.207 C  
HETATM    7  O   UNL     1     -11.127   9.769  68.663  1.00  0.00    -0.188 OA 
BRANCH   6   8
HETATM    8  C   UNL     1      -9.362   9.618  67.044  1.00  0.00    -0.180 A  
HETATM    9  C   UNL     1      -8.343  10.499  67.429  1.00  0.00    -0.121 A  
HETATM   10  C   UNL     1      -7.381  10.908  66.501  1.00  0.00    -0.142 A  
HETATM   11  C   UNL     1      -7.445  10.435  65.193  1.00  0.00    -0.093 A  
HETATM   12  C   UNL     1      -8.453   9.565  64.797  1.00  0.00    -0.170 A  
HETATM   13  O   UNL     1      -6.523  10.799  64.258  1.00  0.00    -0.362 OA 
HETATM   14  C   UNL     1      -9.418   9.157  65.719  1.00  0.00    -0.322 A  
HETATM   15  H   UNL     1      -6.567  10.476  63.366  1.00  0.00     0.000 HD 
ENDBRANCH   6   8
ENDBRANCH   5   6
ENDBRANCH   4   5
ENDBRANCH   3   4
ENDBRANCH   2   3
TORSDOF 5
ENDMDL
MODEL      227
REMARK 921   NORMALIZED FREE ENERGY PREDICTED BY IDOCK:   -2.35 KCAL/MOL
REMARK 922        TOTAL FREE ENERGY PREDICTED BY IDOCK:   -3.34 KCAL/MOL
REMARK 923 INTER-LIGAND FREE ENERGY PREDICTED BY IDOCK:   -2.91 KCAL/MOL
REMARK 924 INTRA-LIGAND FREE ENERGY PREDICTED BY IDOCK:   -0.43 KCAL/MOL
REMARK 927      BINDING AFFINITY PREDICTED BY RF-SCORE:    0.00 PKD
ROOT
HETATM    1  C   UNL     1      -9.610   3.799  67.367  1.00  0.00    -0.208 C  
HETATM    2  C   UNL     1      -9.782   4.636  68.620  1.00  0.00    -0.217 C  
ENDROOT
BRANCH   2   3
HETATM    3  C   UNL     1      -8.489   5.331  69.042  1.00  0.00    -0.095 C  
BRANCH   3   4
HETATM    4  C   UNL     1      -8.701   6.013  70.385  1.00  0.00    -0.144 C  
BRANCH   4   5
HETATM    5  O   UNL     1      -8.857   7.427  70.248  1.00  0.00    -0.145 OA 
BRANCH   5   6
HETATM    6  C   UNL     1     -10.135   7.833  70.058  1.00  0.00    -0.201 C  
HETATM    7  O   UNL     1     -11.086   7.579  70.783  1.00  0.00    -0.254 OA 
BRANCH   6   8
HETATM    8  C   UNL     1     -10.175   8.806  68.933  1.00  0.00    -0.221 A  
HETATM    9  C   UNL     1      -9.330   8.589  67.837  1.00  0.00    -0.148 A  
HETATM   10  C   UNL     1      -9.427   9.400  66.703  1.00  0.00    -0.230 A  
HETATM   11  C   UNL     1     -10.368  10.425  66.672  1.00  0.00    -0.231 A  
HETATM   12  C   UNL     1     -11.210  10.655  67.754  1.00  0.00    -0.383 A  
HETATM   13  O   UNL     1     -10.506  11.233  65.584  1.00  0.00    -0.253 OA 
HETATM   14  C   UNL     1     -11.113   9.851  68.890  1.00  0.00    -0.181 A  
HETATM   15  H   UNL     1     -11.149  11.933  65.563  1.00  0.00     0.000 HD 
ENDBRANCH   6   8
ENDBRANCH   5   6
ENDBRANCH   4   5
ENDBRANCH   3   4
ENDBRANCH   2   3
TORSDOF 5
ENDMDL
MODEL      228
REMARK 921   NORMALIZED FREE ENERGY PREDICTED BY IDOCK:   -2.33 KCAL/MOL
REMARK 922        TOTAL FREE ENERGY PREDICTED BY IDOCK:   -3.31 KCAL/MOL
REMARK 923 INTER-LIGAND FREE ENERGY PREDICTED BY IDOCK:   -3.10 KCAL/MOL
REMARK 924 INTRA-LIGAND FREE ENERGY PREDICTED BY IDOCK:   -0.22 KCAL/MOL
REMARK 927      BINDING AFFINITY PREDICTED BY RF-SCORE:    0.00 PKD
ROOT
HETATM    1  C   UNL     1      -8.820   5.142  65.864  1.00  0.00    -0.142 C  
HETATM    2  C   UNL     1      -9.928   5.441  66.854  1.00  0.00    -0.209 C  
ENDROOT
BRANCH   2   3
HETATM    3  C   UNL     1      -9.899   4.511  68.066  1.00  0.00    -0.154 C  
BRANCH   3   4
HETATM    4  C   UNL     1      -9.747   5.340  69.331  1.00  0.00    -0.174 C  
BRANCH   4   5
HETATM    5  O   UNL     1     -10.535   6.532  69.287  1.00  0.00    -0.187 OA 
BRANCH   5   6
HETATM    6  C   UNL     1     -11.203   6.804  70.433  1.00  0.00    -0.328 C  
HETATM    7  O   UNL     1     -12.395   6.620  70.632  1.00  0.00    -0.340 OA 
BRANCH   6   8
HETATM    8  C   UNL     1     -10.225   7.179  71.491  1.00  0.00    -0.210 A  
HETATM    9  C   UNL     1      -9.322   8.215  71.222  1.00  0.00    -0.195 A  
HETATM   10  C   UNL     1      -8.476   8.689  72.228  1.00  0.00    -0.149 A  
HETATM   11  C   UNL     1      -8.536   8.121  73.498  1.00  0.00    -0.246 A  
HETATM   12  C   UNL     1      -9.424   7.089  73.778  1.00  0.00    -0.258 A  
HETATM   13  O   UNL     1      -7.739   8.558  74.513  1.00  0.00    -0.297 OA 
HETATM   14  C   UNL     1     -10.267   6.611  72.774  1.00  0.00    -0.208 A  
HETATM   15  H   UNL     1      -7.780   8.171  75.379  1.00  0.00     0.000 HD 
ENDBRANCH   6   8
ENDBRANCH   5   6
ENDBRANCH   4   5
ENDBRANCH   3   4
ENDBRANCH   2   3
TORSDOF 5
ENDMDL
MODEL      229
REMARK 921   NORMALIZED FREE ENERGY PREDICTED BY IDOCK:   -2.27 KCAL/MOL
REMARK 922        TOTAL FREE ENERGY PREDICTED BY IDOCK:   -3.23 KCAL/MOL
REMARK 923 INTER-LIGAND FREE ENERGY PREDICTED BY IDOCK:   -2.81 KCAL/MOL
REMARK 924 INTRA-LIGAND FREE ENERGY PREDICTED BY IDOCK:   -0.42 KCAL/MOL
REMARK 927      BINDING AFFINITY PREDICTED BY RF-SCORE:    0.00 PKD
ROOT
HETATM    1  C   UNL     1     -10.388  10.480  66.433  1.00  0.00    -0.283 C  
HETATM    2  C   UNL     1      -9.463  11.474  65.759  1.00  0.00    -0.255 C  
ENDROOT
BRANCH   2   3
HETATM    3  C   UNL     1      -8.759  12.391  66.758  1.00  0.00    -0.160 C  
BRANCH   3   4
HETATM    4  C   UNL     1      -9.504  12.356  68.083  1.00  0.00    -0.214 C  
BRANCH   4   5
HETATM    5  O   UNL     1      -9.971  13.651  68.469  1.00  0.00    -0.231 OA 
BRANCH   5   6
HETATM    6  C   UNL     1      -9.008  14.470  68.954  1.00  0.00    -0.109 C  
HETATM    7  O   UNL     1      -8.138  14.163  69.755  1.00  0.00     0.464 OA 
BRANCH   6   8
HETATM    8  C   UNL     1      -9.047  15.760  68.213  1.00  0.00    -0.187 A  
HETATM    9  C   UNL     1      -8.078  15.988  67.227  1.00  0.00    -0.205 A  
HETATM   10  C   UNL     1      -8.153  17.124  66.416  1.00  0.00    -0.337 A  
HETATM   11  C   UNL     1      -9.197  18.027  66.598  1.00  0.00    -0.284 A  
HETATM   12  C   UNL     1     -10.163  17.816  67.575  1.00  0.00    -0.356 A  
HETATM   13  O   UNL     1      -9.317  19.142  65.824  1.00  0.00    -0.387 OA 
HETATM   14  C   UNL     1     -10.088  16.685  68.389  1.00  0.00    -0.268 A  
HETATM   15  H   UNL     1     -10.030  19.758  65.947  1.00  0.00     0.000 HD 
ENDBRANCH   6   8
ENDBRANCH   5   6
ENDBRANCH   4   5
ENDBRANCH   3   4
ENDBRANCH   2   3
TORSDOF 5
ENDMDL
MODEL      230
REMARK 921   NORMALIZED FREE ENERGY PREDICTED BY IDOCK:   -2.26 KCAL/MOL
REMARK 922        TOTAL FREE ENERGY PREDICTED BY IDOCK:   -3.23 KCAL/MOL
REMARK 923 INTER-LIGAND FREE ENERGY PREDICTED BY IDOCK:   -2.89 KCAL/MOL
REMARK 924 INTRA-LIGAND FREE ENERGY PREDICTED BY IDOCK:   -0.34 KCAL/MOL
REMARK 927      BINDING AFFINITY PREDICTED BY RF-SCORE:    0.00 PKD
ROOT
HETATM    1  C   UNL     1      -9.674   4.905  69.252  1.00  0.00    -0.258 C  
HETATM    2  C   UNL     1     -10.523   5.789  70.144  1.00  0.00    -0.348 C  
ENDROOT
BRANCH   2   3
HETATM    3  C   UNL     1     -11.342   6.808  69.353  1.00  0.00    -0.255 C  
BRANCH   3   4
HETATM    4  C   UNL     1     -10.533   8.086  69.193  1.00  0.00    -0.208 C  
BRANCH   4   5
HETATM    5  O   UNL     1     -10.740   8.692  67.915  1.00  0.00    -0.194 OA 
BRANCH   5   6
HETATM    6  C   UNL     1      -9.715   8.526  67.045  1.00  0.00    -0.204 C  
HETATM    7  O   UNL     1      -9.553   7.572  66.298  1.00  0.00    -0.157 OA 
BRANCH   6   8
HETATM    8  C   UNL     1      -8.914   9.779  66.990  1.00  0.00    -0.152 A  
HETATM    9  C   UNL     1      -9.561  10.965  66.621  1.00  0.00    -0.213 A  
HETATM   10  C   UNL     1      -8.882  12.185  66.684  1.00  0.00    -0.182 A  
HETATM   11  C   UNL     1      -7.558  12.211  67.113  1.00  0.00    -0.132 A  
HETATM   12  C   UNL     1      -6.901  11.041  67.478  1.00  0.00    -0.084 A  
HETATM   13  O   UNL     1      -6.860  13.378  67.201  1.00  0.00    -0.409 OA 
HETATM   14  C   UNL     1      -7.575   9.821  67.412  1.00  0.00    -0.091 A  
HETATM   15  H   UNL     1      -5.957  13.395  67.494  1.00  0.00     0.000 HD 
ENDBRANCH   6   8
ENDBRANCH   5   6
ENDBRANCH   4   5
ENDBRANCH   3   4
ENDBRANCH   2   3
TORSDOF 5
ENDMDL
MODEL      231
REMARK 921   NORMALIZED FREE ENERGY PREDICTED BY IDOCK:   -2.22 KCAL/MOL
REMARK 922        TOTAL FREE ENERGY PREDICTED BY IDOCK:   -3.17 KCAL/MOL
REMARK 923 INTER-LIGAND FREE ENERGY PREDICTED BY IDOCK:   -2.96 KCAL/MOL
REMARK 924 INTRA-LIGAND FREE ENERGY PREDICTED BY IDOCK:   -0.22 KCAL/MOL
REMARK 927      BINDING AFFINITY PREDICTED BY RF-SCORE:    0.00 PKD
ROOT
HETATM    1  C   UNL     1     -12.988  11.857  71.721  1.00  0.00    -0.455 C  
HETATM    2  C   UNL     1     -12.803  10.588  70.912  1.00  0.00    -0.485 C  
ENDROOT
BRANCH   2   3
HETATM    3  C   UNL     1     -11.354  10.106  70.901  1.00  0.00    -0.420 C  
BRANCH   3   4
HETATM    4  C   UNL     1     -11.029   9.524  69.534  1.00  0.00    -0.195 C  
BRANCH   4   5
HETATM    5  O   UNL     1     -10.098  10.336  68.815  1.00  0.00    -0.170 OA 
BRANCH   5   6
HETATM    6  C   UNL     1      -8.859   9.800  68.702  1.00  0.00    -0.126 C  
HETATM    7  O   UNL     1      -8.246   9.213  69.581  1.00  0.00    -0.103 OA 
BRANCH   6   8
HETATM    8  C   UNL     1      -8.430   9.861  67.278  1.00  0.00    -0.121 A  
HETATM    9  C   UNL     1      -7.284  10.602  66.961  1.00  0.00    -0.101 A  
HETATM   10  C   UNL     1      -6.770  10.579  65.662  1.00  0.00    -0.110 A  
HETATM   11  C   UNL     1      -7.406   9.817  64.686  1.00  0.00    -0.134 A  
HETATM   12  C   UNL     1      -8.546   9.080  64.985  1.00  0.00    -0.207 A  
HETATM   13  O   UNL     1      -6.933   9.756  63.410  1.00  0.00    -0.109 OA 
HETATM   14  C   UNL     1      -9.065   9.104  66.280  1.00  0.00    -0.222 A  
HETATM   15  H   UNL     1      -7.367   9.235  62.744  1.00  0.00     0.000 HD 
ENDBRANCH   6   8
ENDBRANCH   5   6
ENDBRANCH   4   5
ENDBRANCH   3   4
ENDBRANCH   2   3
TORSDOF 5
ENDMDL
MODEL      232
REMARK 921   NORMALIZED FREE ENERGY PREDICTED BY IDOCK:   -2.19 KCAL/MOL
REMARK 922        TOTAL FREE ENERGY PREDICTED BY IDOCK:   -3.13 KCAL/MOL
REMARK 923 INTER-LIGAND FREE ENERGY PREDICTED BY IDOCK:   -2.78 KCAL/MOL
REMARK 924 INTRA-LIGAND FREE ENERGY PREDICTED BY IDOCK:   -0.36 KCAL/MOL
REMARK 927      BINDING AFFINITY PREDICTED BY RF-SCORE:    0.00 PKD
ROOT
HETATM    1  C   UNL     1      -7.195  13.121  67.590  1.00  0.00    -0.160 C  
HETATM    2  C   UNL     1      -6.653  11.959  68.398  1.00  0.00    -0.056 C  
ENDROOT
BRANCH   2   3
HETATM    3  C   UNL     1      -7.758  11.040  68.917  1.00  0.00    -0.140 C  
BRANCH   3   4
HETATM    4  C   UNL     1      -9.076  11.422  68.263  1.00  0.00    -0.179 C  
BRANCH   4   5
HETATM    5  O   UNL     1      -9.741  10.290  67.696  1.00  0.00    -0.160 OA 
BRANCH   5   6
HETATM    6  C   UNL     1     -10.354   9.491  68.601  1.00  0.00    -0.205 C  
HETATM    7  O   UNL     1     -11.071   9.861  69.519  1.00  0.00    -0.233 OA 
BRANCH   6   8
HETATM    8  C   UNL     1     -10.184   8.070  68.191  1.00  0.00    -0.251 A  
HETATM    9  C   UNL     1      -9.538   7.197  69.075  1.00  0.00    -0.146 A  
HETATM   10  C   UNL     1      -9.472   5.831  68.791  1.00  0.00    -0.147 A  
HETATM   11  C   UNL     1     -10.052   5.345  67.621  1.00  0.00    -0.175 A  
HETATM   12  C   UNL     1     -10.691   6.200  66.732  1.00  0.00    -0.371 A  
HETATM   13  O   UNL     1     -10.022   4.019  67.308  1.00  0.00    -0.185 OA 
HETATM   14  C   UNL     1     -10.755   7.567  67.011  1.00  0.00    -0.367 A  
HETATM   15  H   UNL     1     -10.418   3.688  66.511  1.00  0.00     0.000 HD 
ENDBRANCH   6   8
ENDBRANCH   5   6
ENDBRANCH   4   5
ENDBRANCH   3   4
ENDBRANCH   2   3
TORSDOF 5
ENDMDL
MODEL      233
REMARK 921   NORMALIZED FREE ENERGY PREDICTED BY IDOCK:   -2.14 KCAL/MOL
REMARK 922        TOTAL FREE ENERGY PREDICTED BY IDOCK:   -3.07 KCAL/MOL
REMARK 923 INTER-LIGAND FREE ENERGY PREDICTED BY IDOCK:   -3.06 KCAL/MOL
REMARK 924 INTRA-LIGAND FREE ENERGY PREDICTED BY IDOCK:   -0.01 KCAL/MOL
REMARK 927      BINDING AFFINITY PREDICTED BY RF-SCORE:    0.00 PKD
ROOT
HETATM    1  C   UNL     1      -9.795   7.432  73.391  1.00  0.00    -0.345 C  
HETATM    2  C   UNL     1      -9.835   8.110  72.036  1.00  0.00    -0.298 C  
ENDROOT
BRANCH   2   3
HETATM    3  C   UNL     1     -11.074   8.985  71.855  1.00  0.00    -0.433 C  
BRANCH   3   4
HETATM    4  C   UNL     1     -11.124   9.493  70.422  1.00  0.00    -0.277 C  
BRANCH   4   5
HETATM    5  O   UNL     1     -10.430  10.734  70.270  1.00  0.00     0.030 OA 
BRANCH   5   6
HETATM    6  C   UNL     1      -9.470  10.724  69.315  1.00  0.00    -0.082 C  
HETATM    7  O   UNL     1      -8.408  10.122  69.368  1.00  0.00    -0.143 OA 
BRANCH   6   8
HETATM    8  C   UNL     1      -9.989  11.402  68.095  1.00  0.00    -0.196 A  
HETATM    9  C   UNL     1     -11.217  10.977  67.572  1.00  0.00    -0.372 A  
HETATM   10  C   UNL     1     -11.805  11.669  66.510  1.00  0.00     0.128 A  
HETATM   11  C   UNL     1     -11.160  12.782  65.976  1.00  0.00    -0.285 A  
HETATM   12  C   UNL     1      -9.940  13.212  66.482  1.00  0.00    -0.268 A  
HETATM   13  O   UNL     1     -11.701  13.494  64.948  1.00  0.00    -0.334 OA 
HETATM   14  C   UNL     1      -9.347  12.520  67.540  1.00  0.00    -0.187 A  
HETATM   15  H   UNL     1     -11.262  14.254  64.584  1.00  0.00     0.000 HD 
ENDBRANCH   6   8
ENDBRANCH   5   6
ENDBRANCH   4   5
ENDBRANCH   3   4
ENDBRANCH   2   3
TORSDOF 5
ENDMDL
MODEL      234
REMARK 921   NORMALIZED FREE ENERGY PREDICTED BY IDOCK:   -2.14 KCAL/MOL
REMARK 922        TOTAL FREE ENERGY PREDICTED BY IDOCK:   -3.06 KCAL/MOL
REMARK 923 INTER-LIGAND FREE ENERGY PREDICTED BY IDOCK:   -2.69 KCAL/MOL
REMARK 924 INTRA-LIGAND FREE ENERGY PREDICTED BY IDOCK:   -0.38 KCAL/MOL
REMARK 927      BINDING AFFINITY PREDICTED BY RF-SCORE:    0.00 PKD
ROOT
HETATM    1  C   UNL     1     -10.116   9.782  66.136  1.00  0.00    -0.315 C  
HETATM    2  C   UNL     1      -8.677   9.448  66.480  1.00  0.00    -0.148 C  
ENDROOT
BRANCH   2   3
HETATM    3  C   UNL     1      -8.337   9.755  67.938  1.00  0.00    -0.114 C  
BRANCH   3   4
HETATM    4  C   UNL     1      -9.565  10.325  68.631  1.00  0.00    -0.168 C  
BRANCH   4   5
HETATM    5  O   UNL     1     -10.252   9.335  69.401  1.00  0.00    -0.195 OA 
BRANCH   5   6
HETATM    6  C   UNL     1      -9.552   8.867  70.461  1.00  0.00    -0.202 C  
HETATM    7  O   UNL     1      -9.008   9.544  71.321  1.00  0.00    -0.234 OA 
BRANCH   6   8
HETATM    8  C   UNL     1      -9.711   7.388  70.535  1.00  0.00    -0.175 A  
HETATM    9  C   UNL     1      -8.745   6.585  69.914  1.00  0.00    -0.140 A  
HETATM   10  C   UNL     1      -8.781   5.197  70.068  1.00  0.00    -0.123 A  
HETATM   11  C   UNL     1      -9.784   4.619  70.842  1.00  0.00    -0.192 A  
HETATM   12  C   UNL     1     -10.751   5.403  71.460  1.00  0.00    -0.262 A  
HETATM   13  O   UNL     1      -9.852   3.271  71.029  1.00  0.00    -0.162 OA 
HETATM   14  C   UNL     1     -10.721   6.789  71.304  1.00  0.00    -0.257 A  
HETATM   15  H   UNL     1     -10.536   2.877  71.557  1.00  0.00     0.000 HD 
ENDBRANCH   6   8
ENDBRANCH   5   6
ENDBRANCH   4   5
ENDBRANCH   3   4
ENDBRANCH   2   3
TORSDOF 5
ENDMDL
MODEL      235
REMARK 921   NORMALIZED FREE ENERGY PREDICTED BY IDOCK:   -2.11 KCAL/MOL
REMARK 922        TOTAL FREE ENERGY PREDICTED BY IDOCK:   -3.02 KCAL/MOL
REMARK 923 INTER-LIGAND FREE ENERGY PREDICTED BY IDOCK:   -2.81 KCAL/MOL
REMARK 924 INTRA-LIGAND FREE ENERGY PREDICTED BY IDOCK:   -0.21 KCAL/MOL
REMARK 927      BINDING AFFINITY PREDICTED BY RF-SCORE:    0.00 PKD
ROOT
HETATM    1  C   UNL     1     -11.829  11.929  69.581  1.00  0.00    -0.406 C  
HETATM    2  C   UNL     1     -11.487  12.675  68.306  1.00  0.00    -0.356 C  
ENDROOT
BRANCH   2   3
HETATM    3  C   UNL     1     -11.004  11.745  67.194  1.00  0.00    -0.326 C  
BRANCH   3   4
HETATM    4  C   UNL     1     -11.006  10.312  67.702  1.00  0.00    -0.294 C  
BRANCH   4   5
HETATM    5  O   UNL     1     -10.326   9.426  66.810  1.00  0.00    -0.251 OA 
BRANCH   5   6
HETATM    6  C   UNL     1      -9.371   8.666  67.396  1.00  0.00    -0.144 C  
HETATM    7  O   UNL     1      -8.840   8.883  68.475  1.00  0.00    -0.133 OA 
BRANCH   6   8
HETATM    8  C   UNL     1      -9.203   7.409  66.616  1.00  0.00    -0.196 A  
HETATM    9  C   UNL     1      -9.879   6.262  67.053  1.00  0.00    -0.185 A  
HETATM   10  C   UNL     1      -9.857   5.097  66.282  1.00  0.00    -0.209 A  
HETATM   11  C   UNL     1      -9.156   5.085  65.078  1.00  0.00    -0.102 A  
HETATM   12  C   UNL     1      -8.477   6.213  64.635  1.00  0.00     0.020 A  
HETATM   13  O   UNL     1      -9.117   3.976  64.288  1.00  0.00    -0.130 OA 
HETATM   14  C   UNL     1      -8.493   7.377  65.406  1.00  0.00    -0.101 A  
HETATM   15  H   UNL     1      -8.639   3.967  63.467  1.00  0.00     0.000 HD 
ENDBRANCH   6   8
ENDBRANCH   5   6
ENDBRANCH   4   5
ENDBRANCH   3   4
ENDBRANCH   2   3
TORSDOF 5
ENDMDL
MODEL      236
REMARK 921   NORMALIZED FREE ENERGY PREDICTED BY IDOCK:   -2.09 KCAL/MOL
REMARK 922        TOTAL FREE ENERGY PREDICTED BY IDOCK:   -3.00 KCAL/MOL
REMARK 923 INTER-LIGAND FREE ENERGY PREDICTED BY IDOCK:   -3.24 KCAL/MOL
REMARK 924 INTRA-LIGAND FREE ENERGY PREDICTED BY IDOCK:    0.24 KCAL/MOL
REMARK 927      BINDING AFFINITY PREDICTED BY RF-SCORE:    0.00 PKD
ROOT
HETATM    1  C   UNL     1      -7.829  11.725  68.681  1.00  0.00    -0.117 C  
HETATM    2  C   UNL     1      -7.617  10.374  68.027  1.00  0.00    -0.091 C  
ENDROOT
BRANCH   2   3
HETATM    3  C   UNL     1      -7.353   9.265  69.044  1.00  0.00    -0.072 C  
BRANCH   3   4
HETATM    4  C   UNL     1      -7.878   7.947  68.498  1.00  0.00    -0.119 C  
BRANCH   4   5
HETATM    5  O   UNL     1      -8.109   6.992  69.537  1.00  0.00    -0.125 OA 
BRANCH   5   6
HETATM    6  C   UNL     1      -8.271   7.532  70.768  1.00  0.00    -0.110 C  
HETATM    7  O   UNL     1      -7.383   7.968  71.485  1.00  0.00    -0.063 OA 
BRANCH   6   8
HETATM    8  C   UNL     1      -9.725   7.699  71.039  1.00  0.00    -0.169 A  
HETATM    9  C   UNL     1     -10.604   6.712  70.574  1.00  0.00    -0.270 A  
HETATM   10  C   UNL     1     -11.958   6.758  70.918  1.00  0.00    -0.437 A  
HETATM   11  C   UNL     1     -12.425   7.792  71.725  1.00  0.00    -0.320 A  
HETATM   12  C   UNL     1     -11.566   8.780  72.190  1.00  0.00    -0.434 A  
HETATM   13  O   UNL     1     -13.734   7.871  72.094  1.00  0.00    -0.494 OA 
HETATM   14  C   UNL     1     -10.214   8.740  71.844  1.00  0.00    -0.415 A  
HETATM   15  H   UNL     1     -14.053   8.576  72.645  1.00  0.00     0.000 HD 
ENDBRANCH   6   8
ENDBRANCH   5   6
ENDBRANCH   4   5
ENDBRANCH   3   4
ENDBRANCH   2   3
TORSDOF 5
ENDMDL
MODEL      237
REMARK 921   NORMALIZED FREE ENERGY PREDICTED BY IDOCK:   -2.06 KCAL/MOL
REMARK 922        TOTAL FREE ENERGY PREDICTED BY IDOCK:   -2.96 KCAL/MOL
REMARK 923 INTER-LIGAND FREE ENERGY PREDICTED BY IDOCK:   -2.73 KCAL/MOL
REMARK 924 INTRA-LIGAND FREE ENERGY PREDICTED BY IDOCK:   -0.23 KCAL/MOL
REMARK 927      BINDING AFFINITY PREDICTED BY RF-SCORE:    0.00 PKD
ROOT
HETATM    1  C   UNL     1     -11.824  12.013  68.729  1.00  0.00    -0.358 C  
HETATM    2  C   UNL     1     -11.354  12.189  67.298  1.00  0.00    -0.398 C  
ENDROOT
BRANCH   2   3
HETATM    3  C   UNL     1     -10.879  10.878  66.672  1.00  0.00    -0.258 C  
BRANCH   3   4
HETATM    4  C   UNL     1     -11.021   9.756  67.688  1.00  0.00    -0.162 C  
BRANCH   4   5
HETATM    5  O   UNL     1     -10.256   8.605  67.325  1.00  0.00    -0.221 OA 
BRANCH   5   6
HETATM    6  C   UNL     1      -9.360   8.211  68.261  1.00  0.00    -0.134 C  
HETATM    7  O   UNL     1      -8.832   8.927  69.098  1.00  0.00    -0.133 OA 
BRANCH   6   8
HETATM    8  C   UNL     1      -9.263   6.725  68.246  1.00  0.00    -0.122 A  
HETATM    9  C   UNL     1     -10.041   6.000  69.158  1.00  0.00    -0.229 A  
HETATM   10  C   UNL     1     -10.082   4.605  69.093  1.00  0.00    -0.144 A  
HETATM   11  C   UNL     1      -9.343   3.942  68.117  1.00  0.00    -0.169 A  
HETATM   12  C   UNL     1      -8.563   4.648  67.208  1.00  0.00    -0.104 A  
HETATM   13  O   UNL     1      -9.361   2.584  68.009  1.00  0.00    -0.193 OA 
HETATM   14  C   UNL     1      -8.516   6.042  67.273  1.00  0.00    -0.104 A  
HETATM   15  H   UNL     1      -8.858   2.132  67.342  1.00  0.00     0.000 HD 
ENDBRANCH   6   8
ENDBRANCH   5   6
ENDBRANCH   4   5
ENDBRANCH   3   4
ENDBRANCH   2   3
TORSDOF 5
ENDMDL
MODEL      238
REMARK 921   NORMALIZED FREE ENERGY PREDICTED BY IDOCK:   -2.03 KCAL/MOL
REMARK 922        TOTAL FREE ENERGY PREDICTED BY IDOCK:   -2.92 KCAL/MOL
REMARK 923 INTER-LIGAND FREE ENERGY PREDICTED BY IDOCK:   -3.03 KCAL/MOL
REMARK 924 INTRA-LIGAND FREE ENERGY PREDICTED BY IDOCK:    0.10 KCAL/MOL
REMARK 927      BINDING AFFINITY PREDICTED BY RF-SCORE:    0.00 PKD
ROOT
HETATM    1  C   UNL     1     -10.305  17.529  68.418  1.00  0.00    -0.378 C  
HETATM    2  C   UNL     1      -9.472  17.622  67.155  1.00  0.00    -0.267 C  
ENDROOT
BRANCH   2   3
HETATM    3  C   UNL     1     -10.088  16.851  65.989  1.00  0.00    -0.336 C  
BRANCH   3   4
HETATM    4  C   UNL     1      -9.541  15.432  65.981  1.00  0.00    -0.347 C  
BRANCH   4   5
HETATM    5  O   UNL     1     -10.279  14.570  66.851  1.00  0.00    -0.259 OA 
BRANCH   5   6
HETATM    6  C   UNL     1     -10.331  13.278  66.445  1.00  0.00    -0.286 C  
HETATM    7  O   UNL     1     -11.116  12.810  65.634  1.00  0.00    -0.271 OA 
BRANCH   6   8
HETATM    8  C   UNL     1      -9.155  12.548  66.992  1.00  0.00    -0.213 A  
HETATM    9  C   UNL     1      -8.266  13.247  67.820  1.00  0.00    -0.168 A  
HETATM   10  C   UNL     1      -7.224  12.571  68.460  1.00  0.00    -0.110 A  
HETATM   11  C   UNL     1      -7.075  11.200  68.266  1.00  0.00    -0.073 A  
HETATM   12  C   UNL     1      -7.945  10.496  67.444  1.00  0.00    -0.110 A  
HETATM   13  O   UNL     1      -6.080  10.499  68.879  1.00  0.00    -0.041 OA 
HETATM   14  C   UNL     1      -8.985  11.168  66.799  1.00  0.00    -0.169 A  
HETATM   15  H   UNL     1      -5.978   9.564  68.747  1.00  0.00     0.000 HD 
ENDBRANCH   6   8
ENDBRANCH   5   6
ENDBRANCH   4   5
ENDBRANCH   3   4
ENDBRANCH   2   3
TORSDOF 5
ENDMDL
MODEL      239
REMARK 921   NORMALIZED FREE ENERGY PREDICTED BY IDOCK:   -2.02 KCAL/MOL
REMARK 922        TOTAL FREE ENERGY PREDICTED BY IDOCK:   -2.91 KCAL/MOL
REMARK 923 INTER-LIGAND FREE ENERGY PREDICTED BY IDOCK:   -2.58 KCAL/MOL
REMARK 924 INTRA-LIGAND FREE ENERGY PREDICTED BY IDOCK:   -0.33 KCAL/MOL
REMARK 927      BINDING AFFINITY PREDICTED BY RF-SCORE:    0.00 PKD
ROOT
HETATM    1  C   UNL     1      -8.548  11.458  67.486  1.00  0.00    -0.137 C  
HETATM    2  C   UNL     1      -7.046  11.602  67.341  1.00  0.00    -0.124 C  
ENDROOT
BRANCH   2   3
HETATM    3  C   UNL     1      -6.576  13.045  67.521  1.00  0.00    -0.160 C  
BRANCH   3   4
HETATM    4  C   UNL     1      -7.408  13.713  68.604  1.00  0.00    -0.113 C  
BRANCH   4   5
HETATM    5  O   UNL     1      -7.167  15.120  68.672  1.00  0.00    -0.109 OA 
BRANCH   5   6
HETATM    6  C   UNL     1      -8.184  15.885  68.207  1.00  0.00    -0.152 C  
HETATM    7  O   UNL     1      -9.373  15.721  68.441  1.00  0.00    -0.190 OA 
BRANCH   6   8
HETATM    8  C   UNL     1      -7.621  17.082  67.524  1.00  0.00    -0.184 A  
HETATM    9  C   UNL     1      -8.107  18.344  67.889  1.00  0.00    -0.271 A  
HETATM   10  C   UNL     1      -7.518  19.500  67.372  1.00  0.00    -0.276 A  
HETATM   11  C   UNL     1      -6.445  19.388  66.491  1.00  0.00    -0.187 A  
HETATM   12  C   UNL     1      -5.955  18.142  66.117  1.00  0.00    -0.228 A  
HETATM   13  O   UNL     1      -5.832  20.488  65.971  1.00  0.00    -0.179 OA 
HETATM   14  C   UNL     1      -6.545  16.985  66.628  1.00  0.00    -0.272 A  
HETATM   15  H   UNL     1      -5.100  20.411  65.370  1.00  0.00     0.000 HD 
ENDBRANCH   6   8
ENDBRANCH   5   6
ENDBRANCH   4   5
ENDBRANCH   3   4
ENDBRANCH   2   3
TORSDOF 5
ENDMDL
MODEL      240
REMARK 921   NORMALIZED FREE ENERGY PREDICTED BY IDOCK:   -2.01 KCAL/MOL
REMARK 922        TOTAL FREE ENERGY PREDICTED BY IDOCK:   -2.90 KCAL/MOL
REMARK 923 INTER-LIGAND FREE ENERGY PREDICTED BY IDOCK:   -2.62 KCAL/MOL
REMARK 924 INTRA-LIGAND FREE ENERGY PREDICTED BY IDOCK:   -0.27 KCAL/MOL
REMARK 927      BINDING AFFINITY PREDICTED BY RF-SCORE:    0.00 PKD
ROOT
HETATM    1  C   UNL     1      -7.401  13.747  67.709  1.00  0.00    -0.170 C  
HETATM    2  C   UNL     1      -6.563  12.629  68.297  1.00  0.00    -0.079 C  
ENDROOT
BRANCH   2   3
HETATM    3  C   UNL     1      -7.003  11.249  67.811  1.00  0.00    -0.075 C  
BRANCH   3   4
HETATM    4  C   UNL     1      -7.659  11.383  66.446  1.00  0.00    -0.024 C  
BRANCH   4   5
HETATM    5  O   UNL     1      -7.991  10.112  65.885  1.00  0.00    -0.123 OA 
BRANCH   5   6
HETATM    6  C   UNL     1      -9.315   9.827  65.889  1.00  0.00    -0.205 C  
HETATM    7  O   UNL     1     -10.217  10.591  65.577  1.00  0.00    -0.272 OA 
BRANCH   6   8
HETATM    8  C   UNL     1      -9.500   8.372  66.141  1.00  0.00    -0.263 A  
HETATM    9  C   UNL     1     -10.520   7.974  67.016  1.00  0.00    -0.410 A  
HETATM   10  C   UNL     1     -10.815   6.618  67.181  1.00  0.00    -0.471 A  
HETATM   11  C   UNL     1     -10.087   5.667  66.471  1.00  0.00    -0.185 A  
HETATM   12  C   UNL     1      -9.069   6.046  65.604  1.00  0.00    -0.033 A  
HETATM   13  O   UNL     1     -10.347   4.335  66.592  1.00  0.00    -0.317 OA 
HETATM   14  C   UNL     1      -8.769   7.400  65.441  1.00  0.00     0.004 A  
HETATM   15  H   UNL     1      -9.850   3.686  66.108  1.00  0.00     0.000 HD 
ENDBRANCH   6   8
ENDBRANCH   5   6
ENDBRANCH   4   5
ENDBRANCH   3   4
ENDBRANCH   2   3
TORSDOF 5
ENDMDL
MODEL      241
REMARK 921   NORMALIZED FREE ENERGY PREDICTED BY IDOCK:   -2.00 KCAL/MOL
REMARK 922        TOTAL FREE ENERGY PREDICTED BY IDOCK:   -2.88 KCAL/MOL
REMARK 923 INTER-LIGAND FREE ENERGY PREDICTED BY IDOCK:   -2.56 KCAL/MOL
REMARK 924 INTRA-LIGAND FREE ENERGY PREDICTED BY IDOCK:   -0.32 KCAL/MOL
REMARK 927      BINDING AFFINITY PREDICTED BY RF-SCORE:    0.00 PKD
ROOT
HETATM    1  C   UNL     1      -8.415  10.743  69.229  1.00  0.00    -0.058 C  
HETATM    2  C   UNL     1      -8.358   9.628  68.202  1.00  0.00    -0.117 C  
ENDROOT
BRANCH   2   3
HETATM    3  C   UNL     1      -7.462   8.472  68.642  1.00  0.00    -0.093 C  
BRANCH   3   4
HETATM    4  C   UNL     1      -8.229   7.165  68.511  1.00  0.00    -0.125 C  
BRANCH   4   5
HETATM    5  O   UNL     1      -9.621   7.383  68.273  1.00  0.00    -0.148 OA 
BRANCH   5   6
HETATM    6  C   UNL     1     -10.376   6.259  68.298  1.00  0.00    -0.194 C  
HETATM    7  O   UNL     1     -10.767   5.634  67.324  1.00  0.00    -0.256 OA 
BRANCH   6   8
HETATM    8  C   UNL     1     -10.495   5.783  69.703  1.00  0.00    -0.363 A  
HETATM    9  C   UNL     1     -10.157   4.452  69.983  1.00  0.00    -0.136 A  
HETATM   10  C   UNL     1     -10.127   3.998  71.304  1.00  0.00    -0.133 A  
HETATM   11  C   UNL     1     -10.435   4.878  72.339  1.00  0.00    -0.209 A  
HETATM   12  C   UNL     1     -10.776   6.199  72.075  1.00  0.00    -0.276 A  
HETATM   13  O   UNL     1     -10.408   4.483  73.642  1.00  0.00    -0.156 OA 
HETATM   14  C   UNL     1     -10.812   6.654  70.757  1.00  0.00    -0.299 A  
HETATM   15  H   UNL     1     -10.618   5.083  74.348  1.00  0.00     0.000 HD 
ENDBRANCH   6   8
ENDBRANCH   5   6
ENDBRANCH   4   5
ENDBRANCH   3   4
ENDBRANCH   2   3
TORSDOF 5
ENDMDL
MODEL      242
REMARK 921   NORMALIZED FREE ENERGY PREDICTED BY IDOCK:   -1.99 KCAL/MOL
REMARK 922        TOTAL FREE ENERGY PREDICTED BY IDOCK:   -2.87 KCAL/MOL
REMARK 923 INTER-LIGAND FREE ENERGY PREDICTED BY IDOCK:   -2.56 KCAL/MOL
REMARK 924 INTRA-LIGAND FREE ENERGY PREDICTED BY IDOCK:   -0.31 KCAL/MOL
REMARK 927      BINDING AFFINITY PREDICTED BY RF-SCORE:    0.00 PKD
ROOT
HETATM    1  C   UNL     1      -9.943   9.655  70.253  1.00  0.00    -0.326 C  
HETATM    2  C   UNL     1      -9.659   8.632  69.171  1.00  0.00    -0.163 C  
ENDROOT
BRANCH   2   3
HETATM    3  C   UNL     1     -10.038   9.131  67.777  1.00  0.00    -0.253 C  
BRANCH   3   4
HETATM    4  C   UNL     1     -10.180   7.943  66.840  1.00  0.00    -0.310 C  
BRANCH   4   5
HETATM    5  O   UNL     1      -9.067   7.827  65.950  1.00  0.00    -0.156 OA 
BRANCH   5   6
HETATM    6  C   UNL     1      -8.101   6.977  66.372  1.00  0.00    -0.112 C  
HETATM    7  O   UNL     1      -7.177   7.253  67.123  1.00  0.00    -0.087 OA 
BRANCH   6   8
HETATM    8  C   UNL     1      -8.444   5.595  65.938  1.00  0.00    -0.136 A  
HETATM    9  C   UNL     1      -8.788   4.658  66.920  1.00  0.00    -0.111 A  
HETATM   10  C   UNL     1      -9.245   3.389  66.552  1.00  0.00    -0.178 A  
HETATM   11  C   UNL     1      -9.353   3.065  65.201  1.00  0.00    -0.133 A  
HETATM   12  C   UNL     1      -9.010   3.984  64.217  1.00  0.00    -0.138 A  
HETATM   13  O   UNL     1      -9.803   1.845  64.796  1.00  0.00    -0.332 OA 
HETATM   14  C   UNL     1      -8.550   5.250  64.581  1.00  0.00    -0.125 A  
HETATM   15  H   UNL     1      -9.877   1.624  63.875  1.00  0.00     0.000 HD 
ENDBRANCH   6   8
ENDBRANCH   5   6
ENDBRANCH   4   5
ENDBRANCH   3   4
ENDBRANCH   2   3
TORSDOF 5
ENDMDL
MODEL      243
REMARK 921   NORMALIZED FREE ENERGY PREDICTED BY IDOCK:   -1.96 KCAL/MOL
REMARK 922        TOTAL FREE ENERGY PREDICTED BY IDOCK:   -2.84 KCAL/MOL
REMARK 923 INTER-LIGAND FREE ENERGY PREDICTED BY IDOCK:   -2.45 KCAL/MOL
REMARK 924 INTRA-LIGAND FREE ENERGY PREDICTED BY IDOCK:   -0.39 KCAL/MOL
REMARK 927      BINDING AFFINITY PREDICTED BY RF-SCORE:    0.00 PKD
ROOT
HETATM    1  C   UNL     1     -10.182   6.507  74.060  1.00  0.00    -0.374 C  
HETATM    2  C   UNL     1     -11.029   5.567  73.224  1.00  0.00    -0.339 C  
ENDROOT
BRANCH   2   3
HETATM    3  C   UNL     1     -11.041   5.948  71.745  1.00  0.00    -0.324 C  
BRANCH   3   4
HETATM    4  C   UNL     1     -10.331   7.280  71.564  1.00  0.00    -0.201 C  
BRANCH   4   5
HETATM    5  O   UNL     1      -9.303   7.208  70.574  1.00  0.00    -0.159 OA 
BRANCH   5   6
HETATM    6  C   UNL     1      -9.745   6.914  69.328  1.00  0.00    -0.156 C  
HETATM    7  O   UNL     1     -10.550   7.565  68.678  1.00  0.00    -0.197 OA 
BRANCH   6   8
HETATM    8  C   UNL     1      -8.950   5.779  68.784  1.00  0.00    -0.116 A  
HETATM    9  C   UNL     1      -9.608   4.828  67.993  1.00  0.00    -0.199 A  
HETATM   10  C   UNL     1      -8.879   3.821  67.354  1.00  0.00    -0.139 A  
HETATM   11  C   UNL     1      -7.496   3.771  67.511  1.00  0.00    -0.067 A  
HETATM   12  C   UNL     1      -6.832   4.705  68.296  1.00  0.00    -0.055 A  
HETATM   13  O   UNL     1      -6.744   2.814  66.898  1.00  0.00    -0.039 OA 
HETATM   14  C   UNL     1      -7.557   5.709  68.939  1.00  0.00    -0.088 A  
HETATM   15  H   UNL     1      -5.801   2.780  67.005  1.00  0.00     0.000 HD 
ENDBRANCH   6   8
ENDBRANCH   5   6
ENDBRANCH   4   5
ENDBRANCH   3   4
ENDBRANCH   2   3
TORSDOF 5
ENDMDL
MODEL      244
REMARK 921   NORMALIZED FREE ENERGY PREDICTED BY IDOCK:   -1.95 KCAL/MOL
REMARK 922        TOTAL FREE ENERGY PREDICTED BY IDOCK:   -2.82 KCAL/MOL
REMARK 923 INTER-LIGAND FREE ENERGY PREDICTED BY IDOCK:   -2.60 KCAL/MOL
REMARK 924 INTRA-LIGAND FREE ENERGY PREDICTED BY IDOCK:   -0.22 KCAL/MOL
REMARK 927      BINDING AFFINITY PREDICTED BY RF-SCORE:    0.00 PKD
ROOT
HETATM    1  C   UNL     1      -9.382   7.171  74.000  1.00  0.00    -0.291 C  
HETATM    2  C   UNL     1      -9.431   6.210  72.828  1.00  0.00    -0.151 C  
ENDROOT
BRANCH   2   3
HETATM    3  C   UNL     1      -8.182   6.291  71.951  1.00  0.00    -0.110 C  
BRANCH   3   4
HETATM    4  C   UNL     1      -8.592   6.259  70.488  1.00  0.00    -0.139 C  
BRANCH   4   5
HETATM    5  O   UNL     1      -8.600   7.564  69.906  1.00  0.00    -0.137 OA 
BRANCH   5   6
HETATM    6  C   UNL     1      -9.066   7.607  68.635  1.00  0.00    -0.135 C  
HETATM    7  O   UNL     1      -9.302   6.643  67.922  1.00  0.00    -0.113 OA 
BRANCH   6   8
HETATM    8  C   UNL     1      -9.440   9.009  68.300  1.00  0.00    -0.156 A  
HETATM    9  C   UNL     1      -8.508  10.023  68.555  1.00  0.00    -0.115 A  
HETATM   10  C   UNL     1      -8.762  11.332  68.137  1.00  0.00    -0.155 A  
HETATM   11  C   UNL     1      -9.949  11.620  67.468  1.00  0.00    -0.187 A  
HETATM   12  C   UNL     1     -10.885  10.625  67.214  1.00  0.00    -0.345 A  
HETATM   13  O   UNL     1     -10.235  12.879  67.033  1.00  0.00    -0.239 OA 
HETATM   14  C   UNL     1     -10.637   9.317  67.634  1.00  0.00    -0.324 A  
HETATM   15  H   UNL     1     -11.044  13.075  66.576  1.00  0.00     0.000 HD 
ENDBRANCH   6   8
ENDBRANCH   5   6
ENDBRANCH   4   5
ENDBRANCH   3   4
ENDBRANCH   2   3
TORSDOF 5
ENDMDL
MODEL      245
REMARK 921   NORMALIZED FREE ENERGY PREDICTED BY IDOCK:   -1.90 KCAL/MOL
REMARK 922        TOTAL FREE ENERGY PREDICTED BY IDOCK:   -2.75 KCAL/MOL
REMARK 923 INTER-LIGAND FREE ENERGY PREDICTED BY IDOCK:   -2.32 KCAL/MOL
REMARK 924 INTRA-LIGAND FREE ENERGY PREDICTED BY IDOCK:   -0.43 KCAL/MOL
REMARK 927      BINDING AFFINITY PREDICTED BY RF-SCORE:    0.00 PKD
ROOT
HETATM    1  C   UNL     1      -8.853   7.597  73.839  1.00  0.00    -0.311 C  
HETATM    2  C   UNL     1      -8.392   6.482  72.921  1.00  0.00    -0.115 C  
ENDROOT
BRANCH   2   3
HETATM    3  C   UNL     1      -6.877   6.280  72.959  1.00  0.00    -0.074 C  
BRANCH   3   4
HETATM    4  C   UNL     1      -6.312   6.466  71.560  1.00  0.00    -0.046 C  
BRANCH   4   5
HETATM    5  O   UNL     1      -7.185   7.233  70.727  1.00  0.00    -0.067 OA 
BRANCH   5   6
HETATM    6  C   UNL     1      -6.872   7.202  69.410  1.00  0.00    -0.050 C  
HETATM    7  O   UNL     1      -5.748   7.108  68.939  1.00  0.00    -0.018 OA 
BRANCH   6   8
HETATM    8  C   UNL     1      -8.126   7.099  68.614  1.00  0.00    -0.124 A  
HETATM    9  C   UNL     1      -8.070   6.462  67.368  1.00  0.00    -0.116 A  
HETATM   10  C   UNL     1      -9.243   6.226  66.646  1.00  0.00    -0.158 A  
HETATM   11  C   UNL     1     -10.466   6.631  67.175  1.00  0.00    -0.288 A  
HETATM   12  C   UNL     1     -10.536   7.269  68.407  1.00  0.00    -0.228 A  
HETATM   13  O   UNL     1     -11.636   6.413  66.512  1.00  0.00    -0.575 OA 
HETATM   14  C   UNL     1      -9.365   7.510  69.129  1.00  0.00    -0.147 A  
HETATM   15  H   UNL     1     -12.471   6.689  66.873  1.00  0.00     0.000 HD 
ENDBRANCH   6   8
ENDBRANCH   5   6
ENDBRANCH   4   5
ENDBRANCH   3   4
ENDBRANCH   2   3
TORSDOF 5
ENDMDL
MODEL      246
REMARK 921   NORMALIZED FREE ENERGY PREDICTED BY IDOCK:   -1.88 KCAL/MOL
REMARK 922        TOTAL FREE ENERGY PREDICTED BY IDOCK:   -2.73 KCAL/MOL
REMARK 923 INTER-LIGAND FREE ENERGY PREDICTED BY IDOCK:   -3.00 KCAL/MOL
REMARK 924 INTRA-LIGAND FREE ENERGY PREDICTED BY IDOCK:    0.26 KCAL/MOL
REMARK 927      BINDING AFFINITY PREDICTED BY RF-SCORE:    0.00 PKD
ROOT
HETATM    1  C   UNL     1      -6.159  13.856  68.368  1.00  0.00    -0.099 C  
HETATM    2  C   UNL     1      -6.373  12.750  69.382  1.00  0.00    -0.110 C  
ENDROOT
BRANCH   2   3
HETATM    3  C   UNL     1      -6.103  11.363  68.802  1.00  0.00    -0.048 C  
BRANCH   3   4
HETATM    4  C   UNL     1      -7.425  10.703  68.441  1.00  0.00    -0.093 C  
BRANCH   4   5
HETATM    5  O   UNL     1      -7.548   9.401  69.017  1.00  0.00    -0.072 OA 
BRANCH   5   6
HETATM    6  C   UNL     1      -7.701   9.397  70.363  1.00  0.00    -0.153 C  
HETATM    7  O   UNL     1      -6.844   9.680  71.186  1.00  0.00    -0.287 OA 
BRANCH   6   8
HETATM    8  C   UNL     1      -9.139   9.185  70.689  1.00  0.00    -0.307 A  
HETATM    9  C   UNL     1     -10.096   9.904  69.961  1.00  0.00    -0.308 A  
HETATM   10  C   UNL     1     -11.457   9.641  70.141  1.00  0.00    -0.238 A  
HETATM   11  C   UNL     1     -11.852   8.662  71.048  1.00  0.00    -0.265 A  
HETATM   12  C   UNL     1     -10.913   7.945  71.780  1.00  0.00    -0.290 A  
HETATM   13  O   UNL     1     -13.167   8.364  71.248  1.00  0.00    -0.488 OA 
HETATM   14  C   UNL     1      -9.554   8.208  71.607  1.00  0.00    -0.237 A  
HETATM   15  H   UNL     1     -13.436   7.696  71.867  1.00  0.00     0.000 HD 
ENDBRANCH   6   8
ENDBRANCH   5   6
ENDBRANCH   4   5
ENDBRANCH   3   4
ENDBRANCH   2   3
TORSDOF 5
ENDMDL
MODEL      247
REMARK 921   NORMALIZED FREE ENERGY PREDICTED BY IDOCK:   -1.82 KCAL/MOL
REMARK 922        TOTAL FREE ENERGY PREDICTED BY IDOCK:   -2.66 KCAL/MOL
REMARK 923 INTER-LIGAND FREE ENERGY PREDICTED BY IDOCK:   -2.85 KCAL/MOL
REMARK 924 INTRA-LIGAND FREE ENERGY PREDICTED BY IDOCK:    0.19 KCAL/MOL
REMARK 927      BINDING AFFINITY PREDICTED BY RF-SCORE:    0.00 PKD
ROOT
HETATM    1  C   UNL     1      -9.000   9.758  67.002  1.00  0.00    -0.152 C  
HETATM    2  C   UNL     1      -7.847  10.318  66.193  1.00  0.00    -0.129 C  
ENDROOT
BRANCH   2   3
HETATM    3  C   UNL     1      -6.701  10.815  67.073  1.00  0.00    -0.090 C  
BRANCH   3   4
HETATM    4  C   UNL     1      -7.195  10.965  68.503  1.00  0.00    -0.090 C  
BRANCH   4   5
HETATM    5  O   UNL     1      -7.079  12.310  68.971  1.00  0.00    -0.101 OA 
BRANCH   5   6
HETATM    6  C   UNL     1      -7.130  13.248  67.995  1.00  0.00    -0.122 C  
HETATM    7  O   UNL     1      -6.280  13.441  67.138  1.00  0.00    -0.257 OA 
BRANCH   6   8
HETATM    8  C   UNL     1      -8.475  13.885  68.000  1.00  0.00    -0.173 A  
HETATM    9  C   UNL     1      -9.449  13.385  67.126  1.00  0.00    -0.244 A  
HETATM   10  C   UNL     1     -10.761  13.862  67.189  1.00  0.00    -0.282 A  
HETATM   11  C   UNL     1     -11.091  14.840  68.124  1.00  0.00    -0.278 A  
HETATM   12  C   UNL     1     -10.134  15.348  68.994  1.00  0.00    -0.234 A  
HETATM   13  O   UNL     1     -12.359  15.327  68.229  1.00  0.00    -0.507 OA 
HETATM   14  C   UNL     1      -8.821  14.877  68.931  1.00  0.00    -0.184 A  
HETATM   15  H   UNL     1     -12.584  15.993  68.868  1.00  0.00     0.000 HD 
ENDBRANCH   6   8
ENDBRANCH   5   6
ENDBRANCH   4   5
ENDBRANCH   3   4
ENDBRANCH   2   3
TORSDOF 5
ENDMDL
MODEL      248
REMARK 921   NORMALIZED FREE ENERGY PREDICTED BY IDOCK:   -1.82 KCAL/MOL
REMARK 922        TOTAL FREE ENERGY PREDICTED BY IDOCK:   -2.65 KCAL/MOL
REMARK 923 INTER-LIGAND FREE ENERGY PREDICTED BY IDOCK:   -2.85 KCAL/MOL
REMARK 924 INTRA-LIGAND FREE ENERGY PREDICTED BY IDOCK:    0.20 KCAL/MOL
REMARK 927      BINDING AFFINITY PREDICTED BY RF-SCORE:    0.00 PKD
ROOT
HETATM    1  C   UNL     1      -6.553  11.962  68.042  1.00  0.00    -0.063 C  
HETATM    2  C   UNL     1      -6.175  10.614  67.460  1.00  0.00    -0.056 C  
ENDROOT
BRANCH   2   3
HETATM    3  C   UNL     1      -6.588   9.451  68.360  1.00  0.00    -0.054 C  
BRANCH   3   4
HETATM    4  C   UNL     1      -7.516   8.525  67.589  1.00  0.00    -0.094 C  
BRANCH   4   5
HETATM    5  O   UNL     1      -8.796   8.410  68.214  1.00  0.00    -0.138 OA 
BRANCH   5   6
HETATM    6  C   UNL     1      -9.170   9.498  68.928  1.00  0.00    -0.145 C  
HETATM    7  O   UNL     1      -8.747   9.817  70.029  1.00  0.00    -0.201 OA 
BRANCH   6   8
HETATM    8  C   UNL     1     -10.036  10.363  68.080  1.00  0.00    -0.189 A  
HETATM    9  C   UNL     1     -10.718  11.423  68.691  1.00  0.00    -0.241 A  
HETATM   10  C   UNL     1     -11.435  12.338  67.916  1.00  0.00    -0.390 A  
HETATM   11  C   UNL     1     -11.468  12.186  66.532  1.00  0.00    -0.369 A  
HETATM   12  C   UNL     1     -10.800  11.137  65.912  1.00  0.00    -0.223 A  
HETATM   13  O   UNL     1     -12.145  13.060  65.736  1.00  0.00    -0.411 OA 
HETATM   14  C   UNL     1     -10.087  10.219  66.684  1.00  0.00    -0.281 A  
HETATM   15  H   UNL     1     -12.166  12.957  64.791  1.00  0.00     0.000 HD 
ENDBRANCH   6   8
ENDBRANCH   5   6
ENDBRANCH   4   5
ENDBRANCH   3   4
ENDBRANCH   2   3
TORSDOF 5
ENDMDL
MODEL      249
REMARK 921   NORMALIZED FREE ENERGY PREDICTED BY IDOCK:   -1.81 KCAL/MOL
REMARK 922        TOTAL FREE ENERGY PREDICTED BY IDOCK:   -2.64 KCAL/MOL
REMARK 923 INTER-LIGAND FREE ENERGY PREDICTED BY IDOCK:   -2.44 KCAL/MOL
REMARK 924 INTRA-LIGAND FREE ENERGY PREDICTED BY IDOCK:   -0.20 KCAL/MOL
REMARK 927      BINDING AFFINITY PREDICTED BY RF-SCORE:    0.00 PKD
ROOT
HETATM    1  C   UNL     1      -6.754  13.762  68.271  1.00  0.00    -0.109 C  
HETATM    2  C   UNL     1      -5.564  12.930  68.708  1.00  0.00    -0.071 C  
ENDROOT
BRANCH   2   3
HETATM    3  C   UNL     1      -5.757  11.440  68.430  1.00  0.00    -0.045 C  
BRANCH   3   4
HETATM    4  C   UNL     1      -7.205  11.186  68.041  1.00  0.00    -0.079 C  
BRANCH   4   5
HETATM    5  O   UNL     1      -7.439   9.813  67.716  1.00  0.00    -0.089 OA 
BRANCH   5   6
HETATM    6  C   UNL     1      -8.058   9.105  68.690  1.00  0.00    -0.102 C  
HETATM    7  O   UNL     1      -8.100   9.396  69.876  1.00  0.00    -0.105 OA 
BRANCH   6   8
HETATM    8  C   UNL     1      -8.853   8.012  68.067  1.00  0.00    -0.128 A  
HETATM    9  C   UNL     1     -10.249   8.059  68.182  1.00  0.00    -0.251 A  
HETATM   10  C   UNL     1     -11.041   7.129  67.503  1.00  0.00    -0.170 A  
HETATM   11  C   UNL     1     -10.433   6.157  66.713  1.00  0.00    -0.252 A  
HETATM   12  C   UNL     1      -9.050   6.096  66.594  1.00  0.00    -0.146 A  
HETATM   13  O   UNL     1     -11.166   5.237  66.025  1.00  0.00    -0.780 OA 
HETATM   14  C   UNL     1      -8.255   7.019  67.275  1.00  0.00    -0.119 A  
HETATM   15  H   UNL     1     -10.751   4.574  65.486  1.00  0.00     0.000 HD 
ENDBRANCH   6   8
ENDBRANCH   5   6
ENDBRANCH   4   5
ENDBRANCH   3   4
ENDBRANCH   2   3
TORSDOF 5
ENDMDL
MODEL      250
REMARK 921   NORMALIZED FREE ENERGY PREDICTED BY IDOCK:   -1.81 KCAL/MOL
REMARK 922        TOTAL FREE ENERGY PREDICTED BY IDOCK:   -2.64 KCAL/MOL
REMARK 923 INTER-LIGAND FREE ENERGY PREDICTED BY IDOCK:   -2.24 KCAL/MOL
REMARK 924 INTRA-LIGAND FREE ENERGY PREDICTED BY IDOCK:   -0.40 KCAL/MOL
REMARK 927      BINDING AFFINITY PREDICTED BY RF-SCORE:    0.00 PKD
ROOT
HETATM    1  C   UNL     1     -10.476   8.803  67.116  1.00  0.00    -0.354 C  
HETATM    2  C   UNL     1     -10.763   7.330  67.327  1.00  0.00    -0.391 C  
ENDROOT
BRANCH   2   3
HETATM    3  C   UNL     1      -9.529   6.455  67.111  1.00  0.00    -0.145 C  
BRANCH   3   4
HETATM    4  C   UNL     1      -8.388   6.977  67.971  1.00  0.00    -0.119 C  
BRANCH   4   5
HETATM    5  O   UNL     1      -7.539   5.922  68.429  1.00  0.00    -0.087 OA 
BRANCH   5   6
HETATM    6  C   UNL     1      -7.252   5.969  69.751  1.00  0.00    -0.074 C  
HETATM    7  O   UNL     1      -6.368   6.633  70.273  1.00  0.00    -0.037 OA 
BRANCH   6   8
HETATM    8  C   UNL     1      -8.308   5.240  70.505  1.00  0.00    -0.112 A  
HETATM    9  C   UNL     1      -8.301   3.839  70.470  1.00  0.00    -0.084 A  
HETATM   10  C   UNL     1      -9.190   3.112  71.266  1.00  0.00    -0.193 A  
HETATM   11  C   UNL     1     -10.083   3.790  72.092  1.00  0.00    -0.150 A  
HETATM   12  C   UNL     1     -10.104   5.179  72.134  1.00  0.00    -0.247 A  
HETATM   13  O   UNL     1     -10.959   3.122  72.894  1.00  0.00    -0.088 OA 
HETATM   14  C   UNL     1      -9.221   5.909  71.336  1.00  0.00    -0.158 A  
HETATM   15  H   UNL     1     -11.568   3.585  73.457  1.00  0.00     0.000 HD 
ENDBRANCH   6   8
ENDBRANCH   5   6
ENDBRANCH   4   5
ENDBRANCH   3   4
ENDBRANCH   2   3
TORSDOF 5
ENDMDL
MODEL      251
REMARK 921   NORMALIZED FREE ENERGY PREDICTED BY IDOCK:   -1.80 KCAL/MOL
REMARK 922        TOTAL FREE ENERGY PREDICTED BY IDOCK:   -2.63 KCAL/MOL
REMARK 923 INTER-LIGAND FREE ENERGY PREDICTED BY IDOCK:   -2.18 KCAL/MOL
REMARK 924 INTRA-LIGAND FREE ENERGY PREDICTED BY IDOCK:   -0.45 KCAL/MOL
REMARK 927      BINDING AFFINITY PREDICTED BY RF-SCORE:    0.00 PKD
ROOT
HETATM    1  C   UNL     1      -6.522   9.795  71.082  1.00  0.00     0.041 C  
HETATM    2  C   UNL     1      -7.975  10.089  70.764  1.00  0.00     0.620 C  
ENDROOT
BRANCH   2   3
HETATM    3  C   UNL     1      -8.888   8.897  71.044  1.00  0.00    -0.285 C  
BRANCH   3   4
HETATM    4  C   UNL     1     -10.224   9.114  70.351  1.00  0.00    -0.222 C  
BRANCH   4   5
HETATM    5  O   UNL     1     -10.565  10.500  70.268  1.00  0.00    -0.212 OA 
BRANCH   5   6
HETATM    6  C   UNL     1     -11.418  10.807  69.262  1.00  0.00    -0.298 C  
HETATM    7  O   UNL     1     -12.598  10.497  69.199  1.00  0.00    -0.171 OA 
BRANCH   6   8
HETATM    8  C   UNL     1     -10.750  11.757  68.330  1.00  0.00    -0.249 A  
HETATM    9  C   UNL     1     -10.822  13.127  68.614  1.00  0.00    -0.287 A  
HETATM   10  C   UNL     1     -10.101  14.042  67.843  1.00  0.00    -0.237 A  
HETATM   11  C   UNL     1      -9.313  13.583  66.791  1.00  0.00    -0.257 A  
HETATM   12  C   UNL     1      -9.236  12.227  66.495  1.00  0.00    -0.219 A  
HETATM   13  O   UNL     1      -8.585  14.438  66.020  1.00  0.00    -0.200 OA 
HETATM   14  C   UNL     1      -9.958  11.310  67.260  1.00  0.00    -0.208 A  
HETATM   15  H   UNL     1      -8.048  14.125  65.302  1.00  0.00     0.000 HD 
ENDBRANCH   6   8
ENDBRANCH   5   6
ENDBRANCH   4   5
ENDBRANCH   3   4
ENDBRANCH   2   3
TORSDOF 5
ENDMDL
MODEL      252
REMARK 921   NORMALIZED FREE ENERGY PREDICTED BY IDOCK:   -1.77 KCAL/MOL
REMARK 922        TOTAL FREE ENERGY PREDICTED BY IDOCK:   -2.59 KCAL/MOL
REMARK 923 INTER-LIGAND FREE ENERGY PREDICTED BY IDOCK:   -3.01 KCAL/MOL
REMARK 924 INTRA-LIGAND FREE ENERGY PREDICTED BY IDOCK:    0.42 KCAL/MOL
REMARK 927      BINDING AFFINITY PREDICTED BY RF-SCORE:    0.00 PKD
ROOT
HETATM    1  C   UNL     1      -8.794   9.514  67.229  1.00  0.00    -0.136 C  
HETATM    2  C   UNL     1      -9.098  10.890  67.789  1.00  0.00    -0.149 C  
ENDROOT
BRANCH   2   3
HETATM    3  C   UNL     1      -7.872  11.550  68.418  1.00  0.00    -0.136 C  
BRANCH   3   4
HETATM    4  C   UNL     1      -7.930  13.050  68.174  1.00  0.00    -0.154 C  
BRANCH   4   5
HETATM    5  O   UNL     1      -7.146  13.777  69.124  1.00  0.00    -0.108 OA 
BRANCH   5   6
HETATM    6  C   UNL     1      -7.540  15.059  69.309  1.00  0.00    -0.187 C  
HETATM    7  O   UNL     1      -7.158  15.808  70.195  1.00  0.00     0.047 OA 
BRANCH   6   8
HETATM    8  C   UNL     1      -8.365  15.488  68.146  1.00  0.00    -0.145 A  
HETATM    9  C   UNL     1      -9.759  15.460  68.276  1.00  0.00    -0.209 A  
HETATM   10  C   UNL     1     -10.570  15.977  67.262  1.00  0.00    -0.313 A  
HETATM   11  C   UNL     1      -9.980  16.516  66.121  1.00  0.00    -0.343 A  
HETATM   12  C   UNL     1      -8.599  16.546  65.977  1.00  0.00    -0.241 A  
HETATM   13  O   UNL     1     -10.730  17.041  65.112  1.00  0.00    -0.672 OA 
HETATM   14  C   UNL     1      -7.786  16.027  66.986  1.00  0.00    -0.263 A  
HETATM   15  H   UNL     1     -10.328  17.410  64.334  1.00  0.00     0.000 HD 
ENDBRANCH   6   8
ENDBRANCH   5   6
ENDBRANCH   4   5
ENDBRANCH   3   4
ENDBRANCH   2   3
TORSDOF 5
ENDMDL
MODEL      253
REMARK 921   NORMALIZED FREE ENERGY PREDICTED BY IDOCK:   -1.75 KCAL/MOL
REMARK 922        TOTAL FREE ENERGY PREDICTED BY IDOCK:   -2.57 KCAL/MOL
REMARK 923 INTER-LIGAND FREE ENERGY PREDICTED BY IDOCK:   -2.27 KCAL/MOL
REMARK 924 INTRA-LIGAND FREE ENERGY PREDICTED BY IDOCK:   -0.29 KCAL/MOL
REMARK 927      BINDING AFFINITY PREDICTED BY RF-SCORE:    0.00 PKD
ROOT
HETATM    1  C   UNL     1      -8.008   6.923  65.074  1.00  0.00    -0.125 C  
HETATM    2  C   UNL     1      -7.151   7.568  66.146  1.00  0.00    -0.070 C  
ENDROOT
BRANCH   2   3
HETATM    3  C   UNL     1      -7.400   9.070  66.270  1.00  0.00    -0.091 C  
BRANCH   3   4
HETATM    4  C   UNL     1      -7.357   9.467  67.737  1.00  0.00    -0.083 C  
BRANCH   4   5
HETATM    5  O   UNL     1      -8.364   8.800  68.502  1.00  0.00    -0.126 OA 
BRANCH   5   6
HETATM    6  C   UNL     1      -8.249   8.962  69.841  1.00  0.00    -0.118 C  
HETATM    7  O   UNL     1      -7.725   9.909  70.409  1.00  0.00    -0.184 OA 
BRANCH   6   8
HETATM    8  C   UNL     1      -9.035   7.902  70.530  1.00  0.00    -0.145 A  
HETATM    9  C   UNL     1      -8.693   7.572  71.847  1.00  0.00    -0.132 A  
HETATM   10  C   UNL     1      -9.484   6.680  72.576  1.00  0.00    -0.155 A  
HETATM   11  C   UNL     1     -10.612   6.121  71.982  1.00  0.00    -0.218 A  
HETATM   12  C   UNL     1     -10.961   6.436  70.674  1.00  0.00    -0.355 A  
HETATM   13  O   UNL     1     -11.419   5.256  72.658  1.00  0.00    -0.262 OA 
HETATM   14  C   UNL     1     -10.171   7.323  69.942  1.00  0.00    -0.210 A  
HETATM   15  H   UNL     1     -12.189   4.875  72.252  1.00  0.00     0.000 HD 
ENDBRANCH   6   8
ENDBRANCH   5   6
ENDBRANCH   4   5
ENDBRANCH   3   4
ENDBRANCH   2   3
TORSDOF 5
ENDMDL
MODEL      254
REMARK 921   NORMALIZED FREE ENERGY PREDICTED BY IDOCK:   -1.65 KCAL/MOL
REMARK 922        TOTAL FREE ENERGY PREDICTED BY IDOCK:   -2.44 KCAL/MOL
REMARK 923 INTER-LIGAND FREE ENERGY PREDICTED BY IDOCK:   -2.17 KCAL/MOL
REMARK 924 INTRA-LIGAND FREE ENERGY PREDICTED BY IDOCK:   -0.27 KCAL/MOL
REMARK 927      BINDING AFFINITY PREDICTED BY RF-SCORE:    0.00 PKD
ROOT
HETATM    1  C   UNL     1     -10.843  10.461  68.691  1.00  0.00    -0.270 C  
HETATM    2  C   UNL     1     -10.038  10.959  67.507  1.00  0.00    -0.214 C  
ENDROOT
BRANCH   2   3
HETATM    3  C   UNL     1     -10.082   9.997  66.322  1.00  0.00    -0.310 C  
BRANCH   3   4
HETATM    4  C   UNL     1     -10.752   8.702  66.751  1.00  0.00    -0.015 C  
BRANCH   4   5
HETATM    5  O   UNL     1      -9.861   7.587  66.676  1.00  0.00    -0.214 OA 
BRANCH   5   6
HETATM    6  C   UNL     1     -10.399   6.412  67.080  1.00  0.00    -0.244 C  
HETATM    7  O   UNL     1     -11.495   6.263  67.600  1.00  0.00    -0.103 OA 
BRANCH   6   8
HETATM    8  C   UNL     1      -9.535   5.294  66.611  1.00  0.00    -0.148 A  
HETATM    9  C   UNL     1      -8.833   5.456  65.410  1.00  0.00    -0.144 A  
HETATM   10  C   UNL     1      -7.910   4.491  64.999  1.00  0.00    -0.090 A  
HETATM   11  C   UNL     1      -7.697   3.366  65.792  1.00  0.00    -0.081 A  
HETATM   12  C   UNL     1      -8.389   3.189  66.983  1.00  0.00    -0.090 A  
HETATM   13  O   UNL     1      -6.799   2.404  65.436  1.00  0.00    -0.041 OA 
HETATM   14  C   UNL     1      -9.315   4.149  67.394  1.00  0.00    -0.204 A  
HETATM   15  H   UNL     1      -6.653   1.637  65.977  1.00  0.00     0.000 HD 
ENDBRANCH   6   8
ENDBRANCH   5   6
ENDBRANCH   4   5
ENDBRANCH   3   4
ENDBRANCH   2   3
TORSDOF 5
ENDMDL
MODEL      255
REMARK 921   NORMALIZED FREE ENERGY PREDICTED BY IDOCK:   -1.63 KCAL/MOL
REMARK 922        TOTAL FREE ENERGY PREDICTED BY IDOCK:   -2.40 KCAL/MOL
REMARK 923 INTER-LIGAND FREE ENERGY PREDICTED BY IDOCK:   -2.21 KCAL/MOL
REMARK 924 INTRA-LIGAND FREE ENERGY PREDICTED BY IDOCK:   -0.19 KCAL/MOL
REMARK 927      BINDING AFFINITY PREDICTED BY RF-SCORE:    0.00 PKD
ROOT
HETATM    1  C   UNL     1      -5.839  13.258  69.587  1.00  0.00    -0.114 C  
HETATM    2  C   UNL     1      -6.656  12.404  68.636  1.00  0.00    -0.079 C  
ENDROOT
BRANCH   2   3
HETATM    3  C   UNL     1      -8.136  12.784  68.631  1.00  0.00    -0.007 C  
BRANCH   3   4
HETATM    4  C   UNL     1      -8.944  11.644  68.033  1.00  0.00    -0.176 C  
BRANCH   4   5
HETATM    5  O   UNL     1      -9.593  10.862  69.039  1.00  0.00    -0.200 OA 
BRANCH   5   6
HETATM    6  C   UNL     1     -10.496   9.973  68.561  1.00  0.00    -0.202 C  
HETATM    7  O   UNL     1     -11.408  10.220  67.786  1.00  0.00    -0.322 OA 
BRANCH   6   8
HETATM    8  C   UNL     1     -10.090   8.600  68.968  1.00  0.00    -0.207 A  
HETATM    9  C   UNL     1      -8.724   8.289  68.982  1.00  0.00    -0.143 A  
HETATM   10  C   UNL     1      -8.289   7.059  69.482  1.00  0.00    -0.133 A  
HETATM   11  C   UNL     1      -9.223   6.146  69.964  1.00  0.00    -0.151 A  
HETATM   12  C   UNL     1     -10.581   6.439  69.953  1.00  0.00    -0.298 A  
HETATM   13  O   UNL     1      -8.844   4.939  70.472  1.00  0.00    -0.110 OA 
HETATM   14  C   UNL     1     -11.020   7.665  69.450  1.00  0.00    -0.071 A  
HETATM   15  H   UNL     1      -9.482   4.317  70.801  1.00  0.00     0.000 HD 
ENDBRANCH   6   8
ENDBRANCH   5   6
ENDBRANCH   4   5
ENDBRANCH   3   4
ENDBRANCH   2   3
TORSDOF 5
ENDMDL
MODEL      256
REMARK 921   NORMALIZED FREE ENERGY PREDICTED BY IDOCK:   -1.51 KCAL/MOL
REMARK 922        TOTAL FREE ENERGY PREDICTED BY IDOCK:   -2.25 KCAL/MOL
REMARK 923 INTER-LIGAND FREE ENERGY PREDICTED BY IDOCK:   -2.05 KCAL/MOL
REMARK 924 INTRA-LIGAND FREE ENERGY PREDICTED BY IDOCK:   -0.20 KCAL/MOL
REMARK 927      BINDING AFFINITY PREDICTED BY RF-SCORE:    0.00 PKD
ROOT
HETATM    1  C   UNL     1      -9.685   7.258  73.885  1.00  0.00    -0.323 C  
HETATM    2  C   UNL     1     -10.170   6.537  72.642  1.00  0.00    -0.205 C  
ENDROOT
BRANCH   2   3
HETATM    3  C   UNL     1      -9.059   6.330  71.614  1.00  0.00    -0.145 C  
BRANCH   3   4
HETATM    4  C   UNL     1      -9.669   5.847  70.307  1.00  0.00    -0.169 C  
BRANCH   4   5
HETATM    5  O   UNL     1      -9.567   6.830  69.274  1.00  0.00    -0.145 OA 
BRANCH   5   6
HETATM    6  C   UNL     1     -10.002   6.414  68.061  1.00  0.00    -0.135 C  
HETATM    7  O   UNL     1     -11.167   6.261  67.728  1.00  0.00    -0.325 OA 
BRANCH   6   8
HETATM    8  C   UNL     1      -8.847   6.358  67.123  1.00  0.00    -0.113 A  
HETATM    9  C   UNL     1      -8.697   7.395  66.193  1.00  0.00    -0.172 A  
HETATM   10  C   UNL     1      -7.560   7.453  65.383  1.00  0.00    -0.096 A  
HETATM   11  C   UNL     1      -6.580   6.472  65.506  1.00  0.00    -0.043 A  
HETATM   12  C   UNL     1      -6.717   5.435  66.421  1.00  0.00    -0.057 A  
HETATM   13  O   UNL     1      -5.449   6.495  64.746  1.00  0.00    -0.024 OA 
HETATM   14  C   UNL     1      -7.854   5.371  67.228  1.00  0.00    -0.101 A  
HETATM   15  H   UNL     1      -4.780   5.826  64.830  1.00  0.00     0.000 HD 
ENDBRANCH   6   8
ENDBRANCH   5   6
ENDBRANCH   4   5
ENDBRANCH   3   4
ENDBRANCH   2   3
TORSDOF 5
ENDMDL
MODEL      257
REMARK 921   NORMALIZED FREE ENERGY PREDICTED BY IDOCK:   -1.48 KCAL/MOL
REMARK 922        TOTAL FREE ENERGY PREDICTED BY IDOCK:   -2.21 KCAL/MOL
REMARK 923 INTER-LIGAND FREE ENERGY PREDICTED BY IDOCK:   -3.32 KCAL/MOL
REMARK 924 INTRA-LIGAND FREE ENERGY PREDICTED BY IDOCK:    1.11 KCAL/MOL
REMARK 927      BINDING AFFINITY PREDICTED BY RF-SCORE:    0.00 PKD
ROOT
HETATM    1  C   UNL     1      -5.408  14.526  69.768  1.00  0.00    -0.093 C  
HETATM    2  C   UNL     1      -6.749  14.760  69.101  1.00  0.00    -0.123 C  
ENDROOT
BRANCH   2   3
HETATM    3  C   UNL     1      -6.611  15.384  67.712  1.00  0.00    -0.178 C  
BRANCH   3   4
HETATM    4  C   UNL     1      -7.840  15.041  66.884  1.00  0.00    -0.021 C  
BRANCH   4   5
HETATM    5  O   UNL     1      -8.792  16.107  66.874  1.00  0.00    -0.190 OA 
BRANCH   5   6
HETATM    6  C   UNL     1     -10.038  15.740  66.490  1.00  0.00    -0.282 C  
HETATM    7  O   UNL     1     -11.021  16.465  66.449  1.00  0.00    -0.137 OA 
BRANCH   6   8
HETATM    8  C   UNL     1      -9.989  14.361  65.932  1.00  0.00    -0.350 A  
HETATM    9  C   UNL     1      -9.586  13.318  66.776  1.00  0.00    -0.258 A  
HETATM   10  C   UNL     1      -9.651  11.993  66.336  1.00  0.00    -0.239 A  
HETATM   11  C   UNL     1     -10.118  11.719  65.053  1.00  0.00    -0.263 A  
HETATM   12  C   UNL     1     -10.517  12.744  64.203  1.00  0.00    -0.437 A  
HETATM   13  O   UNL     1     -10.209  10.443  64.585  1.00  0.00    -0.346 OA 
HETATM   14  C   UNL     1     -10.449  14.069  64.638  1.00  0.00    -0.398 A  
HETATM   15  H   UNL     1     -10.528  10.256  63.710  1.00  0.00     0.000 HD 
ENDBRANCH   6   8
ENDBRANCH   5   6
ENDBRANCH   4   5
ENDBRANCH   3   4
ENDBRANCH   2   3
TORSDOF 5
ENDMDL
MODEL      258
REMARK 921   NORMALIZED FREE ENERGY PREDICTED BY IDOCK:   -1.33 KCAL/MOL
REMARK 922        TOTAL FREE ENERGY PREDICTED BY IDOCK:   -2.02 KCAL/MOL
REMARK 923 INTER-LIGAND FREE ENERGY PREDICTED BY IDOCK:   -1.96 KCAL/MOL
REMARK 924 INTRA-LIGAND FREE ENERGY PREDICTED BY IDOCK:   -0.06 KCAL/MOL
REMARK 927      BINDING AFFINITY PREDICTED BY RF-SCORE:    0.00 PKD
ROOT
HETATM    1  C   UNL     1      -6.101   9.284  71.188  1.00  0.00    -0.071 C  
HETATM    2  C   UNL     1      -6.691   8.326  70.171  1.00  0.00    -0.036 C  
ENDROOT
BRANCH   2   3
HETATM    3  C   UNL     1      -5.732   8.032  69.018  1.00  0.00    -0.034 C  
BRANCH   3   4
HETATM    4  C   UNL     1      -6.418   7.117  68.016  1.00  0.00    -0.048 C  
BRANCH   4   5
HETATM    5  O   UNL     1      -7.798   6.916  68.332  1.00  0.00    -0.116 OA 
BRANCH   5   6
HETATM    6  C   UNL     1      -8.660   7.525  67.485  1.00  0.00    -0.122 C  
HETATM    7  O   UNL     1      -8.837   8.730  67.381  1.00  0.00    -0.132 OA 
BRANCH   6   8
HETATM    8  C   UNL     1      -9.225   6.511  66.552  1.00  0.00    -0.179 A  
HETATM    9  C   UNL     1      -8.431   6.080  65.481  1.00  0.00    -0.151 A  
HETATM   10  C   UNL     1      -8.867   5.038  64.659  1.00  0.00    -0.114 A  
HETATM   11  C   UNL     1     -10.095   4.433  64.912  1.00  0.00    -0.118 A  
HETATM   12  C   UNL     1     -10.895   4.853  65.968  1.00  0.00    -0.137 A  
HETATM   13  O   UNL     1     -10.555   3.405  64.144  1.00  0.00    -0.360 OA 
HETATM   14  C   UNL     1     -10.465   5.897  66.788  1.00  0.00    -0.344 A  
HETATM   15  H   UNL     1     -11.393   2.992  64.317  1.00  0.00     0.000 HD 
ENDBRANCH   6   8
ENDBRANCH   5   6
ENDBRANCH   4   5
ENDBRANCH   3   4
ENDBRANCH   2   3
TORSDOF 5
ENDMDL
MODEL      259
REMARK 921   NORMALIZED FREE ENERGY PREDICTED BY IDOCK:   -1.33 KCAL/MOL
REMARK 922        TOTAL FREE ENERGY PREDICTED BY IDOCK:   -2.02 KCAL/MOL
REMARK 923 INTER-LIGAND FREE ENERGY PREDICTED BY IDOCK:   -2.34 KCAL/MOL
REMARK 924 INTRA-LIGAND FREE ENERGY PREDICTED BY IDOCK:    0.33 KCAL/MOL
REMARK 927      BINDING AFFINITY PREDICTED BY RF-SCORE:    0.00 PKD
ROOT
HETATM    1  C   UNL     1      -5.285  13.993  69.766  1.00  0.00    -0.092 C  
HETATM    2  C   UNL     1      -6.628  13.523  69.244  1.00  0.00    -0.103 C  
ENDROOT
BRANCH   2   3
HETATM    3  C   UNL     1      -6.609  13.248  67.741  1.00  0.00    -0.156 C  
BRANCH   3   4
HETATM    4  C   UNL     1      -7.268  14.408  67.010  1.00  0.00     0.444 C  
BRANCH   4   5
HETATM    5  O   UNL     1      -6.410  15.549  66.934  1.00  0.00    -0.217 OA 
BRANCH   5   6
HETATM    6  C   UNL     1      -7.002  16.718  67.276  1.00  0.00    -0.177 C  
HETATM    7  O   UNL     1      -6.537  17.836  67.110  1.00  0.00    -0.157 OA 
BRANCH   6   8
HETATM    8  C   UNL     1      -8.400  16.447  67.709  1.00  0.00    -0.172 A  
HETATM    9  C   UNL     1      -8.644  16.240  69.073  1.00  0.00    -0.247 A  
HETATM   10  C   UNL     1      -9.954  16.114  69.541  1.00  0.00    -0.222 A  
HETATM   11  C   UNL     1     -11.014  16.194  68.642  1.00  0.00    -0.336 A  
HETATM   12  C   UNL     1     -10.787  16.395  67.286  1.00  0.00    -0.194 A  
HETATM   13  O   UNL     1     -12.309  16.088  69.054  1.00  0.00    -0.446 OA 
HETATM   14  C   UNL     1      -9.479  16.516  66.814  1.00  0.00    -0.266 A  
HETATM   15  H   UNL     1     -13.032  16.143  68.441  1.00  0.00     0.000 HD 
ENDBRANCH   6   8
ENDBRANCH   5   6
ENDBRANCH   4   5
ENDBRANCH   3   4
ENDBRANCH   2   3
TORSDOF 5
ENDMDL
MODEL      260
REMARK 921   NORMALIZED FREE ENERGY PREDICTED BY IDOCK:   -0.94 KCAL/MOL
REMARK 922        TOTAL FREE ENERGY PREDICTED BY IDOCK:   -1.51 KCAL/MOL
REMARK 923 INTER-LIGAND FREE ENERGY PREDICTED BY IDOCK:   -1.24 KCAL/MOL
REMARK 924 INTRA-LIGAND FREE ENERGY PREDICTED BY IDOCK:   -0.27 KCAL/MOL
REMARK 927      BINDING AFFINITY PREDICTED BY RF-SCORE:    0.00 PKD
ROOT
HETATM    1  C   UNL     1     -10.459   7.948  67.737  1.00  0.00    -0.278 C  
HETATM    2  C   UNL     1     -10.988   6.557  68.024  1.00  0.00    -0.368 C  
ENDROOT
BRANCH   2   3
HETATM    3  C   UNL     1      -9.972   5.464  67.695  1.00  0.00    -0.195 C  
BRANCH   3   4
HETATM    4  C   UNL     1      -8.661   5.768  68.402  1.00  0.00    -0.112 C  
BRANCH   4   5
HETATM    5  O   UNL     1      -7.779   4.643  68.403  1.00  0.00    -0.078 OA 
BRANCH   5   6
HETATM    6  C   UNL     1      -6.496   4.938  68.718  1.00  0.00    -0.037 C  
HETATM    7  O   UNL     1      -5.624   5.286  67.935  1.00  0.00    -0.011 OA 
BRANCH   6   8
HETATM    8  C   UNL     1      -6.352   4.966  70.199  1.00  0.00    -0.026 A  
HETATM    9  C   UNL     1      -6.680   3.810  70.919  1.00  0.00    -0.032 A  
HETATM   10  C   UNL     1      -6.437   3.746  72.294  1.00  0.00    -0.014 A  
HETATM   11  C   UNL     1      -5.867   4.840  72.941  1.00  0.00    -0.016 A  
HETATM   12  C   UNL     1      -5.540   5.994  72.240  1.00  0.00    -0.031 A  
HETATM   13  O   UNL     1      -5.601   4.818  74.277  1.00  0.00    -0.016 OA 
HETATM   14  C   UNL     1      -5.787   6.063  70.868  1.00  0.00    -0.022 A  
HETATM   15  H   UNL     1      -5.212   5.564  74.718  1.00  0.00     0.000 HD 
ENDBRANCH   6   8
ENDBRANCH   5   6
ENDBRANCH   4   5
ENDBRANCH   3   4
ENDBRANCH   2   3
TORSDOF 5
ENDMDL
MODEL      261
REMARK 921   NORMALIZED FREE ENERGY PREDICTED BY IDOCK:   -0.67 KCAL/MOL
REMARK 922        TOTAL FREE ENERGY PREDICTED BY IDOCK:   -1.16 KCAL/MOL
REMARK 923 INTER-LIGAND FREE ENERGY PREDICTED BY IDOCK:   -1.07 KCAL/MOL
REMARK 924 INTRA-LIGAND FREE ENERGY PREDICTED BY IDOCK:   -0.10 KCAL/MOL
REMARK 927      BINDING AFFINITY PREDICTED BY RF-SCORE:    0.00 PKD
ROOT
HETATM    1  C   UNL     1      -6.465  13.847  69.038  1.00  0.00    -0.103 C  
HETATM    2  C   UNL     1      -6.824  12.464  69.544  1.00  0.00     0.082 C  
ENDROOT
BRANCH   2   3
HETATM    3  C   UNL     1      -6.494  11.366  68.533  1.00  0.00    -0.056 C  
BRANCH   3   4
HETATM    4  C   UNL     1      -7.626  11.255  67.525  1.00  0.00    -0.110 C  
BRANCH   4   5
HETATM    5  O   UNL     1      -8.432  10.096  67.750  1.00  0.00    -0.114 OA 
BRANCH   5   6
HETATM    6  C   UNL     1      -8.567   9.290  66.670  1.00  0.00    -0.127 C  
HETATM    7  O   UNL     1      -9.048   9.606  65.592  1.00  0.00    -0.161 OA 
BRANCH   6   8
HETATM    8  C   UNL     1      -7.856   8.007  66.928  1.00  0.00    -0.103 A  
HETATM    9  C   UNL     1      -6.551   8.062  67.433  1.00  0.00    -0.058 A  
HETATM   10  C   UNL     1      -5.895   6.888  67.813  1.00  0.00    -0.021 A  
HETATM   11  C   UNL     1      -6.549   5.665  67.685  1.00  0.00    -0.053 A  
HETATM   12  C   UNL     1      -7.842   5.596  67.182  1.00  0.00    -0.101 A  
HETATM   13  O   UNL     1      -5.953   4.497  68.054  1.00  0.00    -0.025 OA 
HETATM   14  C   UNL     1      -8.498   6.766  66.797  1.00  0.00    -0.117 A  
HETATM   15  H   UNL     1      -6.399   3.663  67.967  1.00  0.00     0.000 HD 
ENDBRANCH   6   8
ENDBRANCH   5   6
ENDBRANCH   4   5
ENDBRANCH   3   4
ENDBRANCH   2   3
TORSDOF 5
ENDMDL
