MODEL        1
REMARK 921   NORMALIZED FREE ENERGY PREDICTED BY IDOCK:   -7.80 KCAL/MOL
REMARK 922        TOTAL FREE ENERGY PREDICTED BY IDOCK:  -17.51 KCAL/MOL
REMARK 923 INTER-LIGAND FREE ENERGY PREDICTED BY IDOCK:  -14.19 KCAL/MOL
REMARK 924 INTRA-LIGAND FREE ENERGY PREDICTED BY IDOCK:   -3.32 KCAL/MOL
REMARK 927      BINDING AFFINITY PREDICTED BY RF-SCORE:    0.00 PKD
ROOT
HETATM    1  C   UNL     1      -8.996   4.886  69.870  1.00  0.00    -0.138 C  
HETATM    2  C   UNL     1     -10.766   5.637  69.620  1.00  0.00    -0.328 C  
HETATM    3  C   UNL     1     -12.722   7.427  72.166  1.00  0.00    -0.145 C  
HETATM    4  C   UNL     1     -10.929   6.870  70.568  1.00  0.00    -0.273 C  
HETATM    5  C   UNL     1      -8.770   3.563  69.073  1.00  0.00    -0.093 C  
HETATM    6  O   UNL     1      -9.565   6.699  70.763  1.00  0.00    -0.174 OA 
HETATM    7  C   UNL     1     -11.351   8.255  69.855  1.00  0.00     0.064 C  
HETATM    8  C   UNL     1     -11.164   9.618  70.615  1.00  0.00    -0.320 C  
HETATM    9  C   UNL     1      -7.700   6.293  72.280  1.00  0.00    -0.103 C  
HETATM   10  H   UNL     1      -9.664   7.449  71.340  1.00  0.00     0.000 HD 
HETATM   11  C   UNL     1      -6.509   4.258  71.077  1.00  0.00    -0.029 C  
HETATM   12  C   UNL     1      -6.266   3.491  69.780  1.00  0.00    -0.028 C  
HETATM   13  C   UNL     1      -6.383   6.460  70.110  1.00  0.00    -0.039 C  
HETATM   14  C   UNL     1      -9.830   9.281  71.116  1.00  0.00    -0.342 C  
HETATM   15  C   UNL     1      -7.480   2.712  69.341  1.00  0.00    -0.044 C  
HETATM   16  C   UNL     1      -8.885   9.312  69.785  1.00  0.00    -0.174 C  
HETATM   17  O   UNL     1      -8.155   1.914  70.339  1.00  0.00    -0.042 OA 
HETATM   18  C   UNL     1      -9.772   8.341  72.172  1.00  0.00    -0.344 C  
HETATM   19  C   UNL     1     -11.163   7.102  72.094  1.00  0.00    -0.290 C  
HETATM   20  C   UNL     1      -7.467   5.502  70.780  1.00  0.00    -0.088 C  
HETATM   21  O   UNL     1      -7.527   5.741  73.366  1.00  0.00    -0.093 OA 
HETATM   22  C   UNL     1      -8.171   7.853  72.225  1.00  0.00    -0.129 C  
HETATM   23  C   UNL     1      -9.438   2.402  69.884  1.00  0.00    -0.057 C  
HETATM   24  C   UNL     1     -11.205   5.705  72.879  1.00  0.00    -0.338 C  
ENDROOT
BRANCH   2  25
HETATM   25  O   UNL     1     -11.336   6.257  68.268  1.00  0.00    -0.289 OA 
BRANCH  25  26
HETATM   26  C   UNL     1     -10.574   6.396  67.042  1.00  0.00    -0.327 C  
HETATM   27  O   UNL     1     -10.671   5.496  66.206  1.00  0.00    -0.245 OA 
BRANCH  26  28
HETATM   28  C   UNL     1      -9.337   7.469  66.773  1.00  0.00    -0.209 A  
HETATM   29  C   UNL     1      -8.238   9.595  65.898  1.00  0.00    -0.119 A  
HETATM   30  C   UNL     1      -8.011   7.012  66.915  1.00  0.00    -0.115 A  
HETATM   31  C   UNL     1      -9.370   8.754  66.127  1.00  0.00    -0.297 A  
HETATM   32  C   UNL     1      -6.859   7.816  66.619  1.00  0.00    -0.070 A  
HETATM   33  C   UNL     1      -6.969   9.123  66.158  1.00  0.00    -0.086 A  
ENDBRANCH  26  28
ENDBRANCH  25  26
ENDBRANCH   2  25
BRANCH   8  34
HETATM   34  O   UNL     1     -11.056  10.883  69.858  1.00  0.00    -0.266 OA 
BRANCH  34  35
HETATM   35  C   UNL     1     -11.930  11.887  70.202  1.00  0.00    -0.332 C  
HETATM   36  O   UNL     1     -12.701  11.761  71.156  1.00  0.00    -0.378 OA 
BRANCH  35  37
HETATM   37  C   UNL     1     -12.106  13.109  69.230  1.00  0.00    -0.220 C  
HETATM   38  H   UNL     1     -11.907  13.400  67.290  1.00  0.00     0.000 HD 
HETATM   39  O   UNL     1     -11.801  12.661  67.878  1.00  0.00    -0.350 OA 
BRANCH  37  40
HETATM   40  C   UNL     1     -11.579  14.625  69.445  1.00  0.00    -0.305 C  
BRANCH  40  41
HETATM   41  C   UNL     1     -12.225  15.177  70.766  1.00  0.00    -0.392 A  
HETATM   42  C   UNL     1     -13.607  15.085  70.965  1.00  0.00    -0.442 A  
HETATM   43  C   UNL     1     -11.432  15.603  71.857  1.00  0.00    -0.501 A  
HETATM   44  C   UNL     1     -11.990  15.947  73.114  1.00  0.00    -0.572 A  
HETATM   45  C   UNL     1     -14.162  15.447  72.227  1.00  0.00    -0.639 A  
HETATM   46  C   UNL     1     -13.386  15.871  73.263  1.00  0.00    -0.660 A  
ENDBRANCH  40  41
BRANCH  40  47
HETATM   47  N   UNL     1     -11.476  15.696  68.305  1.00  0.00    -0.362 N  
HETATM   48  C   UNL     1     -10.441  15.941  67.360  1.00  0.00    -0.306 C  
HETATM   49  H   UNL     1     -12.281  16.317  68.228  1.00  0.00     0.000 HD 
HETATM   50  O   UNL     1      -9.512  15.165  67.184  1.00  0.00    -0.208 OA 
BRANCH  48  51
HETATM   51  O   UNL     1     -10.568  17.158  66.652  1.00  0.00    -0.277 OA 
HETATM   52  C   UNL     1      -9.878  18.502  66.949  1.00  0.00    -0.334 C  
HETATM   53  C   UNL     1     -10.001  19.015  68.396  1.00  0.00    -0.473 C  
HETATM   54  C   UNL     1     -10.485  19.665  66.087  1.00  0.00    -0.624 C  
HETATM   55  C   UNL     1      -8.385  18.444  66.571  1.00  0.00    -0.290 C  
ENDBRANCH  48  51
ENDBRANCH  40  47
ENDBRANCH  37  40
ENDBRANCH  35  37
ENDBRANCH  34  35
ENDBRANCH   8  34
BRANCH  22  56
HETATM   56  O   UNL     1      -7.322   8.850  72.838  1.00  0.00    -0.347 OA 
HETATM   57  C   UNL     1      -5.911   8.676  72.578  1.00  0.00    -0.079 C  
ENDBRANCH  22  56
BRANCH  11  58
HETATM   58  O   UNL     1      -6.914   3.394  72.135  1.00  0.00    -0.032 OA 
HETATM   59  C   UNL     1      -5.799   2.738  72.761  1.00  0.00    -0.008 C  
ENDBRANCH  11  58
BRANCH   5  60
HETATM   60  O   UNL     1      -9.233   3.760  67.724  1.00  0.00    -0.143 OA 
BRANCH  60  61
HETATM   61  C   UNL     1      -8.832   2.945  66.744  1.00  0.00    -0.142 C  
HETATM   62  C   UNL     1      -7.789   3.649  65.916  1.00  0.00    -0.089 C  
HETATM   63  O   UNL     1      -9.145   1.770  66.519  1.00  0.00    -0.112 OA 
ENDBRANCH  60  61
ENDBRANCH   5  60
TORSDOF 14
ENDMDL
MODEL        2
REMARK 921   NORMALIZED FREE ENERGY PREDICTED BY IDOCK:   -7.68 KCAL/MOL
REMARK 922        TOTAL FREE ENERGY PREDICTED BY IDOCK:  -17.29 KCAL/MOL
REMARK 923 INTER-LIGAND FREE ENERGY PREDICTED BY IDOCK:  -13.13 KCAL/MOL
REMARK 924 INTRA-LIGAND FREE ENERGY PREDICTED BY IDOCK:   -4.16 KCAL/MOL
REMARK 927      BINDING AFFINITY PREDICTED BY RF-SCORE:    0.00 PKD
ROOT
HETATM    1  C   UNL     1      -8.567   6.603  67.361  1.00  0.00    -0.119 C  
HETATM    2  C   UNL     1      -9.244   8.376  66.966  1.00  0.00    -0.151 C  
HETATM    3  C   UNL     1     -10.753  10.691  69.390  1.00  0.00    -0.281 C  
HETATM    4  C   UNL     1      -9.099   9.267  68.242  1.00  0.00    -0.128 C  
HETATM    5  C   UNL     1      -8.788   5.586  66.198  1.00  0.00    -0.139 C  
HETATM    6  O   UNL     1      -8.349   8.197  68.711  1.00  0.00    -0.123 OA 
HETATM    7  C   UNL     1      -8.282  10.646  68.050  1.00  0.00    -0.113 C  
HETATM    8  C   UNL     1      -7.736  11.417  69.306  1.00  0.00     0.061 C  
HETATM    9  C   UNL     1      -7.994   6.457  70.381  1.00  0.00    -0.112 C  
HETATM   10  H   UNL     1      -8.260   8.739  69.487  1.00  0.00     0.000 HD 
HETATM   11  C   UNL     1      -7.768   4.319  68.837  1.00  0.00    -0.058 C  
HETATM   12  C   UNL     1      -7.436   3.754  67.459  1.00  0.00    -0.067 C  
HETATM   13  C   UNL     1      -5.997   5.951  68.889  1.00  0.00    -0.020 C  
HETATM   14  C   UNL     1      -7.240  10.209  69.969  1.00  0.00    -0.166 C  
HETATM   15  C   UNL     1      -8.505   4.063  66.442  1.00  0.00    -0.109 C  
HETATM   16  C   UNL     1      -5.961   9.754  69.062  1.00  0.00    -0.034 C  
HETATM   17  O   UNL     1      -9.877   3.819  66.825  1.00  0.00    -0.182 OA 
HETATM   18  C   UNL     1      -8.215   9.360  70.542  1.00  0.00    -0.221 C  
HETATM   19  C   UNL     1      -9.832   9.410  69.614  1.00  0.00    -0.205 C  
HETATM   20  C   UNL     1      -7.590   5.906  68.812  1.00  0.00    -0.090 C  
HETATM   21  O   UNL     1      -8.686   5.808  71.165  1.00  0.00    -0.132 OA 
HETATM   22  C   UNL     1      -7.415   7.915  70.823  1.00  0.00    -0.072 C  
HETATM   23  C   UNL     1     -10.274   5.096  66.276  1.00  0.00    -0.253 C  
HETATM   24  C   UNL     1     -11.008   8.328  69.742  1.00  0.00    -0.132 C  
ENDROOT
BRANCH   2  25
HETATM   25  O   UNL     1      -8.664   9.376  65.870  1.00  0.00    -0.140 OA 
BRANCH  25  26
HETATM   26  C   UNL     1      -9.397   9.834  64.706  1.00  0.00    -0.265 C  
HETATM   27  O   UNL     1      -8.962   9.518  63.598  1.00  0.00    -0.231 OA 
BRANCH  26  28
HETATM   28  C   UNL     1     -10.573  11.005  64.687  1.00  0.00    -0.369 A  
HETATM   29  C   UNL     1     -12.073  12.792  63.662  1.00  0.00    -0.624 A  
HETATM   30  C   UNL     1     -10.968  11.579  65.911  1.00  0.00    -0.301 A  
HETATM   31  C   UNL     1     -11.085  11.764  63.577  1.00  0.00    -0.503 A  
HETATM   32  C   UNL     1     -11.904  12.663  66.015  1.00  0.00    -0.492 A  
HETATM   33  C   UNL     1     -12.495  13.237  64.897  1.00  0.00    -0.465 A  
ENDBRANCH  26  28
ENDBRANCH  25  26
ENDBRANCH   2  25
BRANCH   8  34
HETATM   34  O   UNL     1      -6.602  12.355  69.167  1.00  0.00    -0.093 OA 
BRANCH  34  35
HETATM   35  C   UNL     1      -6.691  13.289  68.162  1.00  0.00    -0.114 C  
HETATM   36  O   UNL     1      -5.975  13.217  67.160  1.00  0.00    -0.318 OA 
BRANCH  35  37
HETATM   37  C   UNL     1      -7.547  14.584  68.401  1.00  0.00    -0.122 C  
HETATM   38  H   UNL     1      -7.576  16.020  69.753  1.00  0.00     0.000 HD 
HETATM   39  O   UNL     1      -7.058  15.236  69.608  1.00  0.00    -0.179 OA 
BRANCH  37  40
HETATM   40  C   UNL     1      -9.157  14.735  68.303  1.00  0.00    -0.183 C  
BRANCH  40  41
HETATM   41  C   UNL     1      -9.474  16.183  67.784  1.00  0.00    -0.217 A  
HETATM   42  C   UNL     1      -9.806  16.393  66.441  1.00  0.00    -0.312 A  
HETATM   43  C   UNL     1      -9.620  17.275  68.673  1.00  0.00    -0.284 A  
HETATM   44  C   UNL     1     -10.066  18.550  68.244  1.00  0.00    -0.424 A  
HETATM   45  C   UNL     1     -10.240  17.682  66.015  1.00  0.00    -0.301 A  
HETATM   46  C   UNL     1     -10.359  18.726  66.881  1.00  0.00    -0.456 A  
ENDBRANCH  40  41
BRANCH  40  47
HETATM   47  N   UNL     1     -10.161  14.229  69.394  1.00  0.00    -0.428 N  
HETATM   48  C   UNL     1     -11.584  14.261  69.425  1.00  0.00    -0.306 C  
HETATM   49  H   UNL     1      -9.725  13.807  70.214  1.00  0.00     0.000 HD 
HETATM   50  O   UNL     1     -12.258  14.540  68.444  1.00  0.00    -0.251 OA 
BRANCH  48  51
HETATM   51  O   UNL     1     -12.150  13.958  70.684  1.00  0.00    -0.332 OA 
HETATM   52  C   UNL     1     -12.767  14.932  71.704  1.00  0.00    -0.330 C  
HETATM   53  C   UNL     1     -11.899  16.146  72.083  1.00  0.00    -0.626 C  
HETATM   54  C   UNL     1     -13.045  14.228  73.079  1.00  0.00    -0.526 C  
HETATM   55  C   UNL     1     -14.138  15.439  71.215  1.00  0.00    -0.463 C  
ENDBRANCH  48  51
ENDBRANCH  40  47
ENDBRANCH  37  40
ENDBRANCH  35  37
ENDBRANCH  34  35
ENDBRANCH   8  34
BRANCH  22  56
HETATM   56  O   UNL     1      -6.553   7.991  71.981  1.00  0.00    -0.052 OA 
HETATM   57  C   UNL     1      -7.249   8.192  73.232  1.00  0.00    -0.127 C  
ENDBRANCH  22  56
BRANCH  11  58
HETATM   58  O   UNL     1      -9.019   3.836  69.318  1.00  0.00    -0.090 OA 
HETATM   59  C   UNL     1      -8.904   2.547  69.943  1.00  0.00    -0.085 C  
ENDBRANCH  11  58
BRANCH   5  60
HETATM   60  O   UNL     1      -8.375   6.205  64.967  1.00  0.00    -0.142 OA 
BRANCH  60  61
HETATM   61  C   UNL     1      -7.118   6.076  64.532  1.00  0.00    -0.056 C  
HETATM   62  C   UNL     1      -7.126   5.340  63.218  1.00  0.00    -0.043 C  
HETATM   63  O   UNL     1      -6.068   6.519  65.014  1.00  0.00    -0.035 OA 
ENDBRANCH  60  61
ENDBRANCH   5  60
TORSDOF 14
ENDMDL
MODEL        3
REMARK 921   NORMALIZED FREE ENERGY PREDICTED BY IDOCK:   -7.51 KCAL/MOL
REMARK 922        TOTAL FREE ENERGY PREDICTED BY IDOCK:  -16.99 KCAL/MOL
REMARK 923 INTER-LIGAND FREE ENERGY PREDICTED BY IDOCK:  -12.25 KCAL/MOL
REMARK 924 INTRA-LIGAND FREE ENERGY PREDICTED BY IDOCK:   -4.74 KCAL/MOL
REMARK 927      BINDING AFFINITY PREDICTED BY RF-SCORE:    0.00 PKD
ROOT
HETATM    1  C   UNL     1      -7.721   6.657  70.182  1.00  0.00    -0.102 C  
HETATM    2  C   UNL     1      -7.096   8.224  69.228  1.00  0.00    -0.060 C  
HETATM    3  C   UNL     1      -6.073   8.328  65.698  1.00  0.00    -0.045 C  
HETATM    4  C   UNL     1      -7.468   8.076  67.717  1.00  0.00    -0.094 C  
HETATM    5  C   UNL     1      -7.283   6.632  71.680  1.00  0.00    -0.085 C  
HETATM    6  O   UNL     1      -8.215   6.998  68.170  1.00  0.00    -0.118 OA 
HETATM    7  C   UNL     1      -8.326   9.287  67.081  1.00  0.00    -0.124 C  
HETATM    8  C   UNL     1      -9.084   9.081  65.720  1.00  0.00    -0.219 C  
HETATM    9  C   UNL     1      -8.702   4.610  68.105  1.00  0.00    -0.103 C  
HETATM   10  H   UNL     1      -8.442   6.908  67.251  1.00  0.00     0.000 HD 
HETATM   11  C   UNL     1      -8.590   4.005  70.679  1.00  0.00    -0.071 C  
HETATM   12  C   UNL     1      -8.693   4.489  72.123  1.00  0.00    -0.124 C  
HETATM   13  C   UNL     1     -10.439   5.295  69.832  1.00  0.00    -0.351 C  
HETATM   14  C   UNL     1      -9.599   7.758  66.081  1.00  0.00    -0.104 C  
HETATM   15  C   UNL     1      -7.511   5.333  72.528  1.00  0.00    -0.096 C  
HETATM   16  C   UNL     1     -10.712   8.067  67.236  1.00  0.00    -0.280 C  
HETATM   17  O   UNL     1      -6.195   4.831  72.206  1.00  0.00    -0.020 OA 
HETATM   18  C   UNL     1      -8.668   6.694  66.066  1.00  0.00    -0.155 C  
HETATM   19  C   UNL     1      -6.943   7.256  66.496  1.00  0.00    -0.073 C  
HETATM   20  C   UNL     1      -8.851   5.233  69.692  1.00  0.00    -0.126 C  
HETATM   21  O   UNL     1      -8.091   3.574  67.843  1.00  0.00    -0.079 OA 
HETATM   22  C   UNL     1      -9.418   5.456  66.910  1.00  0.00    -0.135 C  
HETATM   23  C   UNL     1      -5.797   6.137  71.729  1.00  0.00    -0.032 C  
HETATM   24  C   UNL     1      -5.737   6.295  66.936  1.00  0.00    -0.016 C  
ENDROOT
BRANCH   2  25
HETATM   25  O   UNL     1      -7.572   9.724  69.479  1.00  0.00    -0.089 OA 
BRANCH  25  26
HETATM   26  C   UNL     1      -6.720  10.783  69.984  1.00  0.00    -0.149 C  
HETATM   27  O   UNL     1      -6.283  10.665  71.130  1.00  0.00    -0.344 OA 
BRANCH  26  28
HETATM   28  C   UNL     1      -6.526  12.289  69.314  1.00  0.00    -0.109 A  
HETATM   29  C   UNL     1      -5.775  14.721  69.215  1.00  0.00    -0.097 A  
HETATM   30  C   UNL     1      -7.331  12.640  68.212  1.00  0.00    -0.116 A  
HETATM   31  C   UNL     1      -5.854  13.443  69.847  1.00  0.00    -0.127 A  
HETATM   32  C   UNL     1      -7.323  13.943  67.607  1.00  0.00    -0.186 A  
HETATM   33  C   UNL     1      -6.511  14.969  68.075  1.00  0.00    -0.159 A  
ENDBRANCH  26  28
ENDBRANCH  25  26
ENDBRANCH   2  25
BRANCH   8  34
HETATM   34  O   UNL     1     -10.239   9.937  65.375  1.00  0.00    -0.273 OA 
BRANCH  34  35
HETATM   35  C   UNL     1     -10.108  11.283  65.627  1.00  0.00    -0.247 C  
HETATM   36  O   UNL     1      -9.104  11.903  65.267  1.00  0.00     0.002 OA 
BRANCH  35  37
HETATM   37  C   UNL     1     -11.141  11.983  66.582  1.00  0.00    -0.310 C  
HETATM   38  H   UNL     1     -12.970  12.693  66.393  1.00  0.00     0.000 HD 
HETATM   39  O   UNL     1     -12.346  12.270  65.815  1.00  0.00    -0.622 OA 
BRANCH  37  40
HETATM   40  C   UNL     1     -10.856  13.178  67.638  1.00  0.00    -0.254 C  
BRANCH  40  41
HETATM   41  C   UNL     1     -11.435  12.738  69.030  1.00  0.00    -0.360 A  
HETATM   42  C   UNL     1     -12.004  13.686  69.888  1.00  0.00    -0.415 A  
HETATM   43  C   UNL     1     -11.574  11.373  69.379  1.00  0.00    -0.391 A  
HETATM   44  C   UNL     1     -12.243  10.953  70.556  1.00  0.00    -0.459 A  
HETATM   45  C   UNL     1     -12.662  13.257  71.077  1.00  0.00    -0.374 A  
HETATM   46  C   UNL     1     -12.772  11.940  71.406  1.00  0.00    -0.395 A  
ENDBRANCH  40  41
BRANCH  40  47
HETATM   47  N   UNL     1     -11.063  14.700  67.328  1.00  0.00    -0.317 N  
HETATM   48  C   UNL     1     -10.584  15.496  66.250  1.00  0.00    -0.307 C  
HETATM   49  H   UNL     1     -11.633  15.201  68.009  1.00  0.00     0.000 HD 
HETATM   50  O   UNL     1     -10.067  15.012  65.253  1.00  0.00    -0.354 OA 
BRANCH  48  51
HETATM   51  O   UNL     1     -10.743  16.888  66.433  1.00  0.00    -0.220 OA 
HETATM   52  C   UNL     1      -9.835  17.849  67.221  1.00  0.00    -0.309 C  
HETATM   53  C   UNL     1      -9.497  17.424  68.662  1.00  0.00    -0.280 C  
HETATM   54  C   UNL     1     -10.501  19.260  67.394  1.00  0.00    -0.564 C  
HETATM   55  C   UNL     1      -8.520  18.105  66.459  1.00  0.00    -0.283 C  
ENDBRANCH  48  51
ENDBRANCH  40  47
ENDBRANCH  37  40
ENDBRANCH  35  37
ENDBRANCH  34  35
ENDBRANCH   8  34
BRANCH  22  56
HETATM   56  O   UNL     1     -10.436   4.803  66.118  1.00  0.00    -0.289 OA 
HETATM   57  C   UNL     1      -9.952   4.210  64.893  1.00  0.00    -0.199 C  
ENDBRANCH  22  56
BRANCH  11  58
HETATM   58  O   UNL     1      -7.393   3.265  70.455  1.00  0.00    -0.040 OA 
HETATM   59  C   UNL     1      -7.521   1.888  70.847  1.00  0.00    -0.033 C  
ENDBRANCH  11  58
BRANCH   5  60
HETATM   60  O   UNL     1      -7.554   7.923  72.256  1.00  0.00    -0.084 OA 
BRANCH  60  61
HETATM   61  C   UNL     1      -8.671   8.130  72.959  1.00  0.00    -0.243 C  
HETATM   62  C   UNL     1      -9.758   8.596  72.027  1.00  0.00    -0.391 C  
HETATM   63  O   UNL     1      -8.896   7.928  74.158  1.00  0.00    -0.258 OA 
ENDBRANCH  60  61
ENDBRANCH   5  60
TORSDOF 14
ENDMDL
MODEL        4
REMARK 921   NORMALIZED FREE ENERGY PREDICTED BY IDOCK:   -7.21 KCAL/MOL
REMARK 922        TOTAL FREE ENERGY PREDICTED BY IDOCK:  -16.44 KCAL/MOL
REMARK 923 INTER-LIGAND FREE ENERGY PREDICTED BY IDOCK:  -12.32 KCAL/MOL
REMARK 924 INTRA-LIGAND FREE ENERGY PREDICTED BY IDOCK:   -4.12 KCAL/MOL
REMARK 927      BINDING AFFINITY PREDICTED BY RF-SCORE:    0.00 PKD
ROOT
HETATM    1  C   UNL     1      -9.172   4.891  70.131  1.00  0.00    -0.185 C  
HETATM    2  C   UNL     1     -10.902   5.647  69.691  1.00  0.00    -0.295 C  
HETATM    3  C   UNL     1     -13.278   7.118  72.079  1.00  0.00    -0.170 C  
HETATM    4  C   UNL     1     -11.244   6.763  70.730  1.00  0.00    -0.304 C  
HETATM    5  C   UNL     1      -8.788   3.669  69.239  1.00  0.00    -0.101 C  
HETATM    6  O   UNL     1      -9.923   6.587  71.117  1.00  0.00    -0.182 OA 
HETATM    7  C   UNL     1     -11.590   8.215  70.115  1.00  0.00     0.095 C  
HETATM    8  C   UNL     1     -11.561   9.486  71.040  1.00  0.00    -0.344 C  
HETATM    9  C   UNL     1      -8.304   6.033  72.853  1.00  0.00    -0.117 C  
HETATM   10  H   UNL     1     -10.131   7.266  71.749  1.00  0.00     0.000 HD 
HETATM   11  C   UNL     1      -6.885   4.159  71.637  1.00  0.00    -0.033 C  
HETATM   12  C   UNL     1      -6.423   3.544  70.318  1.00  0.00    -0.032 C  
HETATM   13  C   UNL     1      -6.673   6.457  70.948  1.00  0.00    -0.058 C  
HETATM   14  C   UNL     1     -10.311   9.109  71.704  1.00  0.00    -0.388 C  
HETATM   15  C   UNL     1      -7.532   2.807  69.612  1.00  0.00    -0.044 C  
HETATM   16  C   UNL     1      -9.174   9.300  70.548  1.00  0.00    -0.311 C  
HETATM   17  O   UNL     1      -8.331   1.895  70.398  1.00  0.00    -0.041 OA 
HETATM   18  C   UNL     1     -10.391   8.058  72.646  1.00  0.00    -0.398 C  
HETATM   19  C   UNL     1     -11.718   6.820  72.216  1.00  0.00    -0.300 C  
HETATM   20  C   UNL     1      -7.820   5.417  71.331  1.00  0.00    -0.110 C  
HETATM   21  O   UNL     1      -8.285   5.364  73.886  1.00  0.00    -0.110 OA 
HETATM   22  C   UNL     1      -8.804   7.584  72.896  1.00  0.00    -0.143 C  
HETATM   23  C   UNL     1      -9.541   2.417  69.804  1.00  0.00     0.025 C  
HETATM   24  C   UNL     1     -11.841   5.343  72.828  1.00  0.00    -0.162 C  
ENDROOT
BRANCH   2  25
HETATM   25  O   UNL     1     -11.274   6.409  68.341  1.00  0.00    -0.320 OA 
BRANCH  25  26
HETATM   26  C   UNL     1     -10.513   6.319  67.110  1.00  0.00    -0.263 C  
HETATM   27  O   UNL     1     -10.779   5.392  66.343  1.00  0.00    -0.297 OA 
BRANCH  26  28
HETATM   28  C   UNL     1      -9.107   7.130  66.765  1.00  0.00    -0.169 A  
HETATM   29  C   UNL     1      -7.224   8.017  65.296  1.00  0.00    -0.064 A  
HETATM   30  C   UNL     1      -8.233   7.437  67.826  1.00  0.00    -0.119 A  
HETATM   31  C   UNL     1      -8.466   7.340  65.494  1.00  0.00    -0.119 A  
HETATM   32  C   UNL     1      -6.947   8.050  67.643  1.00  0.00    -0.075 A  
HETATM   33  C   UNL     1      -6.462   8.386  66.385  1.00  0.00    -0.058 A  
ENDBRANCH  26  28
ENDBRANCH  25  26
ENDBRANCH   2  25
BRANCH   8  34
HETATM   34  O   UNL     1     -11.373  10.829  70.451  1.00  0.00    -0.301 OA 
BRANCH  34  35
HETATM   35  C   UNL     1     -12.264  11.804  70.835  1.00  0.00    -0.276 C  
HETATM   36  O   UNL     1     -13.283  11.520  71.469  1.00  0.00    -0.372 OA 
BRANCH  35  37
HETATM   37  C   UNL     1     -12.097  13.257  70.261  1.00  0.00    -0.335 C  
HETATM   38  H   UNL     1     -12.992  14.990  70.545  1.00  0.00     0.000 HD 
HETATM   39  O   UNL     1     -13.093  14.112  70.892  1.00  0.00    -0.334 OA 
BRANCH  37  40
HETATM   40  C   UNL     1     -11.894  13.689  68.713  1.00  0.00    -0.360 C  
BRANCH  40  41
HETATM   41  C   UNL     1     -10.957  12.627  68.035  1.00  0.00    -0.266 A  
HETATM   42  C   UNL     1     -11.475  11.726  67.098  1.00  0.00    -0.366 A  
HETATM   43  C   UNL     1      -9.552  12.665  68.200  1.00  0.00    -0.219 A  
HETATM   44  C   UNL     1      -8.678  11.823  67.469  1.00  0.00    -0.159 A  
HETATM   45  C   UNL     1     -10.591  10.873  66.377  1.00  0.00    -0.289 A  
HETATM   46  C   UNL     1      -9.241  10.911  66.560  1.00  0.00    -0.189 A  
ENDBRANCH  40  41
BRANCH  40  47
HETATM   47  N   UNL     1     -11.627  15.156  68.232  1.00  0.00    -0.336 N  
HETATM   48  C   UNL     1     -10.821  16.182  68.801  1.00  0.00    -0.310 C  
HETATM   49  H   UNL     1     -12.108  15.419  67.372  1.00  0.00     0.000 HD 
HETATM   50  O   UNL     1     -10.026  15.969  69.706  1.00  0.00    -0.258 OA 
BRANCH  48  51
HETATM   51  O   UNL     1     -11.025  17.465  68.245  1.00  0.00    -0.317 OA 
HETATM   52  C   UNL     1     -10.177  18.179  67.176  1.00  0.00    -0.367 C  
HETATM   53  C   UNL     1      -8.663  18.240  67.451  1.00  0.00    -0.257 C  
HETATM   54  C   UNL     1     -10.590  19.686  67.025  1.00  0.00    -0.602 C  
HETATM   55  C   UNL     1     -10.404  17.547  65.789  1.00  0.00    -0.217 C  
ENDBRANCH  48  51
ENDBRANCH  40  47
ENDBRANCH  37  40
ENDBRANCH  35  37
ENDBRANCH  34  35
ENDBRANCH   8  34
BRANCH  22  56
HETATM   56  O   UNL     1      -8.089   8.515  73.740  1.00  0.00    -0.378 OA 
HETATM   57  C   UNL     1      -6.653   8.353  73.726  1.00  0.00    -0.115 C  
ENDBRANCH  22  56
BRANCH  11  58
HETATM   58  O   UNL     1      -7.424   3.176  72.517  1.00  0.00    -0.049 OA 
HETATM   59  C   UNL     1      -6.402   2.485  73.254  1.00  0.00    -0.013 C  
ENDBRANCH  11  58
BRANCH   5  60
HETATM   60  O   UNL     1      -9.043   4.011  67.864  1.00  0.00    -0.120 OA 
BRANCH  60  61
HETATM   61  C   UNL     1      -8.605   3.224  66.878  1.00  0.00    -0.115 C  
HETATM   62  C   UNL     1      -7.404   3.865  66.233  1.00  0.00    -0.076 C  
HETATM   63  O   UNL     1      -9.001   2.105  66.528  1.00  0.00    -0.128 OA 
ENDBRANCH  60  61
ENDBRANCH   5  60
TORSDOF 14
ENDMDL
MODEL        5
REMARK 921   NORMALIZED FREE ENERGY PREDICTED BY IDOCK:   -7.12 KCAL/MOL
REMARK 922        TOTAL FREE ENERGY PREDICTED BY IDOCK:  -16.27 KCAL/MOL
REMARK 923 INTER-LIGAND FREE ENERGY PREDICTED BY IDOCK:  -12.60 KCAL/MOL
REMARK 924 INTRA-LIGAND FREE ENERGY PREDICTED BY IDOCK:   -3.67 KCAL/MOL
REMARK 927      BINDING AFFINITY PREDICTED BY RF-SCORE:    0.00 PKD
ROOT
HETATM    1  C   UNL     1      -9.005   6.358  69.919  1.00  0.00    -0.142 C  
HETATM    2  C   UNL     1     -10.625   7.041  69.102  1.00  0.00    -0.219 C  
HETATM    3  C   UNL     1     -12.279  10.218  69.932  1.00  0.00    -0.130 C  
HETATM    4  C   UNL     1     -10.590   8.603  69.142  1.00  0.00    -0.178 C  
HETATM    5  C   UNL     1      -8.993   4.804  70.059  1.00  0.00    -0.095 C  
HETATM    6  O   UNL     1      -9.274   8.406  69.538  1.00  0.00    -0.152 OA 
HETATM    7  C   UNL     1     -10.773   9.348  67.721  1.00  0.00    -0.290 C  
HETATM    8  C   UNL     1     -10.370  10.860  67.570  1.00  0.00    -0.202 C  
HETATM    9  C   UNL     1      -7.512   8.729  71.192  1.00  0.00    -0.101 C  
HETATM   10  H   UNL     1      -9.253   9.356  69.562  1.00  0.00     0.000 HD 
HETATM   11  C   UNL     1      -6.664   6.242  71.514  1.00  0.00    -0.056 C  
HETATM   12  C   UNL     1      -6.541   4.837  70.931  1.00  0.00    -0.031 C  
HETATM   13  C   UNL     1      -6.170   7.421  69.472  1.00  0.00    -0.031 C  
HETATM   14  C   UNL     1      -9.113  10.712  68.307  1.00  0.00    -0.153 C  
HETATM   15  C   UNL     1      -7.863   4.114  70.900  1.00  0.00    -0.059 C  
HETATM   16  C   UNL     1      -8.166   9.835  67.307  1.00  0.00    -0.117 C  
HETATM   17  O   UNL     1      -8.668   4.147  72.100  1.00  0.00    -0.104 OA 
HETATM   18  C   UNL     1      -9.219  10.572  69.711  1.00  0.00     0.112 C  
HETATM   19  C   UNL     1     -10.794   9.714  70.220  1.00  0.00    -0.339 C  
HETATM   20  C   UNL     1      -7.402   7.187  70.458  1.00  0.00    -0.075 C  
HETATM   21  O   UNL     1      -7.441   8.902  72.408  1.00  0.00    -0.342 OA 
HETATM   22  C   UNL     1      -7.720  10.005  70.199  1.00  0.00    -0.143 C  
HETATM   23  C   UNL     1      -9.850   4.437  71.319  1.00  0.00    -0.190 C  
HETATM   24  C   UNL     1     -11.071   9.062  71.659  1.00  0.00    -0.433 C  
ENDROOT
BRANCH   2  25
HETATM   25  O   UNL     1     -11.075   6.818  67.590  1.00  0.00    -0.274 OA 
BRANCH  25  26
HETATM   26  C   UNL     1     -10.273   6.149  66.584  1.00  0.00    -0.178 C  
HETATM   27  O   UNL     1     -10.520   4.964  66.355  1.00  0.00    -0.283 OA 
BRANCH  26  28
HETATM   28  C   UNL     1      -8.850   6.704  65.935  1.00  0.00    -0.126 A  
HETATM   29  C   UNL     1      -7.347   7.789  64.187  1.00  0.00    -0.090 A  
HETATM   30  C   UNL     1      -7.638   6.240  66.483  1.00  0.00    -0.094 A  
HETATM   31  C   UNL     1      -8.622   7.385  64.689  1.00  0.00     0.236 A  
HETATM   32  C   UNL     1      -6.347   6.573  65.950  1.00  0.00    -0.039 A  
HETATM   33  C   UNL     1      -6.197   7.386  64.833  1.00  0.00    -0.038 A  
ENDBRANCH  26  28
ENDBRANCH  25  26
ENDBRANCH   2  25
BRANCH   8  34
HETATM   34  O   UNL     1     -10.050  11.414  66.237  1.00  0.00    -0.211 OA 
BRANCH  34  35
HETATM   35  C   UNL     1     -10.760  12.523  65.841  1.00  0.00    -0.264 C  
HETATM   36  O   UNL     1     -10.806  12.859  64.655  1.00  0.00    -0.306 OA 
BRANCH  35  37
HETATM   37  C   UNL     1     -11.325  13.496  66.937  1.00  0.00    -0.326 C  
HETATM   38  H   UNL     1     -12.830  14.765  67.047  1.00  0.00     0.000 HD 
HETATM   39  O   UNL     1     -12.489  14.177  66.384  1.00  0.00    -0.461 OA 
BRANCH  37  40
HETATM   40  C   UNL     1     -10.488  14.509  67.884  1.00  0.00    -0.242 C  
BRANCH  40  41
HETATM   41  C   UNL     1     -11.292  14.695  69.220  1.00  0.00    -0.313 A  
HETATM   42  C   UNL     1     -12.049  13.638  69.739  1.00  0.00    -0.396 A  
HETATM   43  C   UNL     1     -11.133  15.845  70.028  1.00  0.00    -0.356 A  
HETATM   44  C   UNL     1     -11.721  15.959  71.313  1.00  0.00    -0.504 A  
HETATM   45  C   UNL     1     -12.649  13.766  71.025  1.00  0.00    -0.446 A  
HETATM   46  C   UNL     1     -12.499  14.887  71.784  1.00  0.00    -0.405 A  
ENDBRANCH  40  41
BRANCH  40  47
HETATM   47  N   UNL     1      -9.799  15.824  67.382  1.00  0.00    -0.231 N  
HETATM   48  C   UNL     1      -9.711  16.379  66.074  1.00  0.00    -0.326 C  
HETATM   49  H   UNL     1      -9.340  16.371  68.110  1.00  0.00     0.000 HD 
HETATM   50  O   UNL     1     -10.375  15.961  65.136  1.00  0.00    -0.473 OA 
BRANCH  48  51
HETATM   51  O   UNL     1      -8.786  17.439  65.947  1.00  0.00    -0.522 OA 
HETATM   52  C   UNL     1      -8.910  18.874  66.492  1.00  0.00    -0.323 C  
HETATM   53  C   UNL     1     -10.217  19.612  66.147  1.00  0.00    -0.604 C  
HETATM   54  C   UNL     1      -7.790  19.810  65.914  1.00  0.00    -0.309 C  
HETATM   55  C   UNL     1      -8.719  18.896  68.021  1.00  0.00    -0.330 C  
ENDBRANCH  48  51
ENDBRANCH  40  47
ENDBRANCH  37  40
ENDBRANCH  35  37
ENDBRANCH  34  35
ENDBRANCH   8  34
BRANCH  22  56
HETATM   56  O   UNL     1      -6.723  11.053  70.207  1.00  0.00    -0.230 OA 
HETATM   57  C   UNL     1      -5.358  10.579  70.190  1.00  0.00    -0.046 C  
ENDBRANCH  22  56
BRANCH  11  58
HETATM   58  O   UNL     1      -7.213   6.223  72.828  1.00  0.00    -0.085 OA 
HETATM   59  C   UNL     1      -6.214   5.990  73.834  1.00  0.00    -0.065 C  
ENDBRANCH  11  58
BRANCH   5  60
HETATM   60  O   UNL     1      -9.408   4.231  68.806  1.00  0.00    -0.131 OA 
BRANCH  60  61
HETATM   61  C   UNL     1      -8.789   3.152  68.316  1.00  0.00    -0.121 C  
HETATM   62  C   UNL     1      -9.653   1.941  68.553  1.00  0.00    -0.151 C  
HETATM   63  O   UNL     1      -7.726   3.070  67.690  1.00  0.00    -0.064 OA 
ENDBRANCH  60  61
ENDBRANCH   5  60
TORSDOF 14
ENDMDL
MODEL        6
REMARK 921   NORMALIZED FREE ENERGY PREDICTED BY IDOCK:   -6.85 KCAL/MOL
REMARK 922        TOTAL FREE ENERGY PREDICTED BY IDOCK:  -15.77 KCAL/MOL
REMARK 923 INTER-LIGAND FREE ENERGY PREDICTED BY IDOCK:  -11.85 KCAL/MOL
REMARK 924 INTRA-LIGAND FREE ENERGY PREDICTED BY IDOCK:   -3.92 KCAL/MOL
REMARK 927      BINDING AFFINITY PREDICTED BY RF-SCORE:    0.00 PKD
ROOT
HETATM    1  C   UNL     1      -8.505   6.480  67.117  1.00  0.00    -0.112 C  
HETATM    2  C   UNL     1      -9.281   8.228  66.798  1.00  0.00    -0.169 C  
HETATM    3  C   UNL     1     -10.916  10.348  69.317  1.00  0.00    -0.287 C  
HETATM    4  C   UNL     1      -9.185   9.070  68.111  1.00  0.00    -0.136 C  
HETATM    5  C   UNL     1      -8.670   5.503  65.911  1.00  0.00    -0.145 C  
HETATM    6  O   UNL     1      -8.375   8.025  68.534  1.00  0.00    -0.125 OA 
HETATM    7  C   UNL     1      -8.447  10.499  67.979  1.00  0.00    -0.120 C  
HETATM    8  C   UNL     1      -7.945  11.245  69.268  1.00  0.00     0.086 C  
HETATM    9  C   UNL     1      -7.922   6.237  70.128  1.00  0.00    -0.108 C  
HETATM   10  H   UNL     1      -8.317   8.537  69.333  1.00  0.00     0.000 HD 
HETATM   11  C   UNL     1      -7.577   4.183  68.495  1.00  0.00    -0.063 C  
HETATM   12  C   UNL     1      -7.215   3.697  67.094  1.00  0.00    -0.063 C  
HETATM   13  C   UNL     1      -5.901   5.909  68.619  1.00  0.00    -0.016 C  
HETATM   14  C   UNL     1      -7.381  10.040  69.879  1.00  0.00    -0.163 C  
HETATM   15  C   UNL     1      -8.301   3.989  66.090  1.00  0.00    -0.108 C  
HETATM   16  C   UNL     1      -6.079   9.697  68.956  1.00  0.00    -0.041 C  
HETATM   17  O   UNL     1      -9.657   3.652  66.459  1.00  0.00    -0.194 OA 
HETATM   18  C   UNL     1      -8.306   9.113  70.414  1.00  0.00    -0.206 C  
HETATM   19  C   UNL     1      -9.923   9.112  69.486  1.00  0.00    -0.193 C  
HETATM   20  C   UNL     1      -7.488   5.778  68.538  1.00  0.00    -0.085 C  
HETATM   21  O   UNL     1      -8.576   5.517  70.882  1.00  0.00    -0.124 OA 
HETATM   22  C   UNL     1      -7.425   7.705  70.633  1.00  0.00    -0.072 C  
HETATM   23  C   UNL     1     -10.126   4.927  65.965  1.00  0.00    -0.239 C  
HETATM   24  C   UNL     1     -11.037   7.961  69.566  1.00  0.00     0.014 C  
ENDROOT
BRANCH   2  25
HETATM   25  O   UNL     1      -8.759   9.305  65.746  1.00  0.00    -0.139 OA 
BRANCH  25  26
HETATM   26  C   UNL     1      -9.554   9.846  64.661  1.00  0.00    -0.252 C  
HETATM   27  O   UNL     1      -9.273   9.489  63.516  1.00  0.00    -0.197 OA 
BRANCH  26  28
HETATM   28  C   UNL     1     -10.592  11.137  64.755  1.00  0.00    -0.371 A  
HETATM   29  C   UNL     1     -12.072  12.866  65.902  1.00  0.00    -0.503 A  
HETATM   30  C   UNL     1     -11.283  11.528  63.590  1.00  0.00    -0.451 A  
HETATM   31  C   UNL     1     -11.143  11.780  65.918  1.00  0.00    -0.355 A  
HETATM   32  C   UNL     1     -12.274  12.566  63.566  1.00  0.00    -0.652 A  
HETATM   33  C   UNL     1     -12.635  13.269  64.709  1.00  0.00    -0.398 A  
ENDBRANCH  26  28
ENDBRANCH  25  26
ENDBRANCH   2  25
BRANCH   8  34
HETATM   34  O   UNL     1      -6.865  12.251  69.171  1.00  0.00    -0.102 OA 
BRANCH  34  35
HETATM   35  C   UNL     1      -7.010  13.224  68.211  1.00  0.00    -0.107 C  
HETATM   36  O   UNL     1      -6.049  13.598  67.534  1.00  0.00    -0.294 OA 
BRANCH  35  37
HETATM   37  C   UNL     1      -8.359  14.025  68.137  1.00  0.00    -0.164 C  
HETATM   38  H   UNL     1      -9.495  14.733  66.688  1.00  0.00     0.000 HD 
HETATM   39  O   UNL     1      -8.678  14.249  66.733  1.00  0.00    -0.211 OA 
BRANCH  37  40
HETATM   40  C   UNL     1      -8.791  15.315  69.016  1.00  0.00    -0.226 C  
BRANCH  40  41
HETATM   41  C   UNL     1     -10.287  15.122  69.452  1.00  0.00    -0.259 A  
HETATM   42  C   UNL     1     -10.966  13.939  69.136  1.00  0.00    -0.253 A  
HETATM   43  C   UNL     1     -10.929  16.033  70.324  1.00  0.00    -0.360 A  
HETATM   44  C   UNL     1     -12.219  15.791  70.860  1.00  0.00    -0.458 A  
HETATM   45  C   UNL     1     -12.268  13.711  69.667  1.00  0.00    -0.326 A  
HETATM   46  C   UNL     1     -12.879  14.606  70.492  1.00  0.00    -0.371 A  
ENDBRANCH  40  41
BRANCH  40  47
HETATM   47  N   UNL     1      -8.433  16.796  68.648  1.00  0.00    -0.250 N  
HETATM   48  C   UNL     1      -7.372  17.321  67.858  1.00  0.00    -0.184 C  
HETATM   49  H   UNL     1      -9.063  17.497  69.038  1.00  0.00     0.000 HD 
HETATM   50  O   UNL     1      -6.661  16.614  67.158  1.00  0.00    -0.152 OA 
BRANCH  48  51
HETATM   51  O   UNL     1      -7.201  18.720  67.960  1.00  0.00    -0.235 OA 
HETATM   52  C   UNL     1      -7.611  19.800  66.941  1.00  0.00    -0.260 C  
HETATM   53  C   UNL     1      -7.135  19.573  65.494  1.00  0.00    -0.262 C  
HETATM   54  C   UNL     1      -7.012  21.202  67.315  1.00  0.00    -0.374 C  
HETATM   55  C   UNL     1      -9.140  19.992  66.935  1.00  0.00    -0.467 C  
ENDBRANCH  48  51
ENDBRANCH  40  47
ENDBRANCH  37  40
ENDBRANCH  35  37
ENDBRANCH  34  35
ENDBRANCH   8  34
BRANCH  22  56
HETATM   56  O   UNL     1      -6.568   7.780  71.795  1.00  0.00    -0.041 OA 
HETATM   57  C   UNL     1      -7.263   8.038  73.036  1.00  0.00    -0.105 C  
ENDBRANCH  22  56
BRANCH  11  58
HETATM   58  O   UNL     1      -8.799   3.611  68.953  1.00  0.00    -0.090 OA 
HETATM   59  C   UNL     1      -8.615   2.293  69.494  1.00  0.00    -0.060 C  
ENDBRANCH  11  58
BRANCH   5  60
HETATM   60  O   UNL     1      -8.293   6.197  64.708  1.00  0.00    -0.135 OA 
BRANCH  60  61
HETATM   61  C   UNL     1      -7.004   6.353  64.390  1.00  0.00    -0.047 C  
HETATM   62  C   UNL     1      -6.902   6.796  62.955  1.00  0.00    -0.050 C  
HETATM   63  O   UNL     1      -5.999   6.252  65.105  1.00  0.00    -0.024 OA 
ENDBRANCH  60  61
ENDBRANCH   5  60
TORSDOF 14
ENDMDL
MODEL        7
REMARK 921   NORMALIZED FREE ENERGY PREDICTED BY IDOCK:   -6.81 KCAL/MOL
REMARK 922        TOTAL FREE ENERGY PREDICTED BY IDOCK:  -15.71 KCAL/MOL
REMARK 923 INTER-LIGAND FREE ENERGY PREDICTED BY IDOCK:  -12.72 KCAL/MOL
REMARK 924 INTRA-LIGAND FREE ENERGY PREDICTED BY IDOCK:   -2.98 KCAL/MOL
REMARK 927      BINDING AFFINITY PREDICTED BY RF-SCORE:    0.00 PKD
ROOT
HETATM    1  C   UNL     1      -8.910   4.613  70.698  1.00  0.00    -0.141 C  
HETATM    2  C   UNL     1     -10.485   5.399  69.885  1.00  0.00    -0.308 C  
HETATM    3  C   UNL     1     -13.003   7.445  71.612  1.00  0.00    -0.409 C  
HETATM    4  C   UNL     1     -10.852   6.706  70.658  1.00  0.00    -0.253 C  
HETATM    5  C   UNL     1      -8.531   3.226  70.092  1.00  0.00    -0.056 C  
HETATM    6  O   UNL     1      -9.618   6.509  71.260  1.00  0.00    -0.166 OA 
HETATM    7  C   UNL     1     -10.972   8.044  69.762  1.00  0.00    -0.138 C  
HETATM    8  C   UNL     1     -10.943   9.456  70.453  1.00  0.00    -0.266 C  
HETATM    9  C   UNL     1      -8.305   6.163  73.286  1.00  0.00    -0.117 C  
HETATM   10  H   UNL     1      -9.841   7.304  71.731  1.00  0.00     0.000 HD 
HETATM   11  C   UNL     1      -6.925   4.003  72.627  1.00  0.00    -0.052 C  
HETATM   12  C   UNL     1      -6.353   3.128  71.515  1.00  0.00    -0.015 C  
HETATM   13  C   UNL     1      -6.402   6.117  71.599  1.00  0.00    -0.045 C  
HETATM   14  C   UNL     1      -9.835   9.117  71.348  1.00  0.00    -0.354 C  
HETATM   15  C   UNL     1      -7.425   2.357  70.787  1.00  0.00    -0.033 C  
HETATM   16  C   UNL     1      -8.541   9.013  70.359  1.00  0.00    -0.215 C  
HETATM   17  O   UNL     1      -8.405   1.662  71.589  1.00  0.00    -0.046 OA 
HETATM   18  C   UNL     1     -10.141   8.262  72.433  1.00  0.00    -0.383 C  
HETATM   19  C   UNL     1     -11.512   7.066  72.027  1.00  0.00    -0.308 C  
HETATM   20  C   UNL     1      -7.685   5.249  71.978  1.00  0.00    -0.100 C  
HETATM   21  O   UNL     1      -8.489   5.694  74.408  1.00  0.00    -0.109 OA 
HETATM   22  C   UNL     1      -8.654   7.728  72.991  1.00  0.00    -0.165 C  
HETATM   23  C   UNL     1      -9.470   2.153  70.743  1.00  0.00    -0.127 C  
HETATM   24  C   UNL     1     -11.858   5.736  72.854  1.00  0.00    -0.063 C  
ENDROOT
BRANCH   2  25
HETATM   25  O   UNL     1     -10.598   5.929  68.386  1.00  0.00    -0.216 OA 
BRANCH  25  26
HETATM   26  C   UNL     1      -9.494   5.984  67.449  1.00  0.00    -0.111 C  
HETATM   27  O   UNL     1      -8.603   6.807  67.665  1.00  0.00    -0.121 OA 
BRANCH  26  28
HETATM   28  C   UNL     1      -9.451   5.288  65.942  1.00  0.00    -0.156 A  
HETATM   29  C   UNL     1     -10.113   3.650  64.107  1.00  0.00    -0.212 A  
HETATM   30  C   UNL     1      -8.330   5.532  65.124  1.00  0.00    -0.146 A  
HETATM   31  C   UNL     1     -10.252   4.219  65.410  1.00  0.00    -0.235 A  
HETATM   32  C   UNL     1      -8.133   4.913  63.843  1.00  0.00    -0.112 A  
HETATM   33  C   UNL     1      -9.047   4.011  63.311  1.00  0.00    -0.121 A  
ENDBRANCH  26  28
ENDBRANCH  25  26
ENDBRANCH   2  25
BRANCH   8  34
HETATM   34  O   UNL     1     -10.549  10.653  69.680  1.00  0.00    -0.241 OA 
BRANCH  34  35
HETATM   35  C   UNL     1     -11.567  11.461  69.229  1.00  0.00    -0.317 C  
HETATM   36  O   UNL     1     -12.712  11.024  69.088  1.00  0.00    -0.277 OA 
BRANCH  35  37
HETATM   37  C   UNL     1     -11.216  12.886  68.669  1.00  0.00    -0.281 C  
HETATM   38  H   UNL     1     -11.140  14.709  69.418  1.00  0.00     0.000 HD 
HETATM   39  O   UNL     1     -11.352  13.847  69.756  1.00  0.00    -0.234 OA 
BRANCH  37  40
HETATM   40  C   UNL     1     -11.710  13.550  67.277  1.00  0.00    -0.383 C  
BRANCH  40  41
HETATM   41  C   UNL     1     -11.348  12.558  66.115  1.00  0.00    -0.388 A  
HETATM   42  C   UNL     1     -12.136  12.508  64.960  1.00  0.00    -0.504 A  
HETATM   43  C   UNL     1     -10.133  11.833  66.110  1.00  0.00    -0.255 A  
HETATM   44  C   UNL     1      -9.712  11.061  64.998  1.00  0.00    -0.303 A  
HETATM   45  C   UNL     1     -11.713  11.719  63.851  1.00  0.00    -0.461 A  
HETATM   46  C   UNL     1     -10.548  11.013  63.870  1.00  0.00    -0.382 A  
ENDBRANCH  40  41
BRANCH  40  47
HETATM   47  N   UNL     1     -11.513  15.057  66.896  1.00  0.00    -0.308 N  
HETATM   48  C   UNL     1     -10.352  15.879  66.953  1.00  0.00    -0.291 C  
HETATM   49  H   UNL     1     -12.351  15.525  66.552  1.00  0.00     0.000 HD 
HETATM   50  O   UNL     1      -9.232  15.425  67.143  1.00  0.00    -0.200 OA 
BRANCH  48  51
HETATM   51  O   UNL     1     -10.602  17.260  66.784  1.00  0.00    -0.286 OA 
HETATM   52  C   UNL     1      -9.852  18.442  67.425  1.00  0.00    -0.313 C  
HETATM   53  C   UNL     1      -9.686  18.382  68.955  1.00  0.00    -0.318 C  
HETATM   54  C   UNL     1     -10.604  19.800  67.185  1.00  0.00    -0.577 C  
HETATM   55  C   UNL     1      -8.463  18.620  66.783  1.00  0.00    -0.292 C  
ENDBRANCH  48  51
ENDBRANCH  40  47
ENDBRANCH  37  40
ENDBRANCH  35  37
ENDBRANCH  34  35
ENDBRANCH   8  34
BRANCH  22  56
HETATM   56  O   UNL     1      -7.971   8.743  73.762  1.00  0.00    -0.396 OA 
HETATM   57  C   UNL     1      -6.550   8.524  73.912  1.00  0.00    -0.094 C  
ENDBRANCH  22  56
BRANCH  11  58
HETATM   58  O   UNL     1      -7.669   3.238  73.571  1.00  0.00    -0.062 OA 
HETATM   59  C   UNL     1      -6.825   2.615  74.554  1.00  0.00    -0.031 C  
ENDBRANCH  11  58
BRANCH   5  60
HETATM   60  O   UNL     1      -8.566   3.330  68.657  1.00  0.00    -0.079 OA 
BRANCH  60  61
HETATM   61  C   UNL     1      -7.445   3.202  67.941  1.00  0.00    -0.054 C  
HETATM   62  C   UNL     1      -7.638   2.114  66.918  1.00  0.00    -0.065 C  
HETATM   63  O   UNL     1      -6.404   3.868  67.982  1.00  0.00    -0.035 OA 
ENDBRANCH  60  61
ENDBRANCH   5  60
TORSDOF 14
ENDMDL
MODEL        8
REMARK 921   NORMALIZED FREE ENERGY PREDICTED BY IDOCK:   -6.57 KCAL/MOL
REMARK 922        TOTAL FREE ENERGY PREDICTED BY IDOCK:  -15.27 KCAL/MOL
REMARK 923 INTER-LIGAND FREE ENERGY PREDICTED BY IDOCK:  -12.06 KCAL/MOL
REMARK 924 INTRA-LIGAND FREE ENERGY PREDICTED BY IDOCK:   -3.21 KCAL/MOL
REMARK 927      BINDING AFFINITY PREDICTED BY RF-SCORE:    0.00 PKD
ROOT
HETATM    1  C   UNL     1      -8.766   4.885  70.171  1.00  0.00    -0.118 C  
HETATM    2  C   UNL     1     -10.304   5.743  69.362  1.00  0.00    -0.262 C  
HETATM    3  C   UNL     1     -12.872   7.678  71.144  1.00  0.00    -0.223 C  
HETATM    4  C   UNL     1     -10.692   6.993  70.217  1.00  0.00    -0.241 C  
HETATM    5  C   UNL     1      -8.373   3.543  69.477  1.00  0.00    -0.055 C  
HETATM    6  O   UNL     1      -9.482   6.740  70.847  1.00  0.00    -0.158 OA 
HETATM    7  C   UNL     1     -10.770   8.395  69.420  1.00  0.00    -0.162 C  
HETATM    8  C   UNL     1     -10.758   9.751  70.215  1.00  0.00    -0.302 C  
HETATM    9  C   UNL     1      -8.247   6.233  72.887  1.00  0.00    -0.115 C  
HETATM   10  H   UNL     1      -9.717   7.500  71.367  1.00  0.00     0.000 HD 
HETATM   11  C   UNL     1      -6.857   4.115  72.120  1.00  0.00    -0.041 C  
HETATM   12  C   UNL     1      -6.250   3.321  70.966  1.00  0.00    -0.018 C  
HETATM   13  C   UNL     1      -6.283   6.295  71.271  1.00  0.00    -0.044 C  
HETATM   14  C   UNL     1      -9.685   9.336  71.122  1.00  0.00    -0.327 C  
HETATM   15  C   UNL     1      -7.299   2.616  70.144  1.00  0.00    -0.040 C  
HETATM   16  C   UNL     1      -8.356   9.295  70.175  1.00  0.00    -0.189 C  
HETATM   17  O   UNL     1      -8.313   1.871  70.856  1.00  0.00    -0.048 OA 
HETATM   18  C   UNL     1     -10.036   8.406  72.128  1.00  0.00    -0.376 C  
HETATM   19  C   UNL     1     -11.399   7.255  71.584  1.00  0.00    -0.285 C  
HETATM   20  C   UNL     1      -7.585   5.413  71.538  1.00  0.00    -0.103 C  
HETATM   21  O   UNL     1      -8.475   5.682  73.964  1.00  0.00    -0.115 OA 
HETATM   22  C   UNL     1      -8.575   7.819  72.698  1.00  0.00    -0.140 C  
HETATM   23  C   UNL     1      -9.342   2.434  70.011  1.00  0.00    -0.111 C  
HETATM   24  C   UNL     1     -11.784   5.871  72.297  1.00  0.00    -0.309 C  
ENDROOT
BRANCH   2  25
HETATM   25  O   UNL     1     -10.359   6.384  67.904  1.00  0.00    -0.151 OA 
BRANCH  25  26
HETATM   26  C   UNL     1      -9.227   6.988  67.229  1.00  0.00    -0.129 C  
HETATM   27  O   UNL     1      -8.109   6.798  67.711  1.00  0.00    -0.111 OA 
BRANCH  26  28
HETATM   28  C   UNL     1      -9.294   8.170  66.066  1.00  0.00    -0.184 A  
HETATM   29  C   UNL     1      -8.507   9.503  64.043  1.00  0.00    -0.192 A  
HETATM   30  C   UNL     1     -10.157   9.265  66.274  1.00  0.00    -0.322 A  
HETATM   31  C   UNL     1      -8.393   8.426  64.975  1.00  0.00    -0.169 A  
HETATM   32  C   UNL     1     -10.234  10.393  65.389  1.00  0.00    -0.329 A  
HETATM   33  C   UNL     1      -9.447  10.492  64.248  1.00  0.00    -0.337 A  
ENDBRANCH  26  28
ENDBRANCH  25  26
ENDBRANCH   2  25
BRANCH   8  34
HETATM   34  O   UNL     1     -10.328  10.999  69.548  1.00  0.00    -0.164 OA 
BRANCH  34  35
HETATM   35  C   UNL     1     -11.323  11.816  69.065  1.00  0.00    -0.278 C  
HETATM   36  O   UNL     1     -12.348  11.345  68.566  1.00  0.00    -0.504 OA 
BRANCH  35  37
HETATM   37  C   UNL     1     -11.046  13.358  68.938  1.00  0.00    -0.266 C  
HETATM   38  H   UNL     1     -12.096  15.001  69.231  1.00  0.00     0.000 HD 
HETATM   39  O   UNL     1     -12.263  14.069  69.308  1.00  0.00    -0.344 OA 
BRANCH  37  40
HETATM   40  C   UNL     1     -10.298  14.130  67.727  1.00  0.00    -0.242 C  
BRANCH  40  41
HETATM   41  C   UNL     1      -8.771  13.770  67.797  1.00  0.00    -0.182 A  
HETATM   42  C   UNL     1      -7.927  14.450  68.684  1.00  0.00    -0.145 A  
HETATM   43  C   UNL     1      -8.242  12.645  67.123  1.00  0.00    -0.159 A  
HETATM   44  C   UNL     1      -6.906  12.208  67.304  1.00  0.00    -0.149 A  
HETATM   45  C   UNL     1      -6.581  14.013  68.850  1.00  0.00    -0.101 A  
HETATM   46  C   UNL     1      -6.083  12.937  68.180  1.00  0.00    -0.094 A  
ENDBRANCH  40  41
BRANCH  40  47
HETATM   47  N   UNL     1     -10.571  15.621  67.326  1.00  0.00    -0.300 N  
HETATM   48  C   UNL     1     -10.324  16.308  66.105  1.00  0.00    -0.341 C  
HETATM   49  H   UNL     1     -10.993  16.190  68.059  1.00  0.00     0.000 HD 
HETATM   50  O   UNL     1     -10.017  15.727  65.073  1.00  0.00    -0.386 OA 
BRANCH  48  51
HETATM   51  O   UNL     1     -10.450  17.713  66.186  1.00  0.00    -0.361 OA 
HETATM   52  C   UNL     1      -9.518  18.707  66.903  1.00  0.00    -0.301 C  
HETATM   53  C   UNL     1      -9.190  18.379  68.372  1.00  0.00    -0.341 C  
HETATM   54  C   UNL     1     -10.150  20.142  66.973  1.00  0.00    -0.599 C  
HETATM   55  C   UNL     1      -8.198  18.875  66.127  1.00  0.00    -0.222 C  
ENDBRANCH  48  51
ENDBRANCH  40  47
ENDBRANCH  37  40
ENDBRANCH  35  37
ENDBRANCH  34  35
ENDBRANCH   8  34
BRANCH  22  56
HETATM   56  O   UNL     1      -7.914   8.767  73.567  1.00  0.00    -0.409 OA 
HETATM   57  C   UNL     1      -6.519   8.480  73.814  1.00  0.00    -0.098 C  
ENDBRANCH  22  56
BRANCH  11  58
HETATM   58  O   UNL     1      -7.640   3.288  72.976  1.00  0.00    -0.056 OA 
HETATM   59  C   UNL     1      -6.835   2.564  73.921  1.00  0.00    -0.027 C  
ENDBRANCH  11  58
BRANCH   5  60
HETATM   60  O   UNL     1      -8.355   3.755  68.053  1.00  0.00    -0.090 OA 
BRANCH  60  61
HETATM   61  C   UNL     1      -7.545   3.035  67.272  1.00  0.00    -0.070 C  
HETATM   62  C   UNL     1      -8.350   1.966  66.582  1.00  0.00    -0.090 C  
HETATM   63  O   UNL     1      -6.342   3.191  67.028  1.00  0.00    -0.034 OA 
ENDBRANCH  60  61
ENDBRANCH   5  60
TORSDOF 14
ENDMDL
MODEL        9
REMARK 921   NORMALIZED FREE ENERGY PREDICTED BY IDOCK:   -6.55 KCAL/MOL
REMARK 922        TOTAL FREE ENERGY PREDICTED BY IDOCK:  -15.24 KCAL/MOL
REMARK 923 INTER-LIGAND FREE ENERGY PREDICTED BY IDOCK:  -12.00 KCAL/MOL
REMARK 924 INTRA-LIGAND FREE ENERGY PREDICTED BY IDOCK:   -3.24 KCAL/MOL
REMARK 927      BINDING AFFINITY PREDICTED BY RF-SCORE:    0.00 PKD
ROOT
HETATM    1  C   UNL     1      -8.188   5.116  69.499  1.00  0.00    -0.093 C  
HETATM    2  C   UNL     1      -8.638   6.433  68.150  1.00  0.00    -0.117 C  
HETATM    3  C   UNL     1     -10.995   9.223  68.570  1.00  0.00    -0.036 C  
HETATM    4  C   UNL     1      -9.022   7.771  68.861  1.00  0.00    -0.141 C  
HETATM    5  C   UNL     1      -7.920   3.696  68.909  1.00  0.00    -0.058 C  
HETATM    6  O   UNL     1      -8.532   7.129  69.989  1.00  0.00    -0.136 OA 
HETATM    7  C   UNL     1      -8.192   9.077  68.400  1.00  0.00    -0.116 C  
HETATM    8  C   UNL     1      -8.204  10.370  69.295  1.00  0.00    -0.158 C  
HETATM    9  C   UNL     1      -8.897   6.295  72.251  1.00  0.00    -0.136 C  
HETATM   10  H   UNL     1      -8.766   7.942  70.422  1.00  0.00     0.000 HD 
HETATM   11  C   UNL     1      -8.069   3.793  72.004  1.00  0.00    -0.072 C  
HETATM   12  C   UNL     1      -7.206   2.791  71.243  1.00  0.00    -0.033 C  
HETATM   13  C   UNL     1      -6.467   5.592  71.984  1.00  0.00    -0.052 C  
HETATM   14  C   UNL     1      -8.026   9.636  70.550  1.00  0.00    -0.148 C  
HETATM   15  C   UNL     1      -7.767   2.474  69.880  1.00  0.00    -0.043 C  
HETATM   16  C   UNL     1      -6.490   9.088  70.476  1.00  0.00    -0.051 C  
HETATM   17  O   UNL     1      -9.176   2.167  69.795  1.00  0.00    -0.101 OA 
HETATM   18  C   UNL     1      -9.153   8.931  71.032  1.00  0.00    -0.303 C  
HETATM   19  C   UNL     1     -10.250   8.321  69.654  1.00  0.00    -0.209 C  
HETATM   20  C   UNL     1      -7.890   5.241  71.354  1.00  0.00    -0.108 C  
HETATM   21  O   UNL     1      -9.851   5.904  72.923  1.00  0.00    -0.165 OA 
HETATM   22  C   UNL     1      -8.543   7.885  72.189  1.00  0.00    -0.140 C  
HETATM   23  C   UNL     1      -9.310   3.026  68.639  1.00  0.00    -0.173 C  
HETATM   24  C   UNL     1     -11.381   7.193  69.799  1.00  0.00    -0.158 C  
ENDROOT
BRANCH   2  25
HETATM   25  O   UNL     1      -7.657   6.994  67.027  1.00  0.00    -0.098 OA 
BRANCH  25  26
HETATM   26  C   UNL     1      -8.021   7.178  65.636  1.00  0.00    -0.126 C  
HETATM   27  O   UNL     1      -7.752   6.266  64.852  1.00  0.00    -0.086 OA 
BRANCH  26  28
HETATM   28  C   UNL     1      -8.468   8.606  64.919  1.00  0.00    -0.180 A  
HETATM   29  C   UNL     1      -9.888  10.688  64.546  1.00  0.00    -0.388 A  
HETATM   30  C   UNL     1      -7.943   8.910  63.647  1.00  0.00    -0.154 A  
HETATM   31  C   UNL     1      -9.549   9.494  65.253  1.00  0.00    -0.314 A  
HETATM   32  C   UNL     1      -8.325  10.066  62.886  1.00  0.00    -0.166 A  
HETATM   33  C   UNL     1      -9.260  10.982  63.355  1.00  0.00    -0.255 A  
ENDBRANCH  26  28
ENDBRANCH  25  26
ENDBRANCH   2  25
BRANCH   8  34
HETATM   34  O   UNL     1      -7.107  11.356  69.188  1.00  0.00    -0.110 OA 
BRANCH  34  35
HETATM   35  C   UNL     1      -7.169  12.239  68.136  1.00  0.00    -0.101 C  
HETATM   36  O   UNL     1      -6.187  12.446  67.420  1.00  0.00    -0.135 OA 
BRANCH  35  37
HETATM   37  C   UNL     1      -8.433  13.161  67.990  1.00  0.00    -0.181 C  
HETATM   38  H   UNL     1      -8.957  14.941  68.655  1.00  0.00     0.000 HD 
HETATM   39  O   UNL     1      -8.193  14.384  68.744  1.00  0.00    -0.149 OA 
BRANCH  37  40
HETATM   40  C   UNL     1      -9.989  12.729  68.113  1.00  0.00    -0.229 C  
BRANCH  40  41
HETATM   41  C   UNL     1     -10.717  13.169  66.793  1.00  0.00    -0.274 A  
HETATM   42  C   UNL     1     -10.044  13.946  65.843  1.00  0.00    -0.331 A  
HETATM   43  C   UNL     1     -11.984  12.650  66.436  1.00  0.00    -0.425 A  
HETATM   44  C   UNL     1     -12.583  12.904  65.177  1.00  0.00    -0.536 A  
HETATM   45  C   UNL     1     -10.659  14.209  64.585  1.00  0.00    -0.391 A  
HETATM   46  C   UNL     1     -11.887  13.715  64.263  1.00  0.00    -0.464 A  
ENDBRANCH  40  41
BRANCH  40  47
HETATM   47  N   UNL     1     -10.861  12.922  69.401  1.00  0.00    -0.445 N  
HETATM   48  C   UNL     1     -11.584  14.057  69.865  1.00  0.00    -0.254 C  
HETATM   49  H   UNL     1     -10.920  12.102  70.005  1.00  0.00     0.000 HD 
HETATM   50  O   UNL     1     -11.784  15.042  69.167  1.00  0.00    -0.290 OA 
BRANCH  48  51
HETATM   51  O   UNL     1     -12.039  13.958  71.200  1.00  0.00    -0.344 OA 
HETATM   52  C   UNL     1     -12.652  15.066  72.075  1.00  0.00    -0.333 C  
HETATM   53  C   UNL     1     -11.848  16.377  72.160  1.00  0.00    -0.499 C  
HETATM   54  C   UNL     1     -12.782  14.612  73.573  1.00  0.00    -0.464 C  
HETATM   55  C   UNL     1     -14.085  15.394  71.617  1.00  0.00    -0.618 C  
ENDBRANCH  48  51
ENDBRANCH  40  47
ENDBRANCH  37  40
ENDBRANCH  35  37
ENDBRANCH  34  35
ENDBRANCH   8  34
BRANCH  22  56
HETATM   56  O   UNL     1      -8.228   8.569  73.424  1.00  0.00    -0.379 OA 
HETATM   57  C   UNL     1      -7.056   8.066  74.104  1.00  0.00    -0.149 C  
ENDBRANCH  22  56
BRANCH  11  58
HETATM   58  O   UNL     1      -9.410   3.333  72.149  1.00  0.00    -0.105 OA 
HETATM   59  C   UNL     1      -9.560   2.428  73.255  1.00  0.00    -0.088 C  
ENDBRANCH  11  58
BRANCH   5  60
HETATM   60  O   UNL     1      -7.037   3.832  67.780  1.00  0.00    -0.054 OA 
BRANCH  60  61
HETATM   61  C   UNL     1      -6.990   2.884  66.839  1.00  0.00    -0.049 C  
HETATM   62  C   UNL     1      -6.001   1.827  67.256  1.00  0.00    -0.020 C  
HETATM   63  O   UNL     1      -7.661   2.765  65.807  1.00  0.00    -0.071 OA 
ENDBRANCH  60  61
ENDBRANCH   5  60
TORSDOF 14
ENDMDL
MODEL       10
REMARK 921   NORMALIZED FREE ENERGY PREDICTED BY IDOCK:   -6.33 KCAL/MOL
REMARK 922        TOTAL FREE ENERGY PREDICTED BY IDOCK:  -14.83 KCAL/MOL
REMARK 923 INTER-LIGAND FREE ENERGY PREDICTED BY IDOCK:  -11.93 KCAL/MOL
REMARK 924 INTRA-LIGAND FREE ENERGY PREDICTED BY IDOCK:   -2.90 KCAL/MOL
REMARK 927      BINDING AFFINITY PREDICTED BY RF-SCORE:    0.00 PKD
ROOT
HETATM    1  C   UNL     1      -8.784   4.975  70.102  1.00  0.00    -0.130 C  
HETATM    2  C   UNL     1     -10.340   5.808  69.300  1.00  0.00    -0.257 C  
HETATM    3  C   UNL     1     -12.271   8.588  70.732  1.00  0.00    -0.018 C  
HETATM    4  C   UNL     1     -10.407   7.300  69.759  1.00  0.00    -0.220 C  
HETATM    5  C   UNL     1      -8.692   3.443  69.822  1.00  0.00    -0.077 C  
HETATM    6  O   UNL     1      -9.135   7.041  70.250  1.00  0.00    -0.155 OA 
HETATM    7  C   UNL     1     -10.474   8.398  68.578  1.00  0.00    -0.201 C  
HETATM    8  C   UNL     1     -10.151   9.905  68.887  1.00  0.00    -0.184 C  
HETATM    9  C   UNL     1      -7.595   6.952  72.139  1.00  0.00    -0.092 C  
HETATM   10  H   UNL     1      -9.175   7.948  70.530  1.00  0.00     0.000 HD 
HETATM   11  C   UNL     1      -6.636   4.497  71.889  1.00  0.00    -0.023 C  
HETATM   12  C   UNL     1      -6.361   3.308  70.973  1.00  0.00    -0.019 C  
HETATM   13  C   UNL     1      -5.988   6.201  70.315  1.00  0.00    -0.029 C  
HETATM   14  C   UNL     1      -8.978   9.598  69.710  1.00  0.00    -0.226 C  
HETATM   15  C   UNL     1      -7.624   2.583  70.584  1.00  0.00    -0.036 C  
HETATM   16  C   UNL     1      -7.872   9.055  68.639  1.00  0.00    -0.101 C  
HETATM   17  O   UNL     1      -8.560   2.264  71.638  1.00  0.00    -0.061 OA 
HETATM   18  C   UNL     1      -9.233   9.078  71.000  1.00  0.00    -0.331 C  
HETATM   19  C   UNL     1     -10.800   8.068  71.060  1.00  0.00    -0.259 C  
HETATM   20  C   UNL     1      -7.307   5.672  71.039  1.00  0.00    -0.085 C  
HETATM   21  O   UNL     1      -7.673   6.789  73.356  1.00  0.00    -0.089 OA 
HETATM   22  C   UNL     1      -7.768   8.444  71.505  1.00  0.00    -0.103 C  
HETATM   23  C   UNL     1      -9.661   2.721  70.820  1.00  0.00    -0.117 C  
HETATM   24  C   UNL     1     -11.197   7.042  72.225  1.00  0.00    -0.299 C  
ENDROOT
BRANCH   2  25
HETATM   25  O   UNL     1     -10.601   5.992  67.739  1.00  0.00    -0.212 OA 
BRANCH  25  26
HETATM   26  C   UNL     1      -9.580   5.879  66.716  1.00  0.00    -0.148 C  
HETATM   27  O   UNL     1      -8.625   6.656  66.775  1.00  0.00    -0.113 OA 
BRANCH  26  28
HETATM   28  C   UNL     1      -9.709   5.039  65.290  1.00  0.00     0.015 A  
HETATM   29  C   UNL     1     -10.777   3.466  63.596  1.00  0.00    -0.257 A  
HETATM   30  C   UNL     1      -8.549   4.863  64.509  1.00  0.00    -0.146 A  
HETATM   31  C   UNL     1     -10.773   4.190  64.827  1.00  0.00    -0.151 A  
HETATM   32  C   UNL     1      -8.513   4.078  63.308  1.00  0.00    -0.096 A  
HETATM   33  C   UNL     1      -9.636   3.419  62.823  1.00  0.00    -0.099 A  
ENDBRANCH  26  28
ENDBRANCH  25  26
ENDBRANCH   2  25
BRANCH   8  34
HETATM   34  O   UNL     1      -9.716  10.810  67.802  1.00  0.00    -0.159 OA 
BRANCH  34  35
HETATM   35  C   UNL     1      -9.651  12.150  68.102  1.00  0.00    -0.208 C  
HETATM   36  O   UNL     1      -8.567  12.733  68.182  1.00  0.00    -0.174 OA 
BRANCH  35  37
HETATM   37  C   UNL     1     -10.956  12.888  68.574  1.00  0.00    -0.259 C  
HETATM   38  H   UNL     1     -12.706  13.301  67.766  1.00  0.00     0.000 HD 
HETATM   39  O   UNL     1     -11.917  12.855  67.480  1.00  0.00    -0.359 OA 
BRANCH  37  40
HETATM   40  C   UNL     1     -11.061  14.299  69.363  1.00  0.00    -0.246 C  
BRANCH  40  41
HETATM   41  C   UNL     1     -12.294  14.218  70.333  1.00  0.00    -0.419 A  
HETATM   42  C   UNL     1     -12.600  13.016  70.983  1.00  0.00    -0.386 A  
HETATM   43  C   UNL     1     -13.008  15.374  70.724  1.00  0.00    -0.510 A  
HETATM   44  C   UNL     1     -14.015  15.345  71.722  1.00  0.00    -0.626 A  
HETATM   45  C   UNL     1     -13.623  12.993  71.975  1.00  0.00    -0.530 A  
HETATM   46  C   UNL     1     -14.313  14.113  72.327  1.00  0.00    -0.533 A  
ENDBRANCH  40  41
BRANCH  40  47
HETATM   47  N   UNL     1     -10.888  15.704  68.690  1.00  0.00    -0.259 N  
HETATM   48  C   UNL     1      -9.787  16.606  68.708  1.00  0.00    -0.252 C  
HETATM   49  H   UNL     1     -11.694  16.024  68.153  1.00  0.00     0.000 HD 
HETATM   50  O   UNL     1      -8.682  16.289  69.127  1.00  0.00    -0.247 OA 
BRANCH  48  51
HETATM   51  O   UNL     1     -10.078  17.898  68.214  1.00  0.00    -0.332 OA 
HETATM   52  C   UNL     1      -9.734  18.482  66.832  1.00  0.00    -0.322 C  
HETATM   53  C   UNL     1      -8.264  18.351  66.395  1.00  0.00    -0.280 C  
HETATM   54  C   UNL     1     -10.003  20.029  66.777  1.00  0.00    -0.585 C  
HETATM   55  C   UNL     1     -10.632  17.868  65.740  1.00  0.00    -0.175 C  
ENDBRANCH  48  51
ENDBRANCH  40  47
ENDBRANCH  37  40
ENDBRANCH  35  37
ENDBRANCH  34  35
ENDBRANCH   8  34
BRANCH  22  56
HETATM   56  O   UNL     1      -6.845   9.478  71.917  1.00  0.00    -0.292 OA 
HETATM   57  C   UNL     1      -5.458   9.074  71.923  1.00  0.00    -0.059 C  
ENDBRANCH  22  56
BRANCH  11  58
HETATM   58  O   UNL     1      -7.328   4.104  73.071  1.00  0.00    -0.066 OA 
HETATM   59  C   UNL     1      -6.437   3.634  74.095  1.00  0.00    -0.037 C  
ENDBRANCH  11  58
BRANCH   5  60
HETATM   60  O   UNL     1      -8.925   3.221  68.420  1.00  0.00    -0.107 OA 
BRANCH  60  61
HETATM   61  C   UNL     1      -7.911   2.923  67.603  1.00  0.00    -0.068 C  
HETATM   62  C   UNL     1      -8.235   1.653  66.861  1.00  0.00    -0.077 C  
HETATM   63  O   UNL     1      -6.876   3.559  67.367  1.00  0.00    -0.045 OA 
ENDBRANCH  60  61
ENDBRANCH   5  60
TORSDOF 14
ENDMDL
MODEL       11
REMARK 921   NORMALIZED FREE ENERGY PREDICTED BY IDOCK:   -5.74 KCAL/MOL
REMARK 922        TOTAL FREE ENERGY PREDICTED BY IDOCK:  -13.77 KCAL/MOL
REMARK 923 INTER-LIGAND FREE ENERGY PREDICTED BY IDOCK:  -10.58 KCAL/MOL
REMARK 924 INTRA-LIGAND FREE ENERGY PREDICTED BY IDOCK:   -3.19 KCAL/MOL
REMARK 927      BINDING AFFINITY PREDICTED BY RF-SCORE:    0.00 PKD
ROOT
HETATM    1  C   UNL     1      -7.954   4.927  70.461  1.00  0.00    -0.077 C  
HETATM    2  C   UNL     1      -9.524   5.581  69.530  1.00  0.00    -0.141 C  
HETATM    3  C   UNL     1     -12.522   7.007  71.108  1.00  0.00    -0.407 C  
HETATM    4  C   UNL     1     -10.183   6.711  70.385  1.00  0.00    -0.188 C  
HETATM    5  C   UNL     1      -7.291   3.699  69.763  1.00  0.00    -0.045 C  
HETATM    6  O   UNL     1      -9.013   6.614  71.126  1.00  0.00    -0.144 OA 
HETATM    7  C   UNL     1     -10.403   8.124  69.635  1.00  0.00    -0.221 C  
HETATM    8  C   UNL     1     -10.680   9.423  70.475  1.00  0.00    -0.276 C  
HETATM    9  C   UNL     1      -7.915   6.198  73.263  1.00  0.00    -0.103 C  
HETATM   10  H   UNL     1      -9.414   7.301  71.646  1.00  0.00     0.000 HD 
HETATM   11  C   UNL     1      -6.142   4.359  72.566  1.00  0.00    -0.017 C  
HETATM   12  C   UNL     1      -5.311   3.727  71.453  1.00  0.00    -0.004 C  
HETATM   13  C   UNL     1      -5.840   6.642  71.860  1.00  0.00    -0.037 C  
HETATM   14  C   UNL     1      -9.648   9.131  71.471  1.00  0.00    -0.278 C  
HETATM   15  C   UNL     1      -6.153   2.913  70.504  1.00  0.00    -0.019 C  
HETATM   16  C   UNL     1      -8.244   9.342  70.664  1.00  0.00    -0.224 C  
HETATM   17  O   UNL     1      -7.100   1.987  71.081  1.00  0.00    -0.031 OA 
HETATM   18  C   UNL     1      -9.943   8.108  72.402  1.00  0.00    -0.345 C  
HETATM   19  C   UNL     1     -11.049   6.792  71.681  1.00  0.00    -0.282 C  
HETATM   20  C   UNL     1      -7.006   5.559  71.960  1.00  0.00    -0.080 C  
HETATM   21  O   UNL     1      -8.155   5.564  74.290  1.00  0.00    -0.105 OA 
HETATM   22  C   UNL     1      -8.469   7.722  73.098  1.00  0.00    -0.163 C  
HETATM   23  C   UNL     1      -8.120   2.428  70.156  1.00  0.00    -0.041 C  
HETATM   24  C   UNL     1     -11.278   5.331  72.301  1.00  0.00    -0.181 C  
ENDROOT
BRANCH   2  25
HETATM   25  O   UNL     1      -9.539   6.280  68.098  1.00  0.00    -0.117 OA 
BRANCH  25  26
HETATM   26  C   UNL     1     -10.407   5.892  67.004  1.00  0.00    -0.243 C  
HETATM   27  O   UNL     1     -11.547   6.359  66.988  1.00  0.00    -0.010 OA 
BRANCH  26  28
HETATM   28  C   UNL     1     -10.150   4.640  65.945  1.00  0.00    -0.280 A  
HETATM   29  C   UNL     1     -10.554   3.215  63.871  1.00  0.00    -0.180 A  
HETATM   30  C   UNL     1      -9.402   3.531  66.387  1.00  0.00    -0.184 A  
HETATM   31  C   UNL     1     -10.812   4.349  64.701  1.00  0.00    -0.027 A  
HETATM   32  C   UNL     1      -9.193   2.350  65.599  1.00  0.00    -0.044 A  
HETATM   33  C   UNL     1      -9.725   2.210  64.322  1.00  0.00    -0.098 A  
ENDBRANCH  26  28
ENDBRANCH  25  26
ENDBRANCH   2  25
BRANCH   8  34
HETATM   34  O   UNL     1     -10.390  10.754  69.901  1.00  0.00    -0.127 OA 
BRANCH  34  35
HETATM   35  C   UNL     1     -11.469  11.571  69.655  1.00  0.00    -0.301 C  
HETATM   36  O   UNL     1     -12.403  11.651  70.457  1.00  0.00    -0.343 OA 
BRANCH  35  37
HETATM   37  C   UNL     1     -11.619  12.226  68.234  1.00  0.00    -0.331 C  
HETATM   38  H   UNL     1     -11.988  11.564  66.414  1.00  0.00     0.000 HD 
HETATM   39  O   UNL     1     -11.898  11.167  67.273  1.00  0.00    -0.525 OA 
BRANCH  37  40
HETATM   40  C   UNL     1     -10.668  13.351  67.561  1.00  0.00    -0.254 C  
BRANCH  40  41
HETATM   41  C   UNL     1      -9.181  12.864  67.689  1.00  0.00    -0.193 A  
HETATM   42  C   UNL     1      -8.681  11.893  66.813  1.00  0.00    -0.193 A  
HETATM   43  C   UNL     1      -8.260  13.509  68.547  1.00  0.00    -0.104 A  
HETATM   44  C   UNL     1      -6.878  13.192  68.555  1.00  0.00    -0.099 A  
HETATM   45  C   UNL     1      -7.293  11.570  66.837  1.00  0.00    -0.140 A  
HETATM   46  C   UNL     1      -6.422  12.189  67.682  1.00  0.00    -0.110 A  
ENDBRANCH  40  41
BRANCH  40  47
HETATM   47  N   UNL     1     -10.840  14.895  67.770  1.00  0.00    -0.279 N  
HETATM   48  C   UNL     1     -10.565  15.982  66.893  1.00  0.00    -0.300 C  
HETATM   49  H   UNL     1     -11.208  15.165  68.682  1.00  0.00     0.000 HD 
HETATM   50  O   UNL     1     -10.318  15.823  65.706  1.00  0.00    -0.322 OA 
BRANCH  48  51
HETATM   51  O   UNL     1     -10.588  17.253  67.509  1.00  0.00    -0.354 OA 
HETATM   52  C   UNL     1      -9.389  18.115  67.946  1.00  0.00    -0.272 C  
HETATM   53  C   UNL     1      -8.339  17.408  68.824  1.00  0.00    -0.223 C  
HETATM   54  C   UNL     1      -9.846  19.336  68.822  1.00  0.00    -0.514 C  
HETATM   55  C   UNL     1      -8.681  18.726  66.722  1.00  0.00    -0.303 C  
ENDBRANCH  48  51
ENDBRANCH  40  47
ENDBRANCH  37  40
ENDBRANCH  35  37
ENDBRANCH  34  35
ENDBRANCH   8  34
BRANCH  22  56
HETATM   56  O   UNL     1      -8.050   8.715  74.063  1.00  0.00    -0.385 OA 
HETATM   57  C   UNL     1      -6.696   8.553  74.538  1.00  0.00    -0.156 C  
ENDBRANCH  22  56
BRANCH  11  58
HETATM   58  O   UNL     1      -6.864   3.380  73.308  1.00  0.00    -0.036 OA 
HETATM   59  C   UNL     1      -6.056   2.759  74.321  1.00  0.00    -0.011 C  
ENDBRANCH  11  58
BRANCH   5  60
HETATM   60  O   UNL     1      -7.170   3.983  68.357  1.00  0.00    -0.054 OA 
BRANCH  60  61
HETATM   61  C   UNL     1      -6.143   4.703  67.898  1.00  0.00    -0.031 C  
HETATM   62  C   UNL     1      -5.349   3.865  66.930  1.00  0.00    -0.013 C  
HETATM   63  O   UNL     1      -5.854   5.887  68.109  1.00  0.00    -0.011 OA 
ENDBRANCH  60  61
ENDBRANCH   5  60
TORSDOF 14
ENDMDL
MODEL       12
REMARK 921   NORMALIZED FREE ENERGY PREDICTED BY IDOCK:   -5.54 KCAL/MOL
REMARK 922        TOTAL FREE ENERGY PREDICTED BY IDOCK:  -13.40 KCAL/MOL
REMARK 923 INTER-LIGAND FREE ENERGY PREDICTED BY IDOCK:  -11.23 KCAL/MOL
REMARK 924 INTRA-LIGAND FREE ENERGY PREDICTED BY IDOCK:   -2.17 KCAL/MOL
REMARK 927      BINDING AFFINITY PREDICTED BY RF-SCORE:    0.00 PKD
ROOT
HETATM    1  C   UNL     1      -8.104   5.819  71.597  1.00  0.00    -0.118 C  
HETATM    2  C   UNL     1      -7.794   6.484  69.803  1.00  0.00    -0.115 C  
HETATM    3  C   UNL     1     -10.328   6.795  67.158  1.00  0.00    -0.327 C  
HETATM    4  C   UNL     1      -9.111   7.141  69.274  1.00  0.00    -0.137 C  
HETATM    5  C   UNL     1      -6.895   5.019  72.175  1.00  0.00    -0.061 C  
HETATM    6  O   UNL     1      -9.526   6.991  70.590  1.00  0.00    -0.165 OA 
HETATM    7  C   UNL     1      -8.981   8.667  68.766  1.00  0.00    -0.138 C  
HETATM    8  C   UNL     1     -10.271   9.548  68.589  1.00  0.00    -0.195 C  
HETATM    9  C   UNL     1     -11.112   6.067  72.195  1.00  0.00    -0.279 C  
HETATM   10  H   UNL     1     -10.327   7.390  70.269  1.00  0.00     0.000 HD 
HETATM   11  C   UNL     1      -9.469   4.880  73.897  1.00  0.00    -0.128 C  
HETATM   12  C   UNL     1      -8.065   4.799  74.490  1.00  0.00    -0.095 C  
HETATM   13  C   UNL     1      -9.594   7.284  73.833  1.00  0.00    -0.322 C  
HETATM   14  C   UNL     1     -10.875   9.110  69.850  1.00  0.00    -0.242 C  
HETATM   15  C   UNL     1      -7.066   4.226  73.517  1.00  0.00    -0.069 C  
HETATM   16  C   UNL     1      -9.945   9.802  70.999  1.00  0.00     0.014 C  
HETATM   17  O   UNL     1      -7.440   3.020  72.814  1.00  0.00    -0.047 OA 
HETATM   18  C   UNL     1     -11.410   7.800  69.870  1.00  0.00     0.008 C  
HETATM   19  C   UNL     1     -10.489   6.642  68.736  1.00  0.00    -0.241 C  
HETATM   20  C   UNL     1      -9.518   6.056  72.818  1.00  0.00    -0.154 C  
HETATM   21  O   UNL     1     -11.866   5.096  72.258  1.00  0.00     0.088 OA 
HETATM   22  C   UNL     1     -11.621   7.448  71.494  1.00  0.00    -0.275 C  
HETATM   23  C   UNL     1      -6.953   3.574  71.571  1.00  0.00    -0.031 C  
HETATM   24  C   UNL     1     -10.569   5.041  68.783  1.00  0.00     0.083 C  
ENDROOT
BRANCH   2  25
HETATM   25  O   UNL     1      -6.745   7.610  69.390  1.00  0.00    -0.039 OA 
BRANCH  25  26
HETATM   26  C   UNL     1      -5.994   7.618  68.150  1.00  0.00    -0.039 C  
HETATM   27  O   UNL     1      -5.138   8.493  68.008  1.00  0.00    -0.033 OA 
BRANCH  26  28
HETATM   28  C   UNL     1      -6.375   6.783  66.767  1.00  0.00    -0.042 A  
HETATM   29  C   UNL     1      -7.017   6.488  64.319  1.00  0.00    -0.051 A  
HETATM   30  C   UNL     1      -6.772   5.436  66.886  1.00  0.00    -0.062 A  
HETATM   31  C   UNL     1      -6.651   7.284  65.447  1.00  0.00    -0.047 A  
HETATM   32  C   UNL     1      -7.216   4.638  65.778  1.00  0.00    -0.076 A  
HETATM   33  C   UNL     1      -7.292   5.147  64.486  1.00  0.00    -0.060 A  
ENDBRANCH  26  28
ENDBRANCH  25  26
ENDBRANCH   2  25
BRANCH   8  34
HETATM   34  O   UNL     1     -10.174  11.023  68.623  1.00  0.00    -0.183 OA 
BRANCH  34  35
HETATM   35  C   UNL     1     -11.196  11.724  68.029  1.00  0.00    -0.263 C  
HETATM   36  O   UNL     1     -12.020  11.159  67.306  1.00  0.00    -0.452 OA 
BRANCH  35  37
HETATM   37  C   UNL     1     -11.176  13.294  68.086  1.00  0.00    -0.270 C  
HETATM   38  H   UNL     1     -12.200  14.677  69.050  1.00  0.00     0.000 HD 
HETATM   39  O   UNL     1     -12.212  13.728  69.015  1.00  0.00    -0.343 OA 
BRANCH  37  40
HETATM   40  C   UNL     1     -11.079  14.327  66.842  1.00  0.00    -0.312 C  
BRANCH  40  41
HETATM   41  C   UNL     1     -11.210  13.496  65.516  1.00  0.00    -0.304 A  
HETATM   42  C   UNL     1     -10.073  12.945  64.914  1.00  0.00    -0.229 A  
HETATM   43  C   UNL     1     -12.472  13.121  64.997  1.00  0.00    -0.516 A  
HETATM   44  C   UNL     1     -12.610  12.237  63.898  1.00  0.00    -0.544 A  
HETATM   45  C   UNL     1     -10.220  12.068  63.801  1.00  0.00    -0.447 A  
HETATM   46  C   UNL     1     -11.442  11.731  63.303  1.00  0.00    -0.332 A  
ENDBRANCH  40  41
BRANCH  40  47
HETATM   47  N   UNL     1     -10.044  15.499  66.745  1.00  0.00    -0.257 N  
HETATM   48  C   UNL     1      -9.958  16.717  67.476  1.00  0.00    -0.266 C  
HETATM   49  H   UNL     1      -9.315  15.369  66.044  1.00  0.00     0.000 HD 
HETATM   50  O   UNL     1     -10.623  16.931  68.481  1.00  0.00    -0.327 OA 
BRANCH  48  51
HETATM   51  O   UNL     1      -9.052  17.661  66.941  1.00  0.00    -0.240 OA 
HETATM   52  C   UNL     1      -9.072  19.191  67.107  1.00  0.00    -0.287 C  
HETATM   53  C   UNL     1     -10.408  19.884  66.783  1.00  0.00    -0.599 C  
HETATM   54  C   UNL     1      -8.047  19.889  66.143  1.00  0.00    -0.347 C  
HETATM   55  C   UNL     1      -8.639  19.592  68.530  1.00  0.00    -0.379 C  
ENDBRANCH  48  51
ENDBRANCH  40  47
ENDBRANCH  37  40
ENDBRANCH  35  37
ENDBRANCH  34  35
ENDBRANCH   8  34
BRANCH  22  56
HETATM   56  O   UNL     1     -12.780   8.114  72.045  1.00  0.00    -0.318 OA 
HETATM   57  C   UNL     1     -14.015   7.376  71.908  1.00  0.00    -0.270 C  
ENDBRANCH  22  56
BRANCH  11  58
HETATM   58  O   UNL     1      -9.930   3.605  73.456  1.00  0.00    -0.110 OA 
HETATM   59  C   UNL     1     -10.613   2.883  74.494  1.00  0.00    -0.112 C  
ENDBRANCH  11  58
BRANCH   5  60
HETATM   60  O   UNL     1      -5.693   5.773  71.935  1.00  0.00    -0.021 OA 
BRANCH  60  61
HETATM   61  C   UNL     1      -5.304   6.721  72.793  1.00  0.00    -0.037 C  
HETATM   62  C   UNL     1      -5.130   8.017  72.047  1.00  0.00    -0.035 C  
HETATM   63  O   UNL     1      -5.161   6.661  74.020  1.00  0.00    -0.040 OA 
ENDBRANCH  60  61
ENDBRANCH   5  60
TORSDOF 14
ENDMDL
MODEL       13
REMARK 921   NORMALIZED FREE ENERGY PREDICTED BY IDOCK:   -5.54 KCAL/MOL
REMARK 922        TOTAL FREE ENERGY PREDICTED BY IDOCK:  -13.39 KCAL/MOL
REMARK 923 INTER-LIGAND FREE ENERGY PREDICTED BY IDOCK:  -10.65 KCAL/MOL
REMARK 924 INTRA-LIGAND FREE ENERGY PREDICTED BY IDOCK:   -2.74 KCAL/MOL
REMARK 927      BINDING AFFINITY PREDICTED BY RF-SCORE:    0.00 PKD
ROOT
HETATM    1  C   UNL     1      -7.940   4.794  70.050  1.00  0.00    -0.069 C  
HETATM    2  C   UNL     1      -8.347   5.917  68.524  1.00  0.00    -0.109 C  
HETATM    3  C   UNL     1     -10.997   8.461  68.373  1.00  0.00     0.164 C  
HETATM    4  C   UNL     1      -8.943   7.268  69.037  1.00  0.00    -0.134 C  
HETATM    5  C   UNL     1      -7.465   3.361  69.652  1.00  0.00    -0.045 C  
HETATM    6  O   UNL     1      -8.535   6.795  70.277  1.00  0.00    -0.132 OA 
HETATM    7  C   UNL     1      -8.194   8.606  68.533  1.00  0.00    -0.122 C  
HETATM    8  C   UNL     1      -8.439   9.970  69.274  1.00  0.00    -0.163 C  
HETATM    9  C   UNL     1      -9.090   6.149  72.561  1.00  0.00    -0.138 C  
HETATM   10  H   UNL     1      -8.897   7.616  70.589  1.00  0.00     0.000 HD 
HETATM   11  C   UNL     1      -8.000   3.740  72.682  1.00  0.00    -0.081 C  
HETATM   12  C   UNL     1      -6.957   2.769  72.135  1.00  0.00    -0.030 C  
HETATM   13  C   UNL     1      -6.589   5.693  72.645  1.00  0.00    -0.067 C  
HETATM   14  C   UNL     1      -8.346   9.385  70.614  1.00  0.00    -0.217 C  
HETATM   15  C   UNL     1      -7.314   2.262  70.761  1.00  0.00    -0.033 C  
HETATM   16  C   UNL     1      -6.766   9.003  70.772  1.00  0.00    -0.067 C  
HETATM   17  O   UNL     1      -8.666   1.797  70.553  1.00  0.00    -0.053 OA 
HETATM   18  C   UNL     1      -9.450   8.611  71.041  1.00  0.00    -0.261 C  
HETATM   19  C   UNL     1     -10.306   7.754  69.624  1.00  0.00    -0.212 C  
HETATM   20  C   UNL     1      -7.883   5.130  71.902  1.00  0.00    -0.110 C  
HETATM   21  O   UNL     1     -10.077   5.724  73.162  1.00  0.00    -0.172 OA 
HETATM   22  C   UNL     1      -8.886   7.755  72.366  1.00  0.00    -0.142 C  
HETATM   23  C   UNL     1      -8.740   2.521  69.303  1.00  0.00    -0.082 C  
HETATM   24  C   UNL     1     -11.332   6.530  69.764  1.00  0.00    -0.456 C  
ENDROOT
BRANCH   2  25
HETATM   25  O   UNL     1      -7.296   6.471  67.463  1.00  0.00    -0.090 OA 
BRANCH  25  26
HETATM   26  C   UNL     1      -7.515   6.504  66.030  1.00  0.00    -0.081 C  
HETATM   27  O   UNL     1      -7.010   7.434  65.398  1.00  0.00    -0.057 OA 
BRANCH  26  28
HETATM   28  C   UNL     1      -8.635   5.614  65.188  1.00  0.00    -0.130 A  
HETATM   29  C   UNL     1     -10.622   4.049  64.882  1.00  0.00    -0.148 A  
HETATM   30  C   UNL     1      -8.376   5.320  63.835  1.00  0.00    -0.122 A  
HETATM   31  C   UNL     1      -9.730   4.825  65.684  1.00  0.00    -0.188 A  
HETATM   32  C   UNL     1      -9.219   4.482  63.030  1.00  0.00    -0.104 A  
HETATM   33  C   UNL     1     -10.368   3.886  63.536  1.00  0.00    -0.194 A  
ENDBRANCH  26  28
ENDBRANCH  25  26
ENDBRANCH   2  25
BRANCH   8  34
HETATM   34  O   UNL     1      -7.439  11.055  69.184  1.00  0.00    -0.117 OA 
BRANCH  34  35
HETATM   35  C   UNL     1      -7.500  11.862  68.072  1.00  0.00    -0.107 C  
HETATM   36  O   UNL     1      -6.519  12.013  67.340  1.00  0.00    -0.106 OA 
BRANCH  35  37
HETATM   37  C   UNL     1      -8.760  12.778  67.866  1.00  0.00    -0.185 C  
HETATM   38  H   UNL     1      -9.267  14.609  68.393  1.00  0.00     0.000 HD 
HETATM   39  O   UNL     1      -8.505  14.055  68.518  1.00  0.00    -0.160 OA 
BRANCH  37  40
HETATM   40  C   UNL     1     -10.318  12.368  68.039  1.00  0.00    -0.216 C  
BRANCH  40  41
HETATM   41  C   UNL     1     -10.954  12.277  66.606  1.00  0.00    -0.321 A  
HETATM   42  C   UNL     1     -11.950  13.181  66.218  1.00  0.00    -0.473 A  
HETATM   43  C   UNL     1     -10.423  11.422  65.611  1.00  0.00    -0.316 A  
HETATM   44  C   UNL     1     -10.875  11.445  64.268  1.00  0.00    -0.416 A  
HETATM   45  C   UNL     1     -12.409  13.188  64.870  1.00  0.00    -0.494 A  
HETATM   46  C   UNL     1     -11.899  12.346  63.928  1.00  0.00    -0.551 A  
ENDBRANCH  40  41
BRANCH  40  47
HETATM   47  N   UNL     1     -11.280  12.983  69.111  1.00  0.00    -0.346 N  
HETATM   48  C   UNL     1     -11.994  12.363  70.175  1.00  0.00    -0.298 C  
HETATM   49  H   UNL     1     -11.418  13.991  69.035  1.00  0.00     0.000 HD 
HETATM   50  O   UNL     1     -11.781  11.211  70.528  1.00  0.00    -0.333 OA 
BRANCH  48  51
HETATM   51  O   UNL     1     -12.976  13.181  70.779  1.00  0.00    -0.145 OA 
HETATM   52  C   UNL     1     -12.841  14.648  71.225  1.00  0.00    -0.335 C  
HETATM   53  C   UNL     1     -11.631  14.968  72.123  1.00  0.00    -0.402 C  
HETATM   54  C   UNL     1     -14.074  15.106  72.083  1.00  0.00    -0.654 C  
HETATM   55  C   UNL     1     -12.814  15.589  70.005  1.00  0.00    -0.047 C  
ENDBRANCH  48  51
ENDBRANCH  40  47
ENDBRANCH  37  40
ENDBRANCH  35  37
ENDBRANCH  34  35
ENDBRANCH   8  34
BRANCH  22  56
HETATM   56  O   UNL     1      -8.793   8.585  73.546  1.00  0.00    -0.279 OA 
HETATM   57  C   UNL     1      -7.570   8.420  74.298  1.00  0.00    -0.186 C  
ENDBRANCH  22  56
BRANCH  11  58
HETATM   58  O   UNL     1      -9.297   3.153  72.725  1.00  0.00    -0.090 OA 
HETATM   59  C   UNL     1      -9.527   2.428  73.945  1.00  0.00    -0.079 C  
ENDBRANCH  11  58
BRANCH   5  60
HETATM   60  O   UNL     1      -6.469   3.482  68.620  1.00  0.00    -0.035 OA 
BRANCH  60  61
HETATM   61  C   UNL     1      -6.546   2.739  67.512  1.00  0.00    -0.037 C  
HETATM   62  C   UNL     1      -5.387   1.777  67.484  1.00  0.00    -0.016 C  
HETATM   63  O   UNL     1      -7.422   2.715  66.639  1.00  0.00    -0.068 OA 
ENDBRANCH  60  61
ENDBRANCH   5  60
TORSDOF 14
ENDMDL
MODEL       14
REMARK 921   NORMALIZED FREE ENERGY PREDICTED BY IDOCK:   -4.56 KCAL/MOL
REMARK 922        TOTAL FREE ENERGY PREDICTED BY IDOCK:  -11.62 KCAL/MOL
REMARK 923 INTER-LIGAND FREE ENERGY PREDICTED BY IDOCK:   -9.05 KCAL/MOL
REMARK 924 INTRA-LIGAND FREE ENERGY PREDICTED BY IDOCK:   -2.56 KCAL/MOL
REMARK 927      BINDING AFFINITY PREDICTED BY RF-SCORE:    0.00 PKD
ROOT
HETATM    1  C   UNL     1     -10.653  13.918  68.455  1.00  0.00    -0.262 C  
HETATM    2  C   UNL     1     -11.601  12.460  67.597  1.00  0.00    -0.357 C  
HETATM    3  C   UNL     1     -10.768  10.975  64.339  1.00  0.00    -0.340 C  
HETATM    4  C   UNL     1     -10.597  11.664  66.701  1.00  0.00    -0.243 C  
HETATM    5  C   UNL     1     -11.588  14.865  69.269  1.00  0.00    -0.306 C  
HETATM    6  O   UNL     1      -9.648  12.443  67.348  1.00  0.00    -0.179 OA 
HETATM    7  C   UNL     1     -10.498  10.079  66.991  1.00  0.00    -0.302 C  
HETATM    8  C   UNL     1      -9.272   9.258  66.448  1.00  0.00    -0.180 C  
HETATM    9  C   UNL     1      -7.835  14.069  67.228  1.00  0.00    -0.122 C  
HETATM   10  H   UNL     1      -9.037  11.959  66.803  1.00  0.00     0.000 HD 
HETATM   11  C   UNL     1      -8.678  15.888  68.957  1.00  0.00    -0.236 C  
HETATM   12  C   UNL     1      -9.548  16.208  70.170  1.00  0.00     0.647 C  
HETATM   13  C   UNL     1      -7.887  13.757  69.752  1.00  0.00     0.947 C  
HETATM   14  C   UNL     1      -8.284  10.267  66.836  1.00  0.00    -0.123 C  
HETATM   15  C   UNL     1     -11.017  16.213  69.833  1.00  0.00    -0.362 C  
HETATM   16  C   UNL     1      -8.258  10.192  68.467  1.00  0.00    -0.111 C  
HETATM   17  O   UNL     1     -11.427  16.937  68.652  1.00  0.00    -0.104 OA 
HETATM   18  C   UNL     1      -8.233  11.436  66.042  1.00  0.00     0.017 C  
HETATM   19  C   UNL     1      -9.895  11.877  65.323  1.00  0.00    -0.255 C  
HETATM   20  C   UNL     1      -8.824  14.338  68.600  1.00  0.00    -0.150 C  
HETATM   21  O   UNL     1      -7.483  14.969  66.466  1.00  0.00     0.251 OA 
HETATM   22  C   UNL     1      -7.357  12.535  66.953  1.00  0.00     0.132 C  
HETATM   23  C   UNL     1     -12.277  15.838  68.253  1.00  0.00     0.431 C  
HETATM   24  C   UNL     1     -10.288  13.302  64.701  1.00  0.00    -0.394 C  
ENDROOT
BRANCH   2  25
HETATM   25  O   UNL     1     -12.321  11.248  68.339  1.00  0.00    -0.545 OA 
BRANCH  25  26
HETATM   26  C   UNL     1     -12.050  10.842  69.704  1.00  0.00    -0.289 C  
HETATM   27  O   UNL     1     -11.127  11.408  70.294  1.00  0.00    -0.048 OA 
BRANCH  26  28
HETATM   28  C   UNL     1     -12.628   9.480  70.456  1.00  0.00     0.050 A  
HETATM   29  C   UNL     1     -14.129   8.129  72.010  1.00  0.00    -0.446 A  
HETATM   30  C   UNL     1     -11.820   8.326  70.465  1.00  0.00    -0.002 A  
HETATM   31  C   UNL     1     -13.728   9.343  71.373  1.00  0.00    -0.309 A  
HETATM   32  C   UNL     1     -12.168   7.119  71.161  1.00  0.00    -0.405 A  
HETATM   33  C   UNL     1     -13.344   7.002  71.893  1.00  0.00    -0.242 A  
ENDBRANCH  26  28
ENDBRANCH  25  26
ENDBRANCH   2  25
BRANCH   8  34
HETATM   34  O   UNL     1      -8.891   7.981  67.090  1.00  0.00    -0.128 OA 
BRANCH  34  35
HETATM   35  C   UNL     1      -8.252   7.057  66.297  1.00  0.00    -0.120 C  
HETATM   36  O   UNL     1      -8.279   7.146  65.067  1.00  0.00    -0.134 OA 
BRANCH  35  37
HETATM   37  C   UNL     1      -7.681   5.752  66.960  1.00  0.00    -0.101 C  
HETATM   38  H   UNL     1      -6.194   4.516  66.573  1.00  0.00     0.000 HD 
HETATM   39  O   UNL     1      -6.540   5.305  66.172  1.00  0.00    -0.046 OA 
BRANCH  37  40
HETATM   40  C   UNL     1      -8.514   4.474  67.504  1.00  0.00    -0.103 C  
BRANCH  40  41
HETATM   41  C   UNL     1      -9.172   3.766  66.266  1.00  0.00    -0.172 A  
HETATM   42  C   UNL     1     -10.223   4.383  65.577  1.00  0.00    -0.260 A  
HETATM   43  C   UNL     1      -8.614   2.596  65.697  1.00  0.00    -0.109 A  
HETATM   44  C   UNL     1      -9.093   2.037  64.486  1.00  0.00    -0.123 A  
HETATM   45  C   UNL     1     -10.708   3.806  64.368  1.00  0.00    -0.180 A  
HETATM   46  C   UNL     1     -10.170   2.670  63.843  1.00  0.00    -0.124 A  
ENDBRANCH  40  41
BRANCH  40  47
HETATM   47  N   UNL     1      -9.433   4.492  68.773  1.00  0.00    -0.146 N  
HETATM   48  C   UNL     1      -9.275   5.166  70.017  1.00  0.00    -0.134 C  
HETATM   49  H   UNL     1     -10.280   3.930  68.696  1.00  0.00     0.000 HD 
HETATM   50  O   UNL     1      -8.430   6.033  70.194  1.00  0.00    -0.124 OA 
BRANCH  48  51
HETATM   51  O   UNL     1     -10.164   4.742  71.031  1.00  0.00    -0.214 OA 
HETATM   52  C   UNL     1      -9.815   4.186  72.423  1.00  0.00    -0.160 C  
HETATM   53  C   UNL     1      -8.803   3.025  72.449  1.00  0.00    -0.109 C  
HETATM   54  C   UNL     1     -11.080   3.593  73.141  1.00  0.00    -0.188 C  
HETATM   55  C   UNL     1      -9.304   5.308  73.347  1.00  0.00    -0.135 C  
ENDBRANCH  48  51
ENDBRANCH  40  47
ENDBRANCH  37  40
ENDBRANCH  35  37
ENDBRANCH  34  35
ENDBRANCH   8  34
BRANCH  22  56
HETATM   56  O   UNL     1      -5.940  12.250  66.928  1.00  0.00    -0.251 OA 
HETATM   57  C   UNL     1      -5.278  12.395  68.205  1.00  0.00    -0.065 C  
ENDBRANCH  22  56
BRANCH  11  58
HETATM   58  O   UNL     1      -8.907  16.801  67.887  1.00  0.00    -0.211 OA 
HETATM   59  C   UNL     1      -8.020  17.931  67.936  1.00  0.00    -0.235 C  
ENDBRANCH  11  58
BRANCH   5  60
HETATM   60  O   UNL     1     -12.458  14.058  70.083  1.00  0.00    -0.344 OA 
BRANCH  60  61
HETATM   61  C   UNL     1     -13.134  14.602  71.099  1.00  0.00    -0.366 C  
HETATM   62  C   UNL     1     -12.892  13.787  72.342  1.00  0.00    -0.353 C  
HETATM   63  O   UNL     1     -13.807  15.639  71.132  1.00  0.00    -0.583 OA 
ENDBRANCH  60  61
ENDBRANCH   5  60
TORSDOF 14
ENDMDL
MODEL       15
REMARK 921   NORMALIZED FREE ENERGY PREDICTED BY IDOCK:   -4.44 KCAL/MOL
REMARK 922        TOTAL FREE ENERGY PREDICTED BY IDOCK:  -11.40 KCAL/MOL
REMARK 923 INTER-LIGAND FREE ENERGY PREDICTED BY IDOCK:   -8.03 KCAL/MOL
REMARK 924 INTRA-LIGAND FREE ENERGY PREDICTED BY IDOCK:   -3.37 KCAL/MOL
REMARK 927      BINDING AFFINITY PREDICTED BY RF-SCORE:    0.00 PKD
ROOT
HETATM    1  C   UNL     1      -8.804  14.482  68.079  1.00  0.00    -0.175 C  
HETATM    2  C   UNL     1      -8.501  12.717  68.822  1.00  0.00     0.163 C  
HETATM    3  C   UNL     1     -11.082  10.176  69.449  1.00  0.00    -0.288 C  
HETATM    4  C   UNL     1      -9.589  11.743  68.266  1.00  0.00    -0.199 C  
HETATM    5  C   UNL     1      -7.857  15.571  68.672  1.00  0.00    -0.143 C  
HETATM    6  O   UNL     1      -9.881  12.804  67.420  1.00  0.00    -0.205 OA 
HETATM    7  C   UNL     1      -9.037  10.414  67.533  1.00  0.00    -0.142 C  
HETATM    8  C   UNL     1      -9.990   9.576  66.606  1.00  0.00    -0.247 C  
HETATM    9  C   UNL     1     -11.489  14.431  66.577  1.00  0.00    -0.362 C  
HETATM   10  H   UNL     1     -10.543  12.211  67.082  1.00  0.00     0.000 HD 
HETATM   11  C   UNL     1     -10.131  16.683  66.883  1.00  0.00    -0.280 C  
HETATM   12  C   UNL     1      -8.769  17.359  67.015  1.00  0.00    -0.249 C  
HETATM   13  C   UNL     1      -9.489  15.121  65.166  1.00  0.00     0.362 C  
HETATM   14  C   UNL     1     -10.557  10.751  65.942  1.00  0.00    -0.216 C  
HETATM   15  C   UNL     1      -8.121  17.083  68.347  1.00  0.00    -0.245 C  
HETATM   16  C   UNL     1      -9.333  11.320  65.024  1.00  0.00    -0.200 C  
HETATM   17  O   UNL     1      -8.936  17.245  69.530  1.00  0.00     0.228 OA 
HETATM   18  C   UNL     1     -11.476  11.518  66.695  1.00  0.00    -0.205 C  
HETATM   19  C   UNL     1     -11.105  11.473  68.522  1.00  0.00    -0.287 C  
HETATM   20  C   UNL     1      -9.922  15.110  66.700  1.00  0.00    -0.261 C  
HETATM   21  O   UNL     1     -12.501  14.995  66.993  1.00  0.00     0.256 OA 
HETATM   22  C   UNL     1     -11.605  12.968  65.867  1.00  0.00    -0.363 C  
HETATM   23  C   UNL     1      -8.439  15.997  70.063  1.00  0.00     0.829 C  
HETATM   24  C   UNL     1     -11.686  12.496  69.612  1.00  0.00    -0.372 C  
ENDROOT
BRANCH   2  25
HETATM   25  O   UNL     1      -7.200  11.822  68.607  1.00  0.00    -0.098 OA 
BRANCH  25  26
HETATM   26  C   UNL     1      -6.373  11.304  69.679  1.00  0.00    -0.124 C  
HETATM   27  O   UNL     1      -5.248  11.788  69.815  1.00  0.00    -0.064 OA 
BRANCH  26  28
HETATM   28  C   UNL     1      -6.645   9.913  70.542  1.00  0.00    -0.120 A  
HETATM   29  C   UNL     1      -6.025   7.780  71.789  1.00  0.00    -0.035 A  
HETATM   30  C   UNL     1      -7.941   9.361  70.532  1.00  0.00    -0.199 A  
HETATM   31  C   UNL     1      -5.696   8.984  71.095  1.00  0.00    -0.047 A  
HETATM   32  C   UNL     1      -8.278   8.115  71.160  1.00  0.00    -0.123 A  
HETATM   33  C   UNL     1      -7.333   7.347  71.831  1.00  0.00    -0.079 A  
ENDBRANCH  26  28
ENDBRANCH  25  26
ENDBRANCH   2  25
BRANCH   8  34
HETATM   34  O   UNL     1      -9.424   8.695  65.562  1.00  0.00    -0.123 OA 
BRANCH  34  35
HETATM   35  C   UNL     1      -8.775   7.562  65.993  1.00  0.00    -0.158 C  
HETATM   36  O   UNL     1      -7.975   6.971  65.264  1.00  0.00    -0.114 OA 
BRANCH  35  37
HETATM   37  C   UNL     1      -9.232   6.888  67.337  1.00  0.00    -0.125 C  
HETATM   38  H   UNL     1      -8.318   6.185  68.936  1.00  0.00     0.000 HD 
HETATM   39  O   UNL     1      -8.042   6.593  68.124  1.00  0.00    -0.109 OA 
BRANCH  37  40
HETATM   40  C   UNL     1     -10.330   5.713  67.529  1.00  0.00    -0.222 C  
BRANCH  40  41
HETATM   41  C   UNL     1     -10.538   5.496  69.070  1.00  0.00    -0.271 A  
HETATM   42  C   UNL     1      -9.783   4.535  69.753  1.00  0.00    -0.285 A  
HETATM   43  C   UNL     1     -11.337   6.371  69.842  1.00  0.00    -0.500 A  
HETATM   44  C   UNL     1     -11.406   6.290  71.256  1.00  0.00    -0.356 A  
HETATM   45  C   UNL     1      -9.868   4.451  71.173  1.00  0.00    -0.258 A  
HETATM   46  C   UNL     1     -10.656   5.291  71.900  1.00  0.00    -0.274 A  
ENDBRANCH  40  41
BRANCH  40  47
HETATM   47  N   UNL     1     -10.357   4.383  66.701  1.00  0.00    -0.299 N  
HETATM   48  C   UNL     1      -9.290   3.581  66.208  1.00  0.00    -0.166 C  
HETATM   49  H   UNL     1     -11.290   4.036  66.479  1.00  0.00     0.000 HD 
HETATM   50  O   UNL     1      -8.129   3.742  66.558  1.00  0.00    -0.095 OA 
BRANCH  48  51
HETATM   51  O   UNL     1      -9.679   2.595  65.274  1.00  0.00     0.005 OA 
HETATM   52  C   UNL     1      -9.785   2.730  63.744  1.00  0.00    -0.134 C  
HETATM   53  C   UNL     1     -10.605   3.928  63.230  1.00  0.00    -0.177 C  
HETATM   54  C   UNL     1     -10.500   1.487  63.103  1.00  0.00    -0.133 C  
HETATM   55  C   UNL     1      -8.385   2.777  63.102  1.00  0.00    -0.085 C  
ENDBRANCH  48  51
ENDBRANCH  40  47
ENDBRANCH  37  40
ENDBRANCH  35  37
ENDBRANCH  34  35
ENDBRANCH   8  34
BRANCH  22  56
HETATM   56  O   UNL     1     -12.422  12.842  64.681  1.00  0.00    -0.481 OA 
HETATM   57  C   UNL     1     -11.804  13.341  63.474  1.00  0.00    -0.418 C  
ENDBRANCH  22  56
BRANCH  11  58
HETATM   58  O   UNL     1     -11.021  17.080  67.923  1.00  0.00    -0.337 OA 
HETATM   59  C   UNL     1     -11.225  18.502  67.952  1.00  0.00     0.397 C  
ENDBRANCH  11  58
BRANCH   5  60
HETATM   60  O   UNL     1      -6.512  15.059  68.664  1.00  0.00    -0.083 OA 
BRANCH  60  61
HETATM   61  C   UNL     1      -5.788  15.074  67.541  1.00  0.00     0.069 C  
HETATM   62  C   UNL     1      -5.187  13.710  67.326  1.00  0.00     0.463 C  
HETATM   63  O   UNL     1      -5.640  15.980  66.711  1.00  0.00    -0.268 OA 
ENDBRANCH  60  61
ENDBRANCH   5  60
TORSDOF 14
ENDMDL
MODEL       16
REMARK 921   NORMALIZED FREE ENERGY PREDICTED BY IDOCK:   -4.20 KCAL/MOL
REMARK 922        TOTAL FREE ENERGY PREDICTED BY IDOCK:  -10.96 KCAL/MOL
REMARK 923 INTER-LIGAND FREE ENERGY PREDICTED BY IDOCK:   -8.61 KCAL/MOL
REMARK 924 INTRA-LIGAND FREE ENERGY PREDICTED BY IDOCK:   -2.35 KCAL/MOL
REMARK 927      BINDING AFFINITY PREDICTED BY RF-SCORE:    0.00 PKD
ROOT
HETATM    1  C   UNL     1      -8.901  14.329  67.623  1.00  0.00    -0.196 C  
HETATM    2  C   UNL     1      -8.483  12.641  68.479  1.00  0.00    -0.051 C  
HETATM    3  C   UNL     1     -10.928  10.143  69.618  1.00  0.00    -0.305 C  
HETATM    4  C   UNL     1      -9.608  11.611  68.139  1.00  0.00    -0.190 C  
HETATM    5  C   UNL     1      -7.914  15.476  68.006  1.00  0.00    -0.133 C  
HETATM    6  O   UNL     1     -10.014  12.589  67.242  1.00  0.00    -0.208 OA 
HETATM    7  C   UNL     1      -9.117  10.227  67.469  1.00  0.00    -0.146 C  
HETATM    8  C   UNL     1     -10.153   9.300  66.734  1.00  0.00    -0.261 C  
HETATM    9  C   UNL     1     -11.737  14.120  66.448  1.00  0.00    -0.390 C  
HETATM   10  H   UNL     1     -10.698  11.963  67.035  1.00  0.00     0.000 HD 
HETATM   11  C   UNL     1     -10.397  16.402  66.397  1.00  0.00    -0.313 C  
HETATM   12  C   UNL     1      -9.042  17.099  66.313  1.00  0.00    -0.260 C  
HETATM   13  C   UNL     1      -9.923  14.698  64.762  1.00  0.00     0.074 C  
HETATM   14  C   UNL     1     -10.814  10.406  66.037  1.00  0.00     0.046 C  
HETATM   15  C   UNL     1      -8.243  16.949  67.582  1.00  0.00    -0.186 C  
HETATM   16  C   UNL     1      -9.712  10.901  64.939  1.00  0.00    -0.318 C  
HETATM   17  O   UNL     1      -8.922  17.210  68.830  1.00  0.00    -0.261 OA 
HETATM   18  C   UNL     1     -11.656  11.229  66.820  1.00  0.00     0.057 C  
HETATM   19  C   UNL     1     -11.081  11.352  68.590  1.00  0.00    -0.290 C  
HETATM   20  C   UNL     1     -10.180  14.821  66.331  1.00  0.00    -0.299 C  
HETATM   21  O   UNL     1     -12.707  14.710  66.925  1.00  0.00     0.174 OA 
HETATM   22  C   UNL     1     -11.905  12.598  65.888  1.00  0.00    -0.444 C  
HETATM   23  C   UNL     1      -8.344  16.019  69.412  1.00  0.00    -0.139 C  
HETATM   24  C   UNL     1     -11.554  12.463  69.644  1.00  0.00    -0.330 C  
ENDROOT
BRANCH   2  25
HETATM   25  O   UNL     1      -7.198  11.742  68.197  1.00  0.00    -0.076 OA 
BRANCH  25  26
HETATM   26  C   UNL     1      -6.294  11.256  69.221  1.00  0.00    -0.081 C  
HETATM   27  O   UNL     1      -5.139  11.686  69.212  1.00  0.00    -0.048 OA 
BRANCH  26  28
HETATM   28  C   UNL     1      -6.545   9.946  70.209  1.00  0.00    -0.116 A  
HETATM   29  C   UNL     1      -6.014   7.700  71.288  1.00  0.00    -0.035 A  
HETATM   30  C   UNL     1      -7.849   9.706  70.686  1.00  0.00    -0.084 A  
HETATM   31  C   UNL     1      -5.694   8.812  70.450  1.00  0.00    -0.027 A  
HETATM   32  C   UNL     1      -8.209   8.557  71.467  1.00  0.00    -0.199 A  
HETATM   33  C   UNL     1      -7.284   7.579  71.812  1.00  0.00    -0.063 A  
ENDBRANCH  26  28
ENDBRANCH  25  26
ENDBRANCH   2  25
BRANCH   8  34
HETATM   34  O   UNL     1      -9.692   8.335  65.713  1.00  0.00    -0.030 OA 
BRANCH  34  35
HETATM   35  C   UNL     1      -8.549   7.626  66.003  1.00  0.00    -0.151 C  
HETATM   36  O   UNL     1      -7.563   7.677  65.264  1.00  0.00    -0.078 OA 
BRANCH  35  37
HETATM   37  C   UNL     1      -8.586   6.565  67.161  1.00  0.00    -0.111 C  
HETATM   38  H   UNL     1      -7.755   6.400  68.942  1.00  0.00     0.000 HD 
HETATM   39  O   UNL     1      -7.733   7.042  68.242  1.00  0.00    -0.111 OA 
BRANCH  37  40
HETATM   40  C   UNL     1      -8.464   4.955  67.028  1.00  0.00    -0.105 C  
BRANCH  40  41
HETATM   41  C   UNL     1      -9.022   4.544  65.619  1.00  0.00    -0.134 A  
HETATM   42  C   UNL     1      -8.142   4.245  64.573  1.00  0.00    -0.095 A  
HETATM   43  C   UNL     1     -10.397   4.283  65.413  1.00  0.00    -0.217 A  
HETATM   44  C   UNL     1     -10.897   3.754  64.196  1.00  0.00    -0.179 A  
HETATM   45  C   UNL     1      -8.653   3.727  63.348  1.00  0.00    -0.093 A  
HETATM   46  C   UNL     1      -9.982   3.496  63.160  1.00  0.00    -0.146 A  
ENDBRANCH  40  41
BRANCH  40  47
HETATM   47  N   UNL     1      -8.835   3.943  68.166  1.00  0.00    -0.103 N  
HETATM   48  C   UNL     1      -9.572   4.135  69.369  1.00  0.00    -0.194 C  
HETATM   49  H   UNL     1      -8.494   2.993  68.022  1.00  0.00     0.000 HD 
HETATM   50  O   UNL     1     -10.219   5.150  69.590  1.00  0.00    -0.241 OA 
BRANCH  48  51
HETATM   51  O   UNL     1      -9.485   3.066  70.288  1.00  0.00    -0.156 OA 
HETATM   52  C   UNL     1      -9.099   3.128  71.777  1.00  0.00    -0.104 C  
HETATM   53  C   UNL     1      -7.789   3.872  72.101  1.00  0.00    -0.072 C  
HETATM   54  C   UNL     1      -8.870   1.694  72.374  1.00  0.00    -0.079 C  
HETATM   55  C   UNL     1     -10.237   3.745  72.611  1.00  0.00    -0.238 C  
ENDBRANCH  48  51
ENDBRANCH  40  47
ENDBRANCH  37  40
ENDBRANCH  35  37
ENDBRANCH  34  35
ENDBRANCH   8  34
BRANCH  22  56
HETATM   56  O   UNL     1     -12.848  12.359  64.818  1.00  0.00    -0.728 OA 
HETATM   57  C   UNL     1     -12.706  13.246  63.686  1.00  0.00     0.064 C  
ENDBRANCH  22  56
BRANCH  11  58
HETATM   58  O   UNL     1     -11.171  16.883  67.493  1.00  0.00    -0.100 OA 
HETATM   59  C   UNL     1     -11.286  18.315  67.492  1.00  0.00     0.321 C  
ENDBRANCH  11  58
BRANCH   5  60
HETATM   60  O   UNL     1      -6.569  14.977  67.889  1.00  0.00    -0.128 OA 
BRANCH  60  61
HETATM   61  C   UNL     1      -5.673  15.213  68.852  1.00  0.00    -0.094 C  
HETATM   62  C   UNL     1      -5.178  16.630  68.725  1.00  0.00    -0.122 C  
HETATM   63  O   UNL     1      -5.304  14.484  69.781  1.00  0.00    -0.092 OA 
ENDBRANCH  60  61
ENDBRANCH   5  60
TORSDOF 14
ENDMDL
MODEL       17
REMARK 921   NORMALIZED FREE ENERGY PREDICTED BY IDOCK:   -4.14 KCAL/MOL
REMARK 922        TOTAL FREE ENERGY PREDICTED BY IDOCK:  -10.86 KCAL/MOL
REMARK 923 INTER-LIGAND FREE ENERGY PREDICTED BY IDOCK:   -9.07 KCAL/MOL
REMARK 924 INTRA-LIGAND FREE ENERGY PREDICTED BY IDOCK:   -1.79 KCAL/MOL
REMARK 927      BINDING AFFINITY PREDICTED BY RF-SCORE:    0.00 PKD
ROOT
HETATM    1  C   UNL     1      -8.152   7.269  70.087  1.00  0.00    -0.129 C  
HETATM    2  C   UNL     1      -7.777   8.334  68.512  1.00  0.00    -0.112 C  
HETATM    3  C   UNL     1     -10.221   9.318  65.948  1.00  0.00    -0.054 C  
HETATM    4  C   UNL     1      -9.066   9.125  68.119  1.00  0.00    -0.132 C  
HETATM    5  C   UNL     1      -6.974   6.329  70.491  1.00  0.00    -0.064 C  
HETATM    6  O   UNL     1      -9.525   8.676  69.349  1.00  0.00    -0.159 OA 
HETATM    7  C   UNL     1      -8.899  10.726  67.992  1.00  0.00    -0.132 C  
HETATM    8  C   UNL     1     -10.170  11.651  67.995  1.00  0.00    -0.190 C  
HETATM    9  C   UNL     1     -11.174   7.432  70.645  1.00  0.00    -0.270 C  
HETATM   10  H   UNL     1     -10.309   9.158  69.111  1.00  0.00     0.000 HD 
HETATM   11  C   UNL     1      -9.603   5.840  72.060  1.00  0.00    -0.150 C  
HETATM   12  C   UNL     1      -8.219   5.591  72.654  1.00  0.00    -0.113 C  
HETATM   13  C   UNL     1      -9.691   8.193  72.566  1.00  0.00    -0.357 C  
HETATM   14  C   UNL     1     -10.820  10.939  69.098  1.00  0.00    -0.280 C  
HETATM   15  C   UNL     1      -7.199   5.243  71.601  1.00  0.00    -0.076 C  
HETATM   16  C   UNL     1      -9.917  11.319  70.404  1.00  0.00     2.227 C  
HETATM   17  O   UNL     1      -7.567   4.247  70.621  1.00  0.00    -0.050 OA 
HETATM   18  C   UNL     1     -11.374   9.674  68.791  1.00  0.00     0.089 C  
HETATM   19  C   UNL     1     -10.434   8.798  67.440  1.00  0.00    -0.349 C  
HETATM   20  C   UNL     1      -9.600   7.240  71.290  1.00  0.00    -0.164 C  
HETATM   21  O   UNL     1     -11.943   6.490  70.455  1.00  0.00    -0.397 OA 
HETATM   22  C   UNL     1     -11.640   8.951  70.278  1.00  0.00    -0.033 C  
HETATM   23  C   UNL     1      -7.033   5.071  69.559  1.00  0.00    -0.054 C  
HETATM   24  C   UNL     1     -10.538   7.234  67.102  1.00  0.00    -0.416 C  
ENDROOT
BRANCH   2  25
HETATM   25  O   UNL     1      -6.699   9.503  68.407  1.00  0.00    -0.057 OA 
BRANCH  25  26
HETATM   26  C   UNL     1      -5.926   9.804  67.218  1.00  0.00    -0.051 C  
HETATM   27  O   UNL     1      -5.125  10.738  67.281  1.00  0.00    -0.036 OA 
BRANCH  26  28
HETATM   28  C   UNL     1      -6.226   9.242  65.685  1.00  0.00    -0.063 A  
HETATM   29  C   UNL     1      -6.866   7.533  63.909  1.00  0.00    -0.054 A  
HETATM   30  C   UNL     1      -5.734   9.983  64.593  1.00  0.00    -0.110 A  
HETATM   31  C   UNL     1      -6.677   7.943  65.263  1.00  0.00    -0.051 A  
HETATM   32  C   UNL     1      -5.847   9.553  63.227  1.00  0.00    -0.091 A  
HETATM   33  C   UNL     1      -6.456   8.353  62.879  1.00  0.00    -0.087 A  
ENDBRANCH  26  28
ENDBRANCH  25  26
ENDBRANCH   2  25
BRANCH   8  34
HETATM   34  O   UNL     1     -10.053  13.073  68.381  1.00  0.00    -0.231 OA 
BRANCH  34  35
HETATM   35  C   UNL     1     -11.218  13.803  68.413  1.00  0.00    -0.272 C  
HETATM   36  O   UNL     1     -12.306  13.258  68.608  1.00  0.00    -0.169 OA 
BRANCH  35  37
HETATM   37  C   UNL     1     -11.183  15.310  67.967  1.00  0.00    -0.326 C  
HETATM   38  H   UNL     1     -12.244  16.920  68.378  1.00  0.00     0.000 HD 
HETATM   39  O   UNL     1     -12.265  16.009  68.648  1.00  0.00    -0.080 OA 
BRANCH  37  40
HETATM   40  C   UNL     1     -11.003  15.891  66.466  1.00  0.00    -0.121 C  
BRANCH  40  41
HETATM   41  C   UNL     1     -11.202  14.701  65.462  1.00  0.00    -0.343 A  
HETATM   42  C   UNL     1     -10.095  13.990  64.984  1.00  0.00    -0.323 A  
HETATM   43  C   UNL     1     -12.487  14.193  65.158  1.00  0.00    -0.453 A  
HETATM   44  C   UNL     1     -12.678  13.019  64.387  1.00  0.00    -0.275 A  
HETATM   45  C   UNL     1     -10.295  12.819  64.197  1.00  0.00    -0.401 A  
HETATM   46  C   UNL     1     -11.540  12.353  63.900  1.00  0.00    -0.518 A  
ENDBRANCH  40  41
BRANCH  40  47
HETATM   47  N   UNL     1      -9.878  16.892  66.034  1.00  0.00    -0.282 N  
HETATM   48  C   UNL     1      -9.563  18.193  66.519  1.00  0.00    -0.317 C  
HETATM   49  H   UNL     1      -9.273  16.558  65.284  1.00  0.00     0.000 HD 
HETATM   50  O   UNL     1     -10.053  18.651  67.542  1.00  0.00    -0.326 OA 
BRANCH  48  51
HETATM   51  O   UNL     1      -8.650  18.913  65.716  1.00  0.00    -0.417 OA 
HETATM   52  C   UNL     1      -7.236  19.394  66.089  1.00  0.00    -0.267 C  
HETATM   53  C   UNL     1      -7.120  20.184  67.406  1.00  0.00    -0.304 C  
HETATM   54  C   UNL     1      -6.658  20.379  65.011  1.00  0.00    -0.335 C  
HETATM   55  C   UNL     1      -6.251  18.209  66.135  1.00  0.00    -0.250 C  
ENDBRANCH  48  51
ENDBRANCH  40  47
ENDBRANCH  37  40
ENDBRANCH  35  37
ENDBRANCH  34  35
ENDBRANCH   8  34
BRANCH  22  56
HETATM   56  O   UNL     1     -12.806   9.491  70.941  1.00  0.00    -0.253 OA 
HETATM   57  C   UNL     1     -13.105   8.883  72.217  1.00  0.00    -0.436 C  
ENDBRANCH  22  56
BRANCH  11  58
HETATM   58  O   UNL     1     -10.067   4.717  71.316  1.00  0.00    -0.191 OA 
HETATM   59  C   UNL     1     -10.202   3.541  72.130  1.00  0.00    -0.083 C  
ENDBRANCH  11  58
BRANCH   5  60
HETATM   60  O   UNL     1      -5.754   7.093  70.470  1.00  0.00    -0.024 OA 
BRANCH  60  61
HETATM   61  C   UNL     1      -5.514   8.012  71.409  1.00  0.00    -0.034 C  
HETATM   62  C   UNL     1      -5.579   7.358  72.764  1.00  0.00    -0.037 C  
HETATM   63  O   UNL     1      -5.203   9.203  71.285  1.00  0.00    -0.033 OA 
ENDBRANCH  60  61
ENDBRANCH   5  60
TORSDOF 14
ENDMDL
MODEL       18
REMARK 921   NORMALIZED FREE ENERGY PREDICTED BY IDOCK:   -4.14 KCAL/MOL
REMARK 922        TOTAL FREE ENERGY PREDICTED BY IDOCK:  -10.84 KCAL/MOL
REMARK 923 INTER-LIGAND FREE ENERGY PREDICTED BY IDOCK:   -7.13 KCAL/MOL
REMARK 924 INTRA-LIGAND FREE ENERGY PREDICTED BY IDOCK:   -3.71 KCAL/MOL
REMARK 927      BINDING AFFINITY PREDICTED BY RF-SCORE:    0.00 PKD
ROOT
HETATM    1  C   UNL     1     -10.671  13.863  68.425  1.00  0.00    -0.267 C  
HETATM    2  C   UNL     1     -11.468  12.229  67.753  1.00  0.00    -0.329 C  
HETATM    3  C   UNL     1     -10.519  10.488  64.657  1.00  0.00    -0.181 C  
HETATM    4  C   UNL     1     -10.395  11.448  66.926  1.00  0.00    -0.227 C  
HETATM    5  C   UNL     1     -11.692  14.792  69.153  1.00  0.00    -0.313 C  
HETATM    6  O   UNL     1      -9.527  12.389  67.462  1.00  0.00    -0.179 OA 
HETATM    7  C   UNL     1     -10.124   9.925  67.384  1.00  0.00    -0.254 C  
HETATM    8  C   UNL     1      -8.824   9.181  66.905  1.00  0.00    -0.123 C  
HETATM    9  C   UNL     1      -7.900  14.173  67.124  1.00  0.00    -0.037 C  
HETATM   10  H   UNL     1      -8.875  11.915  66.959  1.00  0.00     0.000 HD 
HETATM   11  C   UNL     1      -8.912  16.074  68.664  1.00  0.00    -0.210 C  
HETATM   12  C   UNL     1      -9.797  16.433  69.854  1.00  0.00     0.227 C  
HETATM   13  C   UNL     1      -7.888  14.138  69.667  1.00  0.00     0.459 C  
HETATM   14  C   UNL     1      -7.945  10.325  67.158  1.00  0.00    -0.114 C  
HETATM   15  C   UNL     1     -11.262  16.246  69.554  1.00  0.00    -0.308 C  
HETATM   16  C   UNL     1      -7.892  10.434  68.786  1.00  0.00    -0.108 C  
HETATM   17  O   UNL     1     -11.761  16.789  68.311  1.00  0.00     0.060 OA 
HETATM   18  C   UNL     1      -8.028  11.398  66.240  1.00  0.00    -0.037 C  
HETATM   19  C   UNL     1      -9.736  11.580  65.516  1.00  0.00    -0.259 C  
HETATM   20  C   UNL     1      -8.895  14.487  68.481  1.00  0.00    -0.182 C  
HETATM   21  O   UNL     1      -7.654  15.015  66.261  1.00  0.00     0.638 OA 
HETATM   22  C   UNL     1      -7.264  12.677  67.006  1.00  0.00     0.074 C  
HETATM   23  C   UNL     1     -12.493  15.569  68.053  1.00  0.00     0.952 C  
HETATM   24  C   UNL     1     -10.286  12.878  64.753  1.00  0.00    -0.345 C  
ENDROOT
BRANCH   2  25
HETATM   25  O   UNL     1     -12.046  11.037  68.639  1.00  0.00    -0.551 OA 
BRANCH  25  26
HETATM   26  C   UNL     1     -11.573  10.696  69.966  1.00  0.00    -0.325 C  
HETATM   27  O   UNL     1     -10.932  11.551  70.580  1.00  0.00     0.512 OA 
BRANCH  26  28
HETATM   28  C   UNL     1     -11.520   9.174  70.627  1.00  0.00    -0.310 A  
HETATM   29  C   UNL     1     -11.437   6.628  70.622  1.00  0.00    -0.420 A  
HETATM   30  C   UNL     1     -11.882   9.018  71.979  1.00  0.00    -0.426 A  
HETATM   31  C   UNL     1     -11.432   7.898  69.969  1.00  0.00     0.046 A  
HETATM   32  C   UNL     1     -11.966   7.744  72.637  1.00  0.00    -0.257 A  
HETATM   33  C   UNL     1     -11.696   6.553  71.974  1.00  0.00    -0.367 A  
ENDBRANCH  26  28
ENDBRANCH  25  26
ENDBRANCH   2  25
BRANCH   8  34
HETATM   34  O   UNL     1      -8.302   8.030  67.672  1.00  0.00    -0.125 OA 
BRANCH  34  35
HETATM   35  C   UNL     1      -7.745   7.004  66.946  1.00  0.00    -0.103 C  
HETATM   36  O   UNL     1      -8.323   6.533  65.963  1.00  0.00    -0.120 OA 
BRANCH  35  37
HETATM   37  C   UNL     1      -6.475   6.273  67.512  1.00  0.00    -0.046 C  
HETATM   38  H   UNL     1      -5.121   5.040  66.780  1.00  0.00     0.000 HD 
HETATM   39  O   UNL     1      -5.889   5.482  66.438  1.00  0.00    -0.017 OA 
BRANCH  37  40
HETATM   40  C   UNL     1      -6.335   5.485  68.921  1.00  0.00    -0.038 C  
BRANCH  40  41
HETATM   41  C   UNL     1      -7.370   4.304  68.916  1.00  0.00    -0.055 A  
HETATM   42  C   UNL     1      -6.930   2.982  68.777  1.00  0.00    -0.048 A  
HETATM   43  C   UNL     1      -8.732   4.510  69.237  1.00  0.00    -0.117 A  
HETATM   44  C   UNL     1      -9.646   3.439  69.400  1.00  0.00    -0.143 A  
HETATM   45  C   UNL     1      -7.858   1.911  68.928  1.00  0.00    -0.051 A  
HETATM   46  C   UNL     1      -9.170   2.129  69.221  1.00  0.00    -0.187 A  
ENDBRANCH  40  41
BRANCH  40  47
HETATM   47  N   UNL     1      -6.190   6.184  70.315  1.00  0.00    -0.030 N  
HETATM   48  C   UNL     1      -6.118   5.628  71.624  1.00  0.00    -0.030 C  
HETATM   49  H   UNL     1      -6.140   7.202  70.280  1.00  0.00     0.000 HD 
HETATM   50  O   UNL     1      -5.958   4.432  71.823  1.00  0.00    -0.015 OA 
BRANCH  48  51
HETATM   51  O   UNL     1      -6.259   6.568  72.669  1.00  0.00    -0.052 OA 
HETATM   52  C   UNL     1      -7.540   7.289  73.127  1.00  0.00    -0.079 C  
HETATM   53  C   UNL     1      -8.347   7.992  72.020  1.00  0.00    -0.179 C  
HETATM   54  C   UNL     1      -7.221   8.441  74.145  1.00  0.00    -0.194 C  
HETATM   55  C   UNL     1      -8.473   6.320  73.879  1.00  0.00    -0.121 C  
ENDBRANCH  48  51
ENDBRANCH  40  47
ENDBRANCH  37  40
ENDBRANCH  35  37
ENDBRANCH  34  35
ENDBRANCH   8  34
BRANCH  22  56
HETATM   56  O   UNL     1      -5.825  12.541  66.979  1.00  0.00    -0.304 OA 
HETATM   57  C   UNL     1      -5.191  12.634  68.275  1.00  0.00    -0.065 C  
ENDBRANCH  22  56
BRANCH  11  58
HETATM   58  O   UNL     1      -9.249  16.834  67.507  1.00  0.00    -0.213 OA 
HETATM   59  C   UNL     1      -8.716  18.168  67.556  1.00  0.00    -0.249 C  
ENDBRANCH  11  58
BRANCH   5  60
HETATM   60  O   UNL     1     -12.462  13.993  70.070  1.00  0.00    -0.335 OA 
BRANCH  60  61
HETATM   61  C   UNL     1     -12.735  14.443  71.298  1.00  0.00    -0.344 C  
HETATM   62  C   UNL     1     -14.168  14.902  71.346  1.00  0.00    -0.558 C  
HETATM   63  O   UNL     1     -12.023  14.449  72.310  1.00  0.00    -0.156 OA 
ENDBRANCH  60  61
ENDBRANCH   5  60
TORSDOF 14
ENDMDL
MODEL       19
REMARK 921   NORMALIZED FREE ENERGY PREDICTED BY IDOCK:   -2.89 KCAL/MOL
REMARK 922        TOTAL FREE ENERGY PREDICTED BY IDOCK:   -8.57 KCAL/MOL
REMARK 923 INTER-LIGAND FREE ENERGY PREDICTED BY IDOCK:   -6.91 KCAL/MOL
REMARK 924 INTRA-LIGAND FREE ENERGY PREDICTED BY IDOCK:   -1.66 KCAL/MOL
REMARK 927      BINDING AFFINITY PREDICTED BY RF-SCORE:    0.00 PKD
ROOT
HETATM    1  C   UNL     1     -10.595  13.719  68.498  1.00  0.00    -0.261 C  
HETATM    2  C   UNL     1     -11.411  12.199  67.614  1.00  0.00    -0.331 C  
HETATM    3  C   UNL     1     -10.468  10.864  64.321  1.00  0.00    -0.405 C  
HETATM    4  C   UNL     1     -10.345  11.517  66.696  1.00  0.00    -0.226 C  
HETATM    5  C   UNL     1     -11.608  14.559  69.337  1.00  0.00    -0.303 C  
HETATM    6  O   UNL     1      -9.467  12.366  67.355  1.00  0.00    -0.179 OA 
HETATM    7  C   UNL     1     -10.099   9.942  66.952  1.00  0.00    -0.285 C  
HETATM    8  C   UNL     1      -8.807   9.248  66.385  1.00  0.00    -0.146 C  
HETATM    9  C   UNL     1      -7.812  14.154  67.261  1.00  0.00    -0.132 C  
HETATM   10  H   UNL     1      -8.818  11.951  66.797  1.00  0.00     0.000 HD 
HETATM   11  C   UNL     1      -8.806  15.851  69.033  1.00  0.00    -0.243 C  
HETATM   12  C   UNL     1      -9.693  16.064  70.256  1.00  0.00     0.615 C  
HETATM   13  C   UNL     1      -7.817  13.785  69.778  1.00  0.00     0.947 C  
HETATM   14  C   UNL     1      -7.913  10.335  66.790  1.00  0.00    -0.114 C  
HETATM   15  C   UNL     1     -11.159  15.942  69.927  1.00  0.00    -0.343 C  
HETATM   16  C   UNL     1      -7.870  10.229  68.419  1.00  0.00    -0.102 C  
HETATM   17  O   UNL     1     -11.641  16.650  68.764  1.00  0.00    -0.178 OA 
HETATM   18  C   UNL     1      -7.974  11.520  66.021  1.00  0.00     0.179 C  
HETATM   19  C   UNL     1      -9.675  11.822  65.319  1.00  0.00    -0.236 C  
HETATM   20  C   UNL     1      -8.811  14.302  68.643  1.00  0.00    -0.150 C  
HETATM   21  O   UNL     1      -7.548  15.098  66.517  1.00  0.00     0.147 OA 
HETATM   22  C   UNL     1      -7.197  12.676  66.951  1.00  0.00     0.219 C  
HETATM   23  C   UNL     1     -12.389  15.486  68.345  1.00  0.00     0.414 C  
HETATM   24  C   UNL     1     -10.201  13.218  64.730  1.00  0.00    -0.323 C  
ENDROOT
BRANCH   2  25
HETATM   25  O   UNL     1     -12.013  10.910  68.333  1.00  0.00    -0.543 OA 
BRANCH  25  26
HETATM   26  C   UNL     1     -11.758  10.546  69.713  1.00  0.00    -0.281 C  
HETATM   27  O   UNL     1     -10.704  10.933  70.219  1.00  0.00    -0.052 OA 
BRANCH  26  28
HETATM   28  C   UNL     1     -12.573   9.396  70.590  1.00  0.00    -0.005 A  
HETATM   29  C   UNL     1     -13.477   7.076  71.127  1.00  0.00    -0.169 A  
HETATM   30  C   UNL     1     -13.498   9.826  71.562  1.00  0.00    -0.417 A  
HETATM   31  C   UNL     1     -12.713   7.987  70.336  1.00  0.00     0.742 A  
HETATM   32  C   UNL     1     -14.330   8.931  72.316  1.00  0.00    -0.418 A  
HETATM   33  C   UNL     1     -14.286   7.554  72.136  1.00  0.00    -0.336 A  
ENDBRANCH  26  28
ENDBRANCH  25  26
ENDBRANCH   2  25
BRANCH   8  34
HETATM   34  O   UNL     1      -8.307   7.999  66.997  1.00  0.00    -0.114 OA 
BRANCH  34  35
HETATM   35  C   UNL     1      -9.223   6.991  67.185  1.00  0.00    -0.137 C  
HETATM   36  O   UNL     1     -10.098   6.761  66.347  1.00  0.00    -0.109 OA 
BRANCH  35  37
HETATM   37  C   UNL     1      -9.297   6.281  68.585  1.00  0.00    -0.122 C  
HETATM   38  H   UNL     1     -10.196   6.649  70.301  1.00  0.00     0.000 HD 
HETATM   39  O   UNL     1     -10.151   7.078  69.454  1.00  0.00    -0.163 OA 
BRANCH  37  40
HETATM   40  C   UNL     1      -8.072   5.649  69.437  1.00  0.00    -0.100 C  
BRANCH  40  41
HETATM   41  C   UNL     1      -7.138   4.877  68.438  1.00  0.00    -0.061 A  
HETATM   42  C   UNL     1      -7.579   3.695  67.833  1.00  0.00    -0.066 A  
HETATM   43  C   UNL     1      -5.922   5.434  67.978  1.00  0.00    -0.018 A  
HETATM   44  C   UNL     1      -5.148   4.831  66.956  1.00  0.00    -0.008 A  
HETATM   45  C   UNL     1      -6.789   3.087  66.816  1.00  0.00    -0.049 A  
HETATM   46  C   UNL     1      -5.611   3.628  66.396  1.00  0.00    -0.018 A  
ENDBRANCH  40  41
BRANCH  40  47
HETATM   47  N   UNL     1      -8.235   4.933  70.821  1.00  0.00    -0.092 N  
HETATM   48  C   UNL     1      -7.377   4.913  71.957  1.00  0.00    -0.081 C  
HETATM   49  H   UNL     1      -9.094   4.394  70.926  1.00  0.00     0.000 HD 
HETATM   50  O   UNL     1      -6.419   5.665  72.071  1.00  0.00    -0.049 OA 
BRANCH  48  51
HETATM   51  O   UNL     1      -7.715   3.947  72.931  1.00  0.00    -0.071 OA 
HETATM   52  C   UNL     1      -9.042   3.182  73.085  1.00  0.00    -0.090 C  
HETATM   53  C   UNL     1     -10.317   4.046  73.106  1.00  0.00    -0.238 C  
HETATM   54  C   UNL     1      -9.101   2.396  74.443  1.00  0.00    -0.088 C  
HETATM   55  C   UNL     1      -9.187   2.114  71.983  1.00  0.00    -0.145 C  
ENDBRANCH  48  51
ENDBRANCH  40  47
ENDBRANCH  37  40
ENDBRANCH  35  37
ENDBRANCH  34  35
ENDBRANCH   8  34
BRANCH  22  56
HETATM   56  O   UNL     1      -5.760  12.523  66.913  1.00  0.00    -0.319 OA 
HETATM   57  C   UNL     1      -5.145  12.324  68.206  1.00  0.00    -0.056 C  
ENDBRANCH  22  56
BRANCH  11  58
HETATM   58  O   UNL     1      -9.124  16.762  67.984  1.00  0.00    -0.220 OA 
HETATM   59  C   UNL     1      -8.792  18.119  68.321  1.00  0.00    -0.283 C  
ENDBRANCH  11  58
BRANCH   5  60
HETATM   60  O   UNL     1     -12.395  13.659  70.137  1.00  0.00    -0.331 OA 
BRANCH  60  61
HETATM   61  C   UNL     1     -13.368  14.125  70.925  1.00  0.00    -0.163 C  
HETATM   62  C   UNL     1     -13.342  13.379  72.233  1.00  0.00    -0.641 C  
HETATM   63  O   UNL     1     -14.155  15.061  70.734  1.00  0.00    -0.170 OA 
ENDBRANCH  60  61
ENDBRANCH   5  60
TORSDOF 14
ENDMDL
MODEL       20
REMARK 921   NORMALIZED FREE ENERGY PREDICTED BY IDOCK:   -2.71 KCAL/MOL
REMARK 922        TOTAL FREE ENERGY PREDICTED BY IDOCK:   -8.26 KCAL/MOL
REMARK 923 INTER-LIGAND FREE ENERGY PREDICTED BY IDOCK:   -8.13 KCAL/MOL
REMARK 924 INTRA-LIGAND FREE ENERGY PREDICTED BY IDOCK:   -0.14 KCAL/MOL
REMARK 927      BINDING AFFINITY PREDICTED BY RF-SCORE:    0.00 PKD
ROOT
HETATM    1  C   UNL     1      -8.147   4.689  69.660  1.00  0.00    -0.064 C  
HETATM    2  C   UNL     1      -9.027   6.197  68.818  1.00  0.00    -0.123 C  
HETATM    3  C   UNL     1     -10.840   8.878  70.563  1.00  0.00    -0.276 C  
HETATM    4  C   UNL     1      -9.010   7.408  69.807  1.00  0.00    -0.141 C  
HETATM    5  C   UNL     1      -8.226   3.379  68.816  1.00  0.00    -0.060 C  
HETATM    6  O   UNL     1      -8.142   6.601  70.530  1.00  0.00    -0.113 OA 
HETATM    7  C   UNL     1      -8.362   8.772  69.237  1.00  0.00    -0.120 C  
HETATM    8  C   UNL     1      -7.932   9.912  70.232  1.00  0.00    -0.109 C  
HETATM    9  C   UNL     1      -7.605   5.426  72.598  1.00  0.00    -0.098 C  
HETATM   10  H   UNL     1      -8.131   7.337  71.131  1.00  0.00     0.000 HD 
HETATM   11  C   UNL     1      -7.099   2.996  71.678  1.00  0.00    -0.032 C  
HETATM   12  C   UNL     1      -6.681   2.127  70.495  1.00  0.00    -0.032 C  
HETATM   13  C   UNL     1      -5.539   4.784  71.259  1.00  0.00    -0.012 C  
HETATM   14  C   UNL     1      -7.304   8.994  71.184  1.00  0.00    -0.115 C  
HETATM   15  C   UNL     1      -7.765   2.022  69.453  1.00  0.00    -0.042 C  
HETATM   16  C   UNL     1      -5.966   8.470  70.408  1.00  0.00    -0.027 C  
HETATM   17  O   UNL     1      -9.103   1.726  69.912  1.00  0.00    -0.074 OA 
HETATM   18  C   UNL     1      -8.177   8.218  71.981  1.00  0.00    -0.211 C  
HETATM   19  C   UNL     1      -9.774   7.823  71.103  1.00  0.00    -0.175 C  
HETATM   20  C   UNL     1      -7.113   4.529  71.226  1.00  0.00    -0.043 C  
HETATM   21  O   UNL     1      -8.224   4.932  73.539  1.00  0.00    -0.106 OA 
HETATM   22  C   UNL     1      -7.212   7.009  72.623  1.00  0.00    -0.073 C  
HETATM   23  C   UNL     1      -9.643   2.752  69.049  1.00  0.00     0.021 C  
HETATM   24  C   UNL     1     -10.813   6.681  71.538  1.00  0.00    -0.277 C  
ENDROOT
BRANCH   2  25
HETATM   25  O   UNL     1      -8.556   6.930  67.484  1.00  0.00    -0.121 OA 
BRANCH  25  26
HETATM   26  C   UNL     1      -9.407   7.769  66.664  1.00  0.00    -0.188 C  
HETATM   27  O   UNL     1     -10.626   7.645  66.794  1.00  0.00    -0.325 OA 
BRANCH  26  28
HETATM   28  C   UNL     1      -8.933   8.650  65.340  1.00  0.00    -0.181 A  
HETATM   29  C   UNL     1      -7.312   9.546  63.590  1.00  0.00    -0.109 A  
HETATM   30  C   UNL     1      -9.766   9.697  64.898  1.00  0.00    -0.174 A  
HETATM   31  C   UNL     1      -7.643   8.719  64.706  1.00  0.00    -0.107 A  
HETATM   32  C   UNL     1      -9.421  10.587  63.826  1.00  0.00    -0.342 A  
HETATM   33  C   UNL     1      -8.217  10.483  63.138  1.00  0.00    -0.125 A  
ENDBRANCH  26  28
ENDBRANCH  25  26
ENDBRANCH   2  25
BRANCH   8  34
HETATM   34  O   UNL     1      -6.918  10.908  69.826  1.00  0.00    -0.142 OA 
BRANCH  34  35
HETATM   35  C   UNL     1      -6.671  11.026  68.479  1.00  0.00    -0.061 C  
HETATM   36  O   UNL     1      -5.602  10.651  67.992  1.00  0.00    -0.037 OA 
BRANCH  35  37
HETATM   37  C   UNL     1      -7.667  11.858  67.593  1.00  0.00    -0.141 C  
HETATM   38  H   UNL     1      -7.719  12.445  65.712  1.00  0.00     0.000 HD 
HETATM   39  O   UNL     1      -7.117  11.942  66.247  1.00  0.00     0.201 OA 
BRANCH  37  40
HETATM   40  C   UNL     1      -8.407  13.247  67.978  1.00  0.00    -0.162 C  
BRANCH  40  41
HETATM   41  C   UNL     1      -9.813  13.253  67.281  1.00  0.00    -0.233 A  
HETATM   42  C   UNL     1     -10.073  14.136  66.226  1.00  0.00    -0.308 A  
HETATM   43  C   UNL     1     -10.783  12.260  67.557  1.00  0.00    -0.255 A  
HETATM   44  C   UNL     1     -11.990  12.151  66.822  1.00  0.00    -0.170 A  
HETATM   45  C   UNL     1     -11.295  14.029  65.502  1.00  0.00    -0.313 A  
HETATM   46  C   UNL     1     -12.226  13.077  65.792  1.00  0.00    -0.511 A  
ENDBRANCH  40  41
BRANCH  40  47
HETATM   47  N   UNL     1      -7.707  14.649  67.985  1.00  0.00    -0.120 N  
HETATM   48  C   UNL     1      -7.630  15.648  66.974  1.00  0.00    -0.210 C  
HETATM   49  H   UNL     1      -7.230  14.885  68.855  1.00  0.00     0.000 HD 
HETATM   50  O   UNL     1      -8.313  15.612  65.960  1.00  0.00    -0.072 OA 
BRANCH  48  51
HETATM   51  O   UNL     1      -6.692  16.673  67.231  1.00  0.00    -0.143 OA 
HETATM   52  C   UNL     1      -6.722  17.721  68.358  1.00  0.00    -0.213 C  
HETATM   53  C   UNL     1      -8.035  18.512  68.506  1.00  0.00    -0.346 C  
HETATM   54  C   UNL     1      -5.638  18.836  68.138  1.00  0.00    -0.185 C  
HETATM   55  C   UNL     1      -6.379  17.074  69.714  1.00  0.00    -0.153 C  
ENDBRANCH  48  51
ENDBRANCH  40  47
ENDBRANCH  37  40
ENDBRANCH  35  37
ENDBRANCH  34  35
ENDBRANCH   8  34
BRANCH  22  56
HETATM   56  O   UNL     1      -6.383   7.495  73.703  1.00  0.00    -0.066 OA 
HETATM   57  C   UNL     1      -5.139   6.780  73.870  1.00  0.00    -0.042 C  
ENDBRANCH  22  56
BRANCH  11  58
HETATM   58  O   UNL     1      -8.289   2.514  72.294  1.00  0.00    -0.054 OA 
HETATM   59  C   UNL     1      -8.019   1.550  73.325  1.00  0.00    -0.041 C  
ENDBRANCH  11  58
BRANCH   5  60
HETATM   60  O   UNL     1      -7.873   3.691  67.456  1.00  0.00    -0.077 OA 
BRANCH  60  61
HETATM   61  C   UNL     1      -8.795   3.653  66.490  1.00  0.00    -0.129 C  
HETATM   62  C   UNL     1      -8.113   3.419  65.168  1.00  0.00    -0.093 C  
HETATM   63  O   UNL     1     -10.028   3.711  66.576  1.00  0.00    -0.071 OA 
ENDBRANCH  60  61
ENDBRANCH   5  60
TORSDOF 14
ENDMDL
MODEL       21
REMARK 921   NORMALIZED FREE ENERGY PREDICTED BY IDOCK:   -2.46 KCAL/MOL
REMARK 922        TOTAL FREE ENERGY PREDICTED BY IDOCK:   -7.80 KCAL/MOL
REMARK 923 INTER-LIGAND FREE ENERGY PREDICTED BY IDOCK:   -6.07 KCAL/MOL
REMARK 924 INTRA-LIGAND FREE ENERGY PREDICTED BY IDOCK:   -1.73 KCAL/MOL
REMARK 927      BINDING AFFINITY PREDICTED BY RF-SCORE:    0.00 PKD
ROOT
HETATM    1  C   UNL     1     -10.102  12.168  67.641  1.00  0.00    -0.205 C  
HETATM    2  C   UNL     1      -9.499  10.326  67.603  1.00  0.00    -0.151 C  
HETATM    3  C   UNL     1      -6.386   9.113  66.070  1.00  0.00    -0.064 C  
HETATM    4  C   UNL     1      -7.937  10.307  67.571  1.00  0.00    -0.106 C  
HETATM    5  C   UNL     1     -11.652  12.312  67.536  1.00  0.00    -0.353 C  
HETATM    6  O   UNL     1      -8.073  11.663  67.835  1.00  0.00    -0.124 OA 
HETATM    7  C   UNL     1      -7.219   9.450  68.735  1.00  0.00    -0.073 C  
HETATM    8  C   UNL     1      -5.693   9.670  69.044  1.00  0.00    -0.035 C  
HETATM    9  C   UNL     1      -7.653  13.977  67.190  1.00  0.00     0.064 C  
HETATM   10  H   UNL     1      -7.122  11.652  67.816  1.00  0.00     0.000 HD 
HETATM   11  C   UNL     1     -10.097  14.986  67.323  1.00  0.00    -0.235 C  
HETATM   12  C   UNL     1     -11.503  14.884  67.908  1.00  0.00    -0.357 C  
HETATM   13  C   UNL     1      -8.925  14.418  69.349  1.00  0.00     0.311 C  
HETATM   14  C   UNL     1      -5.778  11.131  68.979  1.00  0.00    -0.040 C  
HETATM   15  C   UNL     1     -12.283  13.733  67.325  1.00  0.00    -0.278 C  
HETATM   16  C   UNL     1      -6.626  11.540  70.313  1.00  0.00     0.232 C  
HETATM   17  O   UNL     1     -12.268  13.580  65.888  1.00  0.00    -0.415 OA 
HETATM   18  C   UNL     1      -5.905  11.698  67.690  1.00  0.00    -0.060 C  
HETATM   19  C   UNL     1      -6.822  10.581  66.512  1.00  0.00    -0.113 C  
HETATM   20  C   UNL     1      -9.199  13.800  67.905  1.00  0.00    -0.200 C  
HETATM   21  O   UNL     1      -7.462  14.600  66.146  1.00  0.00     1.464 OA 
HETATM   22  C   UNL     1      -6.400  13.275  67.961  1.00  0.00    -0.128 C  
HETATM   23  C   UNL     1     -12.040  12.159  66.026  1.00  0.00    -0.020 C  
HETATM   24  C   UNL     1      -7.467  11.035  65.116  1.00  0.00     0.392 C  
ENDROOT
BRANCH   2  25
HETATM   25  O   UNL     1      -9.760   9.233  68.732  1.00  0.00    -0.153 OA 
BRANCH  25  26
HETATM   26  C   UNL     1     -10.350   7.930  68.494  1.00  0.00    -0.200 C  
HETATM   27  O   UNL     1     -10.849   7.346  69.457  1.00  0.00    -0.236 OA 
BRANCH  26  28
HETATM   28  C   UNL     1     -10.144   6.994  67.139  1.00  0.00    -0.283 A  
HETATM   29  C   UNL     1     -10.538   5.011  65.589  1.00  0.00    -0.077 A  
HETATM   30  C   UNL     1      -8.994   7.199  66.352  1.00  0.00    -0.178 A  
HETATM   31  C   UNL     1     -10.815   5.779  66.761  1.00  0.00    -0.327 A  
HETATM   32  C   UNL     1      -8.658   6.392  65.213  1.00  0.00    -0.051 A  
HETATM   33  C   UNL     1      -9.453   5.330  64.800  1.00  0.00     0.293 A  
ENDBRANCH  26  28
ENDBRANCH  25  26
ENDBRANCH   2  25
BRANCH   8  34
HETATM   34  O   UNL     1      -5.143   9.308  70.367  1.00  0.00    -0.027 OA 
BRANCH  34  35
HETATM   35  C   UNL     1      -6.047   8.907  71.324  1.00  0.00    -0.057 C  
HETATM   36  O   UNL     1      -6.511   9.710  72.137  1.00  0.00    -0.272 OA 
BRANCH  35  37
HETATM   37  C   UNL     1      -6.310   7.372  71.526  1.00  0.00    -0.036 C  
HETATM   38  H   UNL     1      -5.286   5.717  71.207  1.00  0.00     0.000 HD 
HETATM   39  O   UNL     1      -5.126   6.646  71.084  1.00  0.00    -0.018 OA 
BRANCH  37  40
HETATM   40  C   UNL     1      -7.646   6.540  71.143  1.00  0.00    -0.090 C  
BRANCH  40  41
HETATM   41  C   UNL     1      -8.604   6.568  72.386  1.00  0.00    -0.119 A  
HETATM   42  C   UNL     1      -9.587   7.559  72.496  1.00  0.00    -0.214 A  
HETATM   43  C   UNL     1      -8.635   5.508  73.323  1.00  0.00    -0.116 A  
HETATM   44  C   UNL     1      -9.603   5.435  74.357  1.00  0.00    -0.160 A  
HETATM   45  C   UNL     1     -10.547   7.485  73.546  1.00  0.00    -0.347 A  
HETATM   46  C   UNL     1     -10.552   6.466  74.450  1.00  0.00     0.038 A  
ENDBRANCH  40  41
BRANCH  40  47
HETATM   47  N   UNL     1      -7.647   5.169  70.384  1.00  0.00    -0.069 N  
HETATM   48  C   UNL     1      -7.066   3.918  70.735  1.00  0.00    -0.033 C  
HETATM   49  H   UNL     1      -8.146   5.173  69.494  1.00  0.00     0.000 HD 
HETATM   50  O   UNL     1      -6.617   3.691  71.850  1.00  0.00    -0.015 OA 
BRANCH  48  51
HETATM   51  O   UNL     1      -7.037   2.969  69.689  1.00  0.00    -0.040 OA 
HETATM   52  C   UNL     1      -7.718   3.059  68.311  1.00  0.00    -0.055 C  
HETATM   53  C   UNL     1      -9.220   3.402  68.325  1.00  0.00    -0.234 C  
HETATM   54  C   UNL     1      -7.656   1.689  67.546  1.00  0.00    -0.059 C  
HETATM   55  C   UNL     1      -6.988   4.070  67.406  1.00  0.00    -0.055 C  
ENDBRANCH  48  51
ENDBRANCH  40  47
ENDBRANCH  37  40
ENDBRANCH  35  37
ENDBRANCH  34  35
ENDBRANCH   8  34
BRANCH  22  56
HETATM   56  O   UNL     1      -5.311  14.114  68.410  1.00  0.00    -0.089 OA 
HETATM   57  C   UNL     1      -5.708  15.442  68.816  1.00  0.00    -0.092 C  
ENDBRANCH  22  56
BRANCH  11  58
HETATM   58  O   UNL     1     -10.123  15.113  65.904  1.00  0.00    -0.281 OA 
HETATM   59  C   UNL     1     -10.417  16.456  65.483  1.00  0.00    -0.330 C  
ENDBRANCH  11  58
BRANCH   5  60
HETATM   60  O   UNL     1     -12.259  11.387  68.456  1.00  0.00    -0.557 OA 
BRANCH  60  61
HETATM   61  C   UNL     1     -12.142  11.567  69.775  1.00  0.00    -0.306 C  
HETATM   62  C   UNL     1     -12.238  10.232  70.464  1.00  0.00    -0.390 C  
HETATM   63  O   UNL     1     -11.912  12.604  70.411  1.00  0.00    -0.338 OA 
ENDBRANCH  60  61
ENDBRANCH   5  60
TORSDOF 14
ENDMDL
MODEL       22
REMARK 921   NORMALIZED FREE ENERGY PREDICTED BY IDOCK:   -2.29 KCAL/MOL
REMARK 922        TOTAL FREE ENERGY PREDICTED BY IDOCK:   -7.49 KCAL/MOL
REMARK 923 INTER-LIGAND FREE ENERGY PREDICTED BY IDOCK:   -5.81 KCAL/MOL
REMARK 924 INTRA-LIGAND FREE ENERGY PREDICTED BY IDOCK:   -1.68 KCAL/MOL
REMARK 927      BINDING AFFINITY PREDICTED BY RF-SCORE:    0.00 PKD
ROOT
HETATM    1  C   UNL     1      -8.380   6.472  68.139  1.00  0.00    -0.116 C  
HETATM    2  C   UNL     1     -10.122   7.279  67.869  1.00  0.00    -0.177 C  
HETATM    3  C   UNL     1     -12.321   8.581  70.511  1.00  0.00     0.311 C  
HETATM    4  C   UNL     1     -10.381   8.313  69.013  1.00  0.00    -0.221 C  
HETATM    5  C   UNL     1      -8.072   5.321  67.131  1.00  0.00    -0.101 C  
HETATM    6  O   UNL     1      -9.041   8.091  69.301  1.00  0.00    -0.148 OA 
HETATM    7  C   UNL     1     -10.741   9.813  68.539  1.00  0.00    -0.252 C  
HETATM    8  C   UNL     1     -10.634  11.005  69.558  1.00  0.00    -0.138 C  
HETATM    9  C   UNL     1      -7.327   7.382  70.883  1.00  0.00    -0.073 C  
HETATM   10  H   UNL     1      -9.199   8.720  69.997  1.00  0.00     0.000 HD 
HETATM   11  C   UNL     1      -6.016   5.595  69.435  1.00  0.00    -0.020 C  
HETATM   12  C   UNL     1      -5.647   5.083  68.046  1.00  0.00    -0.016 C  
HETATM   13  C   UNL     1      -5.811   7.939  68.919  1.00  0.00    -0.035 C  
HETATM   14  C   UNL     1      -9.352  10.562  70.109  1.00  0.00     0.563 C  
HETATM   15  C   UNL     1      -6.809   4.418  67.354  1.00  0.00    -0.055 C  
HETATM   16  C   UNL     1      -8.285  10.833  68.904  1.00  0.00    -0.149 C  
HETATM   17  O   UNL     1      -7.572   3.454  68.114  1.00  0.00    -0.057 OA 
HETATM   18  C   UNL     1      -9.390   9.440  70.969  1.00  0.00    -0.210 C  
HETATM   19  C   UNL     1     -10.761   8.256  70.526  1.00  0.00    -0.238 C  
HETATM   20  C   UNL     1      -6.948   6.885  69.290  1.00  0.00    -0.074 C  
HETATM   21  O   UNL     1      -7.256   6.632  71.857  1.00  0.00    -0.082 OA 
HETATM   22  C   UNL     1      -7.799   8.930  71.080  1.00  0.00    -0.140 C  
HETATM   23  C   UNL     1      -8.809   4.036  67.641  1.00  0.00    -0.115 C  
HETATM   24  C   UNL     1     -10.870   6.736  71.026  1.00  0.00    -0.280 C  
ENDROOT
BRANCH   2  25
HETATM   25  O   UNL     1     -10.564   8.151  66.611  1.00  0.00    -0.272 OA 
BRANCH  25  26
HETATM   26  C   UNL     1      -9.648   8.878  65.753  1.00  0.00    -0.174 C  
HETATM   27  O   UNL     1      -8.473   8.506  65.729  1.00  0.00    -0.136 OA 
BRANCH  26  28
HETATM   28  C   UNL     1      -9.929  10.352  65.044  1.00  0.00    -0.399 A  
HETATM   29  C   UNL     1     -10.076  12.037  63.139  1.00  0.00    -0.267 A  
HETATM   30  C   UNL     1      -9.970  11.494  65.868  1.00  0.00    -0.267 A  
HETATM   31  C   UNL     1      -9.861  10.723  63.656  1.00  0.00    -0.406 A  
HETATM   32  C   UNL     1     -10.111  12.831  65.364  1.00  0.00    -0.274 A  
HETATM   33  C   UNL     1     -10.214  13.101  64.005  1.00  0.00    -0.050 A  
ENDBRANCH  26  28
ENDBRANCH  25  26
ENDBRANCH   2  25
BRANCH   8  34
HETATM   34  O   UNL     1     -10.461  12.389  69.066  1.00  0.00    -0.135 OA 
BRANCH  34  35
HETATM   35  C   UNL     1     -10.948  13.395  69.867  1.00  0.00     0.357 C  
HETATM   36  O   UNL     1     -12.126  13.408  70.230  1.00  0.00    -0.342 OA 
BRANCH  35  37
HETATM   37  C   UNL     1     -10.051  14.659  70.131  1.00  0.00     0.471 C  
HETATM   38  H   UNL     1     -10.322  16.423  70.968  1.00  0.00     0.000 HD 
HETATM   39  O   UNL     1     -10.864  15.659  70.809  1.00  0.00    -0.325 OA 
BRANCH  37  40
HETATM   40  C   UNL     1      -9.033  15.379  69.097  1.00  0.00    -0.245 C  
BRANCH  40  41
HETATM   41  C   UNL     1      -7.696  15.675  69.866  1.00  0.00     0.148 A  
HETATM   42  C   UNL     1      -6.833  14.627  70.206  1.00  0.00     0.025 A  
HETATM   43  C   UNL     1      -7.233  16.996  70.070  1.00  0.00     1.008 A  
HETATM   44  C   UNL     1      -5.955  17.279  70.612  1.00  0.00     0.388 A  
HETATM   45  C   UNL     1      -5.555  14.919  70.765  1.00  0.00    -0.137 A  
HETATM   46  C   UNL     1      -5.132  16.198  70.969  1.00  0.00    -0.157 A  
ENDBRANCH  40  41
BRANCH  40  47
HETATM   47  N   UNL     1      -9.443  16.515  68.098  1.00  0.00    -0.218 N  
HETATM   48  C   UNL     1     -10.412  16.521  67.055  1.00  0.00    -0.289 C  
HETATM   49  H   UNL     1      -8.934  17.391  68.214  1.00  0.00     0.000 HD 
HETATM   50  O   UNL     1     -11.241  15.632  66.921  1.00  0.00    -0.245 OA 
BRANCH  48  51
HETATM   51  O   UNL     1     -10.327  17.630  66.183  1.00  0.00    -0.367 OA 
HETATM   52  C   UNL     1      -9.907  19.071  66.522  1.00  0.00    -0.369 C  
HETATM   53  C   UNL     1     -10.634  19.720  67.714  1.00  0.00    -0.501 C  
HETATM   54  C   UNL     1     -10.196  20.052  65.330  1.00  0.00    -0.042 C  
HETATM   55  C   UNL     1      -8.387  19.154  66.765  1.00  0.00    -0.305 C  
ENDBRANCH  48  51
ENDBRANCH  40  47
ENDBRANCH  37  40
ENDBRANCH  35  37
ENDBRANCH  34  35
ENDBRANCH   8  34
BRANCH  22  56
HETATM   56  O   UNL     1      -7.018   9.782  71.948  1.00  0.00     0.014 OA 
HETATM   57  C   UNL     1      -5.610   9.834  71.626  1.00  0.00    -0.032 C  
ENDBRANCH  22  56
BRANCH  11  58
HETATM   58  O   UNL     1      -6.516   4.552  70.267  1.00  0.00    -0.032 OA 
HETATM   59  C   UNL     1      -5.533   4.085  71.206  1.00  0.00    -0.008 C  
ENDBRANCH  11  58
BRANCH   5  60
HETATM   60  O   UNL     1      -8.405   5.775  65.806  1.00  0.00    -0.122 OA 
BRANCH  60  61
HETATM   61  C   UNL     1      -7.952   5.122  64.732  1.00  0.00    -0.104 C  
HETATM   62  C   UNL     1      -7.675   6.115  63.634  1.00  0.00    -0.101 C  
HETATM   63  O   UNL     1      -7.694   3.920  64.591  1.00  0.00    -0.079 OA 
ENDBRANCH  60  61
ENDBRANCH   5  60
TORSDOF 14
ENDMDL
MODEL       23
REMARK 921   NORMALIZED FREE ENERGY PREDICTED BY IDOCK:   -2.25 KCAL/MOL
REMARK 922        TOTAL FREE ENERGY PREDICTED BY IDOCK:   -7.41 KCAL/MOL
REMARK 923 INTER-LIGAND FREE ENERGY PREDICTED BY IDOCK:   -4.13 KCAL/MOL
REMARK 924 INTRA-LIGAND FREE ENERGY PREDICTED BY IDOCK:   -3.29 KCAL/MOL
REMARK 927      BINDING AFFINITY PREDICTED BY RF-SCORE:    0.00 PKD
ROOT
HETATM    1  C   UNL     1     -10.003  12.834  66.666  1.00  0.00    -0.246 C  
HETATM    2  C   UNL     1      -8.543  11.591  66.387  1.00  0.00    -0.159 C  
HETATM    3  C   UNL     1      -6.460  10.094  69.020  1.00  0.00    -0.044 C  
HETATM    4  C   UNL     1      -8.422  10.664  67.640  1.00  0.00    -0.118 C  
HETATM    5  C   UNL     1     -10.129  13.901  65.534  1.00  0.00    -0.298 C  
HETATM    6  O   UNL     1      -9.633  11.246  67.990  1.00  0.00    -0.169 OA 
HETATM    7  C   UNL     1      -8.482   9.077  67.352  1.00  0.00    -0.115 C  
HETATM    8  C   UNL     1      -8.766   8.076  68.529  1.00  0.00    -0.131 C  
HETATM    9  C   UNL     1     -10.957  12.539  69.577  1.00  0.00     0.093 C  
HETATM   10  H   UNL     1      -9.561  10.683  68.752  1.00  0.00     0.000 HD 
HETATM   11  C   UNL     1     -11.944  14.418  67.994  1.00  0.00    -0.291 C  
HETATM   12  C   UNL     1     -12.321  14.842  66.577  1.00  0.00     0.252 C  
HETATM   13  C   UNL     1     -12.756  12.157  67.819  1.00  0.00     2.177 C  
HETATM   14  C   UNL     1      -9.842   8.886  69.105  1.00  0.00    -0.180 C  
HETATM   15  C   UNL     1     -11.110  15.111  65.720  1.00  0.00    -0.330 C  
HETATM   16  C   UNL     1     -11.060   8.754  68.026  1.00  0.00     0.244 C  
HETATM   17  O   UNL     1     -10.065  15.934  66.285  1.00  0.00    -0.266 OA 
HETATM   18  C   UNL     1      -9.449  10.054  69.797  1.00  0.00    -0.239 C  
HETATM   19  C   UNL     1      -7.887  10.799  69.101  1.00  0.00    -0.142 C  
HETATM   20  C   UNL     1     -11.367  12.928  67.961  1.00  0.00    -0.333 C  
HETATM   21  O   UNL     1     -10.748  13.390  70.441  1.00  0.00     1.027 OA 
HETATM   22  C   UNL     1     -10.852  10.956  69.950  1.00  0.00    -0.141 C  
HETATM   23  C   UNL     1      -9.058  15.011  65.810  1.00  0.00     0.162 C  
HETATM   24  C   UNL     1      -7.367  12.290  69.379  1.00  0.00     0.288 C  
ENDROOT
BRANCH   2  25
HETATM   25  O   UNL     1      -8.453  10.497  65.232  1.00  0.00    -0.168 OA 
BRANCH  25  26
HETATM   26  C   UNL     1      -7.226  10.100  64.570  1.00  0.00    -0.119 C  
HETATM   27  O   UNL     1      -6.365  10.965  64.400  1.00  0.00     0.175 OA 
BRANCH  26  28
HETATM   28  C   UNL     1      -6.977   8.692  63.728  1.00  0.00    -0.087 A  
HETATM   29  C   UNL     1      -7.612   6.471  62.652  1.00  0.00    -0.082 A  
HETATM   30  C   UNL     1      -5.657   8.222  63.583  1.00  0.00    -0.062 A  
HETATM   31  C   UNL     1      -7.926   7.682  63.342  1.00  0.00    -0.093 A  
HETATM   32  C   UNL     1      -5.323   6.972  62.959  1.00  0.00    -0.033 A  
HETATM   33  C   UNL     1      -6.294   6.119  62.449  1.00  0.00    -0.030 A  
ENDBRANCH  26  28
ENDBRANCH  25  26
ENDBRANCH   2  25
BRANCH   8  34
HETATM   34  O   UNL     1      -9.314   6.732  68.246  1.00  0.00    -0.126 OA 
BRANCH  34  35
HETATM   35  C   UNL     1      -9.407   5.865  69.309  1.00  0.00    -0.128 C  
HETATM   36  O   UNL     1      -9.203   6.248  70.463  1.00  0.00    -0.156 OA 
BRANCH  35  37
HETATM   37  C   UNL     1      -9.548   4.326  69.025  1.00  0.00    -0.170 C  
HETATM   38  H   UNL     1      -9.751   2.706  70.131  1.00  0.00     0.000 HD 
HETATM   39  O   UNL     1      -9.666   3.637  70.303  1.00  0.00    -0.189 OA 
BRANCH  37  40
HETATM   40  C   UNL     1      -8.681   3.430  67.990  1.00  0.00    -0.108 C  
BRANCH  40  41
HETATM   41  C   UNL     1      -7.376   4.229  67.637  1.00  0.00    -0.069 A  
HETATM   42  C   UNL     1      -7.264   4.887  66.407  1.00  0.00    -0.077 A  
HETATM   43  C   UNL     1      -6.368   4.466  68.602  1.00  0.00    -0.036 A  
HETATM   44  C   UNL     1      -5.265   5.321  68.353  1.00  0.00    -0.003 A  
HETATM   45  C   UNL     1      -6.144   5.732  66.160  1.00  0.00    -0.029 A  
HETATM   46  C   UNL     1      -5.174   5.938  67.094  1.00  0.00    -0.005 A  
ENDBRANCH  40  41
BRANCH  40  47
HETATM   47  N   UNL     1      -9.287   2.653  66.771  1.00  0.00    -0.371 N  
HETATM   48  C   UNL     1      -8.654   1.842  65.787  1.00  0.00    -0.111 C  
HETATM   49  H   UNL     1     -10.297   2.742  66.666  1.00  0.00     0.000 HD 
HETATM   50  O   UNL     1      -7.494   1.468  65.888  1.00  0.00    -0.058 OA 
BRANCH  48  51
HETATM   51  O   UNL     1      -9.471   1.516  64.682  1.00  0.00    -0.134 OA 
HETATM   52  C   UNL     1     -10.025   2.464  63.602  1.00  0.00    -0.142 C  
HETATM   53  C   UNL     1     -10.757   3.716  64.120  1.00  0.00    -0.221 C  
HETATM   54  C   UNL     1     -11.097   1.751  62.703  1.00  0.00    -0.215 C  
HETATM   55  C   UNL     1      -8.907   2.907  62.639  1.00  0.00    -0.081 C  
ENDBRANCH  48  51
ENDBRANCH  40  47
ENDBRANCH  37  40
ENDBRANCH  35  37
ENDBRANCH  34  35
ENDBRANCH   8  34
BRANCH  22  56
HETATM   56  O   UNL     1     -11.721  10.432  70.980  1.00  0.00    -0.348 OA 
HETATM   57  C   UNL     1     -13.126  10.699  70.769  1.00  0.00    -0.219 C  
ENDBRANCH  22  56
BRANCH  11  58
HETATM   58  O   UNL     1     -11.127  15.392  68.637  1.00  0.00    -0.259 OA 
HETATM   59  C   UNL     1     -11.887  16.520  69.102  1.00  0.00     0.251 C  
ENDBRANCH  11  58
BRANCH   5  60
HETATM   60  O   UNL     1     -10.051  13.229  64.264  1.00  0.00    -0.338 OA 
BRANCH  60  61
HETATM   61  C   UNL     1     -11.163  12.832  63.638  1.00  0.00    -0.427 C  
HETATM   62  C   UNL     1     -10.998  11.398  63.206  1.00  0.00    -0.250 C  
HETATM   63  O   UNL     1     -12.227  13.438  63.462  1.00  0.00    -0.648 OA 
ENDBRANCH  60  61
ENDBRANCH   5  60
TORSDOF 14
ENDMDL
MODEL       24
REMARK 921   NORMALIZED FREE ENERGY PREDICTED BY IDOCK:   -2.14 KCAL/MOL
REMARK 922        TOTAL FREE ENERGY PREDICTED BY IDOCK:   -7.22 KCAL/MOL
REMARK 923 INTER-LIGAND FREE ENERGY PREDICTED BY IDOCK:   -7.74 KCAL/MOL
REMARK 924 INTRA-LIGAND FREE ENERGY PREDICTED BY IDOCK:    0.52 KCAL/MOL
REMARK 927      BINDING AFFINITY PREDICTED BY RF-SCORE:    0.00 PKD
ROOT
HETATM    1  C   UNL     1      -9.294  13.601  66.725  1.00  0.00    -0.269 C  
HETATM    2  C   UNL     1      -9.782  11.867  66.009  1.00  0.00    -0.237 C  
HETATM    3  C   UNL     1      -7.438   9.239  64.954  1.00  0.00    -0.107 C  
HETATM    4  C   UNL     1      -8.665  10.837  66.376  1.00  0.00    -0.158 C  
HETATM    5  C   UNL     1     -10.272  14.741  66.301  1.00  0.00    -0.298 C  
HETATM    6  O   UNL     1      -8.202  11.867  67.184  1.00  0.00    -0.158 OA 
HETATM    7  C   UNL     1      -9.156   9.516  67.163  1.00  0.00    -0.152 C  
HETATM    8  C   UNL     1      -8.110   8.619  67.920  1.00  0.00    -0.108 C  
HETATM    9  C   UNL     1      -6.416  13.409  67.798  1.00  0.00    -0.162 C  
HETATM   10  H   UNL     1      -7.523  11.241  67.408  1.00  0.00     0.000 HD 
HETATM   11  C   UNL     1      -7.707  15.720  67.740  1.00  0.00    -0.143 C  
HETATM   12  C   UNL     1      -9.043  16.452  67.829  1.00  0.00    -0.199 C  
HETATM   13  C   UNL     1      -8.148  14.147  69.510  1.00  0.00     0.458 C  
HETATM   14  C   UNL     1      -7.398   9.756  68.509  1.00  0.00    -0.074 C  
HETATM   15  C   UNL     1      -9.897  16.233  66.606  1.00  0.00    -0.253 C  
HETATM   16  C   UNL     1      -8.444  10.352  69.612  1.00  0.00    -0.068 C  
HETATM   17  O   UNL     1      -9.265  16.389  65.316  1.00  0.00    -0.166 OA 
HETATM   18  C   UNL     1      -6.572  10.502  67.636  1.00  0.00    -0.065 C  
HETATM   19  C   UNL     1      -7.218  10.513  65.887  1.00  0.00    -0.135 C  
HETATM   20  C   UNL     1      -7.953  14.152  67.927  1.00  0.00    -0.157 C  
HETATM   21  O   UNL     1      -5.456  13.941  67.242  1.00  0.00    -0.310 OA 
HETATM   22  C   UNL     1      -6.257  11.927  68.458  1.00  0.00    -0.052 C  
HETATM   23  C   UNL     1      -9.890  15.173  64.844  1.00  0.00     0.151 C  
HETATM   24  C   UNL     1      -6.766  11.536  64.738  1.00  0.00     2.104 C  
ENDROOT
BRANCH   2  25
HETATM   25  O   UNL     1     -11.072  11.020  66.405  1.00  0.00    -0.201 OA 
BRANCH  25  26
HETATM   26  C   UNL     1     -11.440  10.672  67.764  1.00  0.00    -0.137 C  
HETATM   27  O   UNL     1     -11.648   9.483  68.010  1.00  0.00     0.312 OA 
BRANCH  26  28
HETATM   28  C   UNL     1     -11.928  11.727  68.948  1.00  0.00    -0.332 A  
HETATM   29  C   UNL     1     -12.176  13.980  70.112  1.00  0.00    -0.425 A  
HETATM   30  C   UNL     1     -12.313  11.200  70.197  1.00  0.00    -0.373 A  
HETATM   31  C   UNL     1     -11.760  13.153  69.023  1.00  0.00    -0.367 A  
HETATM   32  C   UNL     1     -12.663  12.012  71.328  1.00  0.00    -0.382 A  
HETATM   33  C   UNL     1     -12.644  13.401  71.273  1.00  0.00    -0.411 A  
ENDBRANCH  26  28
ENDBRANCH  25  26
ENDBRANCH   2  25
BRANCH   8  34
HETATM   34  O   UNL     1      -8.548   7.739  69.024  1.00  0.00    -0.134 OA 
BRANCH  34  35
HETATM   35  C   UNL     1      -9.263   6.617  68.675  1.00  0.00    -0.128 C  
HETATM   36  O   UNL     1     -10.165   6.673  67.836  1.00  0.00    -0.147 OA 
BRANCH  35  37
HETATM   37  C   UNL     1      -9.080   5.305  69.520  1.00  0.00    -0.112 C  
HETATM   38  H   UNL     1      -9.117   3.371  69.136  1.00  0.00     0.000 HD 
HETATM   39  O   UNL     1      -9.228   4.165  68.625  1.00  0.00    -0.123 OA 
BRANCH  37  40
HETATM   40  C   UNL     1      -9.726   4.964  70.965  1.00  0.00    -0.185 C  
BRANCH  40  41
HETATM   41  C   UNL     1     -10.587   6.199  71.411  1.00  0.00    -0.294 A  
HETATM   42  C   UNL     1     -11.984   6.116  71.422  1.00  0.00    -0.086 A  
HETATM   43  C   UNL     1      -9.995   7.348  71.987  1.00  0.00    -0.196 A  
HETATM   44  C   UNL     1     -10.762   8.400  72.545  1.00  0.00    -0.372 A  
HETATM   45  C   UNL     1     -12.749   7.185  71.972  1.00  0.00    -0.229 A  
HETATM   46  C   UNL     1     -12.163   8.292  72.508  1.00  0.00    -0.367 A  
ENDBRANCH  40  41
BRANCH  40  47
HETATM   47  N   UNL     1      -8.948   4.286  72.144  1.00  0.00    -0.114 N  
HETATM   48  C   UNL     1      -7.918   4.796  72.985  1.00  0.00    -0.100 C  
HETATM   49  H   UNL     1      -9.223   3.324  72.342  1.00  0.00     0.000 HD 
HETATM   50  O   UNL     1      -7.620   5.982  73.015  1.00  0.00    -0.097 OA 
BRANCH  48  51
HETATM   51  O   UNL     1      -7.262   3.820  73.768  1.00  0.00    -0.053 OA 
HETATM   52  C   UNL     1      -6.571   2.530  73.288  1.00  0.00    -0.021 C  
HETATM   53  C   UNL     1      -7.408   1.622  72.369  1.00  0.00    -0.031 C  
HETATM   54  C   UNL     1      -6.194   1.596  74.493  1.00  0.00    -0.004 C  
HETATM   55  C   UNL     1      -5.239   2.854  72.585  1.00  0.00     0.000 C  
ENDBRANCH  48  51
ENDBRANCH  40  47
ENDBRANCH  37  40
ENDBRANCH  35  37
ENDBRANCH  34  35
ENDBRANCH   8  34
BRANCH  22  56
HETATM   56  O   UNL     1      -5.275  11.741  69.504  1.00  0.00    -0.056 OA 
HETATM   57  C   UNL     1      -5.655  12.291  70.785  1.00  0.00    -0.139 C  
ENDBRANCH  22  56
BRANCH  11  58
HETATM   58  O   UNL     1      -6.969  16.104  66.583  1.00  0.00    -0.211 OA 
HETATM   59  C   UNL     1      -6.580  17.487  66.619  1.00  0.00    -0.217 C  
ENDBRANCH  11  58
BRANCH   5  60
HETATM   60  O   UNL     1     -11.621  14.283  66.507  1.00  0.00    -0.349 OA 
BRANCH  60  61
HETATM   61  C   UNL     1     -12.403  13.987  65.464  1.00  0.00    -0.483 C  
HETATM   62  C   UNL     1     -12.569  15.216  64.610  1.00  0.00     0.082 C  
HETATM   63  O   UNL     1     -12.890  12.900  65.129  1.00  0.00    -0.702 OA 
ENDBRANCH  60  61
ENDBRANCH   5  60
TORSDOF 14
ENDMDL
MODEL       25
REMARK 921   NORMALIZED FREE ENERGY PREDICTED BY IDOCK:   -1.65 KCAL/MOL
REMARK 922        TOTAL FREE ENERGY PREDICTED BY IDOCK:   -6.32 KCAL/MOL
REMARK 923 INTER-LIGAND FREE ENERGY PREDICTED BY IDOCK:   -2.64 KCAL/MOL
REMARK 924 INTRA-LIGAND FREE ENERGY PREDICTED BY IDOCK:   -3.68 KCAL/MOL
REMARK 927      BINDING AFFINITY PREDICTED BY RF-SCORE:    0.00 PKD
ROOT
HETATM    1  C   UNL     1     -10.170  13.407  66.415  1.00  0.00    -0.293 C  
HETATM    2  C   UNL     1      -9.117  11.810  66.098  1.00  0.00    -0.185 C  
HETATM    3  C   UNL     1      -7.123  10.015  68.612  1.00  0.00    -0.078 C  
HETATM    4  C   UNL     1      -9.056  10.976  67.419  1.00  0.00    -0.141 C  
HETATM    5  C   UNL     1     -10.184  14.386  65.200  1.00  0.00    -0.391 C  
HETATM    6  O   UNL     1     -10.024  11.875  67.844  1.00  0.00    -0.181 OA 
HETATM    7  C   UNL     1      -9.547   9.442  67.306  1.00  0.00    -0.194 C  
HETATM    8  C   UNL     1      -9.902   8.635  68.607  1.00  0.00    -0.169 C  
HETATM    9  C   UNL     1     -10.751  13.577  69.432  1.00  0.00     0.095 C  
HETATM   10  H   UNL     1      -9.987  11.368  68.648  1.00  0.00     0.000 HD 
HETATM   11  C   UNL     1     -11.453  15.529  67.788  1.00  0.00    -0.243 C  
HETATM   12  C   UNL     1     -11.906  15.935  66.388  1.00  0.00     0.879 C  
HETATM   13  C   UNL     1     -12.815  13.550  67.946  1.00  0.00     1.470 C  
HETATM   14  C   UNL     1     -10.653   9.735  69.217  1.00  0.00    -0.240 C  
HETATM   15  C   UNL     1     -10.798  15.819  65.372  1.00  0.00    -0.364 C  
HETATM   16  C   UNL     1     -12.004   9.847  68.307  1.00  0.00     1.387 C  
HETATM   17  O   UNL     1      -9.514  16.381  65.722  1.00  0.00    -0.464 OA 
HETATM   18  C   UNL     1      -9.889  10.808  69.733  1.00  0.00     0.173 C  
HETATM   19  C   UNL     1      -8.305  11.070  68.785  1.00  0.00    -0.144 C  
HETATM   20  C   UNL     1     -11.273  13.943  67.843  1.00  0.00    -0.302 C  
HETATM   21  O   UNL     1     -10.218  14.403  70.172  1.00  0.00     0.365 OA 
HETATM   22  C   UNL     1     -10.990  12.051  69.953  1.00  0.00     0.357 C  
HETATM   23  C   UNL     1      -8.844  15.197  65.231  1.00  0.00     1.856 C  
HETATM   24  C   UNL     1      -7.398  12.392  68.842  1.00  0.00    -0.031 C  
ENDROOT
BRANCH   2  25
HETATM   25  O   UNL     1      -9.463  10.651  65.061  1.00  0.00    -0.206 OA 
BRANCH  25  26
HETATM   26  C   UNL     1      -8.594  10.229  63.980  1.00  0.00    -0.190 C  
HETATM   27  O   UNL     1      -8.892  10.583  62.838  1.00  0.00    -0.186 OA 
BRANCH  26  28
HETATM   28  C   UNL     1      -7.423   9.056  64.065  1.00  0.00    -0.110 A  
HETATM   29  C   UNL     1      -5.270   7.960  64.874  1.00  0.00    -0.029 A  
HETATM   30  C   UNL     1      -7.345   8.111  63.023  1.00  0.00    -0.102 A  
HETATM   31  C   UNL     1      -6.254   8.995  64.902  1.00  0.00    -0.065 A  
HETATM   32  C   UNL     1      -6.320   7.109  62.935  1.00  0.00    -0.052 A  
HETATM   33  C   UNL     1      -5.311   7.000  63.885  1.00  0.00    -0.028 A  
ENDBRANCH  26  28
ENDBRANCH  25  26
ENDBRANCH   2  25
BRANCH   8  34
HETATM   34  O   UNL     1     -10.800   7.463  68.532  1.00  0.00    -0.143 OA 
BRANCH  34  35
HETATM   35  C   UNL     1     -10.932   6.709  69.674  1.00  0.00    -0.313 C  
HETATM   36  O   UNL     1     -11.339   7.210  70.725  1.00  0.00    -0.267 OA 
BRANCH  35  37
HETATM   37  C   UNL     1     -10.338   5.254  69.698  1.00  0.00    -0.278 C  
HETATM   38  H   UNL     1      -9.779   3.989  71.103  1.00  0.00     0.000 HD 
HETATM   39  O   UNL     1     -10.138   4.868  71.089  1.00  0.00    -0.199 OA 
BRANCH  37  40
HETATM   40  C   UNL     1      -9.143   4.660  68.780  1.00  0.00    -0.116 C  
BRANCH  40  41
HETATM   41  C   UNL     1      -7.781   5.010  69.478  1.00  0.00    -0.067 A  
HETATM   42  C   UNL     1      -7.556   6.297  69.979  1.00  0.00    -0.096 A  
HETATM   43  C   UNL     1      -6.828   4.010  69.789  1.00  0.00    -0.041 A  
HETATM   44  C   UNL     1      -5.671   4.277  70.563  1.00  0.00    -0.013 A  
HETATM   45  C   UNL     1      -6.383   6.560  70.744  1.00  0.00    -0.044 A  
HETATM   46  C   UNL     1      -5.468   5.590  71.021  1.00  0.00    -0.009 A  
ENDBRANCH  40  41
BRANCH  40  47
HETATM   47  N   UNL     1      -9.090   4.769  67.217  1.00  0.00    -0.116 N  
HETATM   48  C   UNL     1      -8.426   5.708  66.379  1.00  0.00    -0.121 C  
HETATM   49  H   UNL     1      -9.617   4.051  66.721  1.00  0.00     0.000 HD 
HETATM   50  O   UNL     1      -7.595   6.498  66.805  1.00  0.00    -0.088 OA 
BRANCH  48  51
HETATM   51  O   UNL     1      -8.815   5.661  65.022  1.00  0.00    -0.119 OA 
HETATM   52  C   UNL     1      -8.881   4.431  64.098  1.00  0.00    -0.146 C  
HETATM   53  C   UNL     1      -7.612   3.561  64.046  1.00  0.00    -0.075 C  
HETATM   54  C   UNL     1      -9.111   4.845  62.601  1.00  0.00    -0.046 C  
HETATM   55  C   UNL     1     -10.080   3.536  64.467  1.00  0.00    -0.156 C  
ENDBRANCH  48  51
ENDBRANCH  40  47
ENDBRANCH  37  40
ENDBRANCH  35  37
ENDBRANCH  34  35
ENDBRANCH   8  34
BRANCH  22  56
HETATM   56  O   UNL     1     -11.809  11.845  71.127  1.00  0.00     0.130 OA 
HETATM   57  C   UNL     1     -12.920  12.761  71.248  1.00  0.00    -0.220 C  
ENDBRANCH  22  56
BRANCH  11  58
HETATM   58  O   UNL     1     -10.338  16.301  68.226  1.00  0.00    -0.252 OA 
HETATM   59  C   UNL     1     -10.720  17.622  68.646  1.00  0.00    -0.136 C  
ENDBRANCH  11  58
BRANCH   5  60
HETATM   60  O   UNL     1     -10.454  13.628  64.007  1.00  0.00    -0.230 OA 
BRANCH  60  61
HETATM   61  C   UNL     1     -11.709  13.457  63.581  1.00  0.00    -0.327 C  
HETATM   62  C   UNL     1     -12.070  11.999  63.689  1.00  0.00    -0.627 C  
HETATM   63  O   UNL     1     -12.538  14.300  63.216  1.00  0.00    -0.716 OA 
ENDBRANCH  60  61
ENDBRANCH   5  60
TORSDOF 14
ENDMDL
MODEL       26
REMARK 921   NORMALIZED FREE ENERGY PREDICTED BY IDOCK:   -1.45 KCAL/MOL
REMARK 922        TOTAL FREE ENERGY PREDICTED BY IDOCK:   -5.95 KCAL/MOL
REMARK 923 INTER-LIGAND FREE ENERGY PREDICTED BY IDOCK:   -6.40 KCAL/MOL
REMARK 924 INTRA-LIGAND FREE ENERGY PREDICTED BY IDOCK:    0.45 KCAL/MOL
REMARK 927      BINDING AFFINITY PREDICTED BY RF-SCORE:    0.00 PKD
ROOT
HETATM    1  C   UNL     1     -10.532  14.610  68.281  1.00  0.00    -0.236 C  
HETATM    2  C   UNL     1     -11.615  13.153  67.604  1.00  0.00    -0.349 C  
HETATM    3  C   UNL     1     -10.807  11.036  64.710  1.00  0.00    -0.234 C  
HETATM    4  C   UNL     1     -10.678  12.098  66.932  1.00  0.00    -0.236 C  
HETATM    5  C   UNL     1     -11.376  15.792  68.854  1.00  0.00    -0.356 C  
HETATM    6  O   UNL     1      -9.671  12.855  67.514  1.00  0.00    -0.198 OA 
HETATM    7  C   UNL     1     -10.807  10.587  67.486  1.00  0.00    -0.357 C  
HETATM    8  C   UNL     1      -9.674   9.540  67.183  1.00  0.00    -0.171 C  
HETATM    9  C   UNL     1      -7.655  14.203  67.269  1.00  0.00    -0.080 C  
HETATM   10  H   UNL     1      -9.101  12.213  67.106  1.00  0.00     0.000 HD 
HETATM   11  C   UNL     1      -8.343  16.383  68.604  1.00  0.00    -0.221 C  
HETATM   12  C   UNL     1      -9.228  17.011  69.676  1.00  0.00     0.606 C  
HETATM   13  C   UNL     1      -7.888  14.341  69.799  1.00  0.00     0.482 C  
HETATM   14  C   UNL     1      -8.583  10.473  67.475  1.00  0.00    -0.121 C  
HETATM   15  C   UNL     1     -10.663  17.137  69.231  1.00  0.00    -0.146 C  
HETATM   16  C   UNL     1      -8.659  10.680  69.093  1.00  0.00    -0.136 C  
HETATM   17  O   UNL     1     -10.906  17.690  67.918  1.00  0.00    -0.374 OA 
HETATM   18  C   UNL     1      -8.332  11.472  66.505  1.00  0.00    -0.147 C  
HETATM   19  C   UNL     1      -9.879  11.981  65.596  1.00  0.00    -0.265 C  
HETATM   20  C   UNL     1      -8.673  14.823  68.497  1.00  0.00    -0.174 C  
HETATM   21  O   UNL     1      -7.143  14.907  66.399  1.00  0.00     0.864 OA 
HETATM   22  C   UNL     1      -7.370  12.598  67.288  1.00  0.00    -0.104 C  
HETATM   23  C   UNL     1     -11.871  16.650  67.640  1.00  0.00     0.859 C  
HETATM   24  C   UNL     1     -10.042  13.314  64.720  1.00  0.00    -0.250 C  
ENDROOT
BRANCH   2  25
HETATM   25  O   UNL     1     -12.532  12.184  68.477  1.00  0.00    -0.046 OA 
BRANCH  25  26
HETATM   26  C   UNL     1     -12.318  11.897  69.882  1.00  0.00    -0.099 C  
HETATM   27  O   UNL     1     -11.323  12.388  70.419  1.00  0.00     0.164 OA 
BRANCH  26  28
HETATM   28  C   UNL     1     -13.083  10.722  70.770  1.00  0.00    -0.245 A  
HETATM   29  C   UNL     1     -13.593   9.313  72.830  1.00  0.00    -0.042 A  
HETATM   30  C   UNL     1     -13.789   9.716  70.082  1.00  0.00     1.253 A  
HETATM   31  C   UNL     1     -12.919  10.377  72.157  1.00  0.00    -0.393 A  
HETATM   32  C   UNL     1     -14.410   8.596  70.732  1.00  0.00     0.322 A  
HETATM   33  C   UNL     1     -14.357   8.419  72.109  1.00  0.00    -0.520 A  
ENDBRANCH  26  28
ENDBRANCH  25  26
ENDBRANCH   2  25
BRANCH   8  34
HETATM   34  O   UNL     1      -9.503   8.358  68.053  1.00  0.00    -0.142 OA 
BRANCH  34  35
HETATM   35  C   UNL     1     -10.402   8.212  69.083  1.00  0.00    -0.220 C  
HETATM   36  O   UNL     1     -10.696   9.163  69.811  1.00  0.00    -0.224 OA 
BRANCH  35  37
HETATM   37  C   UNL     1     -10.882   6.768  69.476  1.00  0.00    -0.273 C  
HETATM   38  H   UNL     1     -11.640   5.932  71.092  1.00  0.00     0.000 HD 
HETATM   39  O   UNL     1     -11.350   6.805  70.855  1.00  0.00    -0.277 OA 
BRANCH  37  40
HETATM   40  C   UNL     1     -10.130   5.364  69.182  1.00  0.00    -0.223 C  
BRANCH  40  41
HETATM   41  C   UNL     1      -9.444   4.898  70.515  1.00  0.00    -0.232 A  
HETATM   42  C   UNL     1      -8.218   5.449  70.908  1.00  0.00    -0.117 A  
HETATM   43  C   UNL     1     -10.113   4.064  71.442  1.00  0.00    -0.147 A  
HETATM   44  C   UNL     1      -9.579   3.766  72.721  1.00  0.00    -0.178 A  
HETATM   45  C   UNL     1      -7.682   5.134  72.189  1.00  0.00    -0.099 A  
HETATM   46  C   UNL     1      -8.332   4.316  73.063  1.00  0.00    -0.091 A  
ENDBRANCH  40  41
BRANCH  40  47
HETATM   47  N   UNL     1      -9.274   5.070  67.903  1.00  0.00    -0.115 N  
HETATM   48  C   UNL     1      -9.665   4.935  66.541  1.00  0.00    -0.186 C  
HETATM   49  H   UNL     1      -8.275   4.956  68.073  1.00  0.00     0.000 HD 
HETATM   50  O   UNL     1     -10.780   5.243  66.143  1.00  0.00    -0.266 OA 
BRANCH  48  51
HETATM   51  O   UNL     1      -8.666   4.406  65.693  1.00  0.00    -0.117 OA 
HETATM   52  C   UNL     1      -7.848   3.115  65.885  1.00  0.00    -0.085 C  
HETATM   53  C   UNL     1      -7.155   2.957  67.251  1.00  0.00    -0.053 C  
HETATM   54  C   UNL     1      -6.667   3.023  64.854  1.00  0.00    -0.040 C  
HETATM   55  C   UNL     1      -8.721   1.872  65.625  1.00  0.00    -0.119 C  
ENDBRANCH  48  51
ENDBRANCH  40  47
ENDBRANCH  37  40
ENDBRANCH  35  37
ENDBRANCH  34  35
ENDBRANCH   8  34
BRANCH  22  56
HETATM   56  O   UNL     1      -6.004  12.142  67.421  1.00  0.00    -0.108 OA 
HETATM   57  C   UNL     1      -5.666  11.640  68.733  1.00  0.00    -0.046 C  
ENDBRANCH  22  56
BRANCH  11  58
HETATM   58  O   UNL     1      -8.387  17.118  67.385  1.00  0.00    -0.187 OA 
HETATM   59  C   UNL     1      -7.279  18.024  67.253  1.00  0.00    -0.193 C  
ENDBRANCH  11  58
BRANCH   5  60
HETATM   60  O   UNL     1     -12.390  15.249  69.719  1.00  0.00    -0.311 OA 
BRANCH  60  61
HETATM   61  C   UNL     1     -12.364  15.496  71.032  1.00  0.00    -0.416 C  
HETATM   62  C   UNL     1     -13.738  15.263  71.603  1.00  0.00    -0.600 C  
HETATM   63  O   UNL     1     -11.408  15.793  71.759  1.00  0.00    -0.387 OA 
ENDBRANCH  60  61
ENDBRANCH   5  60
TORSDOF 14
ENDMDL
MODEL       27
REMARK 921   NORMALIZED FREE ENERGY PREDICTED BY IDOCK:   -1.14 KCAL/MOL
REMARK 922        TOTAL FREE ENERGY PREDICTED BY IDOCK:   -5.39 KCAL/MOL
REMARK 923 INTER-LIGAND FREE ENERGY PREDICTED BY IDOCK:   -7.99 KCAL/MOL
REMARK 924 INTRA-LIGAND FREE ENERGY PREDICTED BY IDOCK:    2.60 KCAL/MOL
REMARK 927      BINDING AFFINITY PREDICTED BY RF-SCORE:    0.00 PKD
ROOT
HETATM    1  C   UNL     1      -8.926   6.639  67.859  1.00  0.00    -0.112 C  
HETATM    2  C   UNL     1      -9.776   8.329  67.436  1.00  0.00    -0.174 C  
HETATM    3  C   UNL     1     -11.185  10.697  69.869  1.00  0.00    -0.378 C  
HETATM    4  C   UNL     1      -9.562   9.315  68.629  1.00  0.00    -0.147 C  
HETATM    5  C   UNL     1      -9.194   5.530  66.794  1.00  0.00    -0.129 C  
HETATM    6  O   UNL     1      -8.684   8.335  69.074  1.00  0.00    -0.140 OA 
HETATM    7  C   UNL     1      -8.879  10.730  68.260  1.00  0.00    -0.139 C  
HETATM    8  C   UNL     1      -8.260  11.623  69.396  1.00  0.00     0.561 C  
HETATM    9  C   UNL     1      -8.017   6.745  70.797  1.00  0.00    -0.110 C  
HETATM   10  H   UNL     1      -8.553   8.935  69.800  1.00  0.00     0.000 HD 
HETATM   11  C   UNL     1      -7.797   4.524  69.372  1.00  0.00    -0.062 C  
HETATM   12  C   UNL     1      -7.575   3.889  68.003  1.00  0.00    -0.066 C  
HETATM   13  C   UNL     1      -6.162   6.275  69.121  1.00  0.00    -0.033 C  
HETATM   14  C   UNL     1      -7.603  10.502  70.071  1.00  0.00     0.044 C  
HETATM   15  C   UNL     1      -8.769   4.051  67.098  1.00  0.00    -0.112 C  
HETATM   16  C   UNL     1      -6.400  10.075  69.054  1.00  0.00    -0.044 C  
HETATM   17  O   UNL     1     -10.068   3.740  67.648  1.00  0.00     0.060 OA 
HETATM   18  C   UNL     1      -8.442   9.629  70.803  1.00  0.00     0.069 C  
HETATM   19  C   UNL     1     -10.149   9.501  70.064  1.00  0.00    -0.279 C  
HETATM   20  C   UNL     1      -7.745   6.115  69.229  1.00  0.00    -0.099 C  
HETATM   21  O   UNL     1      -8.567   6.105  71.693  1.00  0.00    -0.133 OA 
HETATM   22  C   UNL     1      -7.507   8.267  71.079  1.00  0.00    -0.068 C  
HETATM   23  C   UNL     1     -10.620   4.944  67.071  1.00  0.00    -0.011 C  
HETATM   24  C   UNL     1     -11.218   8.352  70.392  1.00  0.00    -0.220 C  
ENDROOT
BRANCH   2  25
HETATM   25  O   UNL     1      -9.398   9.288  66.220  1.00  0.00    -0.168 OA 
BRANCH  25  26
HETATM   26  C   UNL     1      -8.043   9.625  65.831  1.00  0.00    -0.112 C  
HETATM   27  O   UNL     1      -7.746  10.820  65.780  1.00  0.00    -0.152 OA 
BRANCH  26  28
HETATM   28  C   UNL     1      -6.938   8.600  65.137  1.00  0.00    -0.072 A  
HETATM   29  C   UNL     1      -5.576   7.568  63.247  1.00  0.00    -0.045 A  
HETATM   30  C   UNL     1      -6.542   7.455  65.857  1.00  0.00    -0.045 A  
HETATM   31  C   UNL     1      -6.505   8.520  63.767  1.00  0.00    -0.076 A  
HETATM   32  C   UNL     1      -5.668   6.447  65.326  1.00  0.00    -0.022 A  
HETATM   33  C   UNL     1      -5.144   6.526  64.041  1.00  0.00    -0.025 A  
ENDBRANCH  26  28
ENDBRANCH  25  26
ENDBRANCH   2  25
BRANCH   8  34
HETATM   34  O   UNL     1      -7.223  12.626  69.071  1.00  0.00    -0.081 OA 
BRANCH  34  35
HETATM   35  C   UNL     1      -7.237  13.139  67.795  1.00  0.00    -0.147 C  
HETATM   36  O   UNL     1      -6.212  13.588  67.278  1.00  0.00    -0.313 OA 
BRANCH  35  37
HETATM   37  C   UNL     1      -8.619  13.366  67.082  1.00  0.00    -0.195 C  
HETATM   38  H   UNL     1      -9.377  14.748  65.896  1.00  0.00     0.000 HD 
HETATM   39  O   UNL     1      -8.541  14.611  66.328  1.00  0.00    -0.007 OA 
BRANCH  37  40
HETATM   40  C   UNL     1     -10.098  13.194  67.717  1.00  0.00    -0.226 C  
BRANCH  40  41
HETATM   41  C   UNL     1     -11.132  13.183  66.535  1.00  0.00    -0.317 A  
HETATM   42  C   UNL     1     -12.282  13.979  66.598  1.00  0.00    -0.463 A  
HETATM   43  C   UNL     1     -10.853  12.533  65.311  1.00  0.00    -0.321 A  
HETATM   44  C   UNL     1     -11.696  12.649  64.178  1.00  0.00    -0.468 A  
HETATM   45  C   UNL     1     -13.132  14.080  65.460  1.00  0.00    -0.217 A  
HETATM   46  C   UNL     1     -12.857  13.433  64.293  1.00  0.00     0.048 A  
ENDBRANCH  40  41
BRANCH  40  47
HETATM   47  N   UNL     1     -10.610  13.955  68.988  1.00  0.00    -0.368 N  
HETATM   48  C   UNL     1     -10.253  15.233  69.504  1.00  0.00    -0.260 C  
HETATM   49  H   UNL     1     -11.312  13.455  69.533  1.00  0.00     0.000 HD 
HETATM   50  O   UNL     1      -9.589  16.038  68.867  1.00  0.00    -0.212 OA 
BRANCH  48  51
HETATM   51  O   UNL     1     -10.718  15.487  70.814  1.00  0.00    -0.318 OA 
HETATM   52  C   UNL     1     -12.082  15.115  71.423  1.00  0.00    -0.338 C  
HETATM   53  C   UNL     1     -13.319  15.542  70.610  1.00  0.00    -0.201 C  
HETATM   54  C   UNL     1     -12.298  15.804  72.818  1.00  0.00    -0.564 C  
HETATM   55  C   UNL     1     -12.166  13.601  71.693  1.00  0.00    -0.021 C  
ENDBRANCH  48  51
ENDBRANCH  40  47
ENDBRANCH  37  40
ENDBRANCH  35  37
ENDBRANCH  34  35
ENDBRANCH   8  34
BRANCH  22  56
HETATM   56  O   UNL     1      -6.532   8.484  72.125  1.00  0.00    -0.069 OA 
HETATM   57  C   UNL     1      -5.197   8.035  71.800  1.00  0.00    -0.034 C  
ENDBRANCH  22  56
BRANCH  11  58
HETATM   58  O   UNL     1      -8.947   3.991  70.022  1.00  0.00    -0.081 OA 
HETATM   59  C   UNL     1      -8.701   2.694  70.590  1.00  0.00    -0.069 C  
ENDBRANCH  11  58
BRANCH   5  60
HETATM   60  O   UNL     1      -8.966   6.089  65.487  1.00  0.00    -0.128 OA 
BRANCH  60  61
HETATM   61  C   UNL     1      -8.810   5.292  64.427  1.00  0.00     0.011 C  
HETATM   62  C   UNL     1      -9.885   4.237  64.442  1.00  0.00    -0.110 C  
HETATM   63  O   UNL     1      -8.000   5.371  63.495  1.00  0.00    -0.087 OA 
ENDBRANCH  60  61
ENDBRANCH   5  60
TORSDOF 14
ENDMDL
MODEL       28
REMARK 921   NORMALIZED FREE ENERGY PREDICTED BY IDOCK:   -1.06 KCAL/MOL
REMARK 922        TOTAL FREE ENERGY PREDICTED BY IDOCK:   -5.25 KCAL/MOL
REMARK 923 INTER-LIGAND FREE ENERGY PREDICTED BY IDOCK:   -2.65 KCAL/MOL
REMARK 924 INTRA-LIGAND FREE ENERGY PREDICTED BY IDOCK:   -2.60 KCAL/MOL
REMARK 927      BINDING AFFINITY PREDICTED BY RF-SCORE:    0.00 PKD
ROOT
HETATM    1  C   UNL     1      -9.216  13.294  67.047  1.00  0.00    -0.237 C  
HETATM    2  C   UNL     1      -8.645  11.534  66.470  1.00  0.00    -0.172 C  
HETATM    3  C   UNL     1      -5.232  10.191  66.715  1.00  0.00    -0.040 C  
HETATM    4  C   UNL     1      -7.442  11.077  67.357  1.00  0.00    -0.106 C  
HETATM    5  C   UNL     1     -10.326  13.911  66.140  1.00  0.00    -0.301 C  
HETATM    6  O   UNL     1      -7.784  12.189  68.115  1.00  0.00    -0.112 OA 
HETATM    7  C   UNL     1      -7.617   9.658  68.105  1.00  0.00    -0.082 C  
HETATM    8  C   UNL     1      -6.677   9.282  69.307  1.00  0.00    -0.049 C  
HETATM    9  C   UNL     1      -7.160  14.336  69.086  1.00  0.00    -0.117 C  
HETATM   10  H   UNL     1      -7.052  11.911  68.654  1.00  0.00     0.000 HD 
HETATM   11  C   UNL     1      -9.143  15.868  68.233  1.00  0.00    -0.185 C  
HETATM   12  C   UNL     1     -10.583  15.953  67.733  1.00  0.00    -0.302 C  
HETATM   13  C   UNL     1      -9.552  14.223  69.944  1.00  0.00     0.945 C  
HETATM   14  C   UNL     1      -6.771  10.602  69.935  1.00  0.00    -0.147 C  
HETATM   15  C   UNL     1     -10.735  15.412  66.334  1.00  0.00    -0.311 C  
HETATM   16  C   UNL     1      -8.303  10.669  70.495  1.00  0.00     1.763 C  
HETATM   17  O   UNL     1      -9.778  15.851  65.344  1.00  0.00    -0.397 OA 
HETATM   18  C   UNL     1      -6.052  11.649  69.311  1.00  0.00    -0.078 C  
HETATM   19  C   UNL     1      -5.922  11.417  67.466  1.00  0.00    -0.064 C  
HETATM   20  C   UNL     1      -8.786  14.344  68.550  1.00  0.00    -0.180 C  
HETATM   21  O   UNL     1      -6.364  15.241  68.834  1.00  0.00    -0.092 OA 
HETATM   22  C   UNL     1      -6.681  13.054  69.971  1.00  0.00     0.333 C  
HETATM   23  C   UNL     1      -9.626  14.495  64.867  1.00  0.00     0.598 C  
HETATM   24  C   UNL     1      -5.520  12.558  66.413  1.00  0.00     1.381 C  
ENDROOT
BRANCH   2  25
HETATM   25  O   UNL     1      -9.527  10.207  66.504  1.00  0.00    -0.159 OA 
BRANCH  25  26
HETATM   26  C   UNL     1     -10.900  10.144  66.966  1.00  0.00    -0.151 C  
HETATM   27  O   UNL     1     -11.785  10.078  66.112  1.00  0.00     1.448 OA 
BRANCH  26  28
HETATM   28  C   UNL     1     -11.434  10.476  68.502  1.00  0.00    -0.284 A  
HETATM   29  C   UNL     1     -12.203  11.936  70.442  1.00  0.00    -0.399 A  
HETATM   30  C   UNL     1     -11.272   9.489  69.494  1.00  0.00    -0.105 A  
HETATM   31  C   UNL     1     -11.794  11.739  69.088  1.00  0.00    -0.389 A  
HETATM   32  C   UNL     1     -11.606   9.691  70.876  1.00  0.00    -0.420 A  
HETATM   33  C   UNL     1     -12.118  10.896  71.343  1.00  0.00    -0.241 A  
ENDBRANCH  26  28
ENDBRANCH  25  26
ENDBRANCH   2  25
BRANCH   8  34
HETATM   34  O   UNL     1      -7.107   8.277  70.302  1.00  0.00    -0.039 OA 
BRANCH  34  35
HETATM   35  C   UNL     1      -7.841   7.214  69.829  1.00  0.00    -0.118 C  
HETATM   36  O   UNL     1      -9.027   7.072  70.137  1.00  0.00    -0.145 OA 
BRANCH  35  37
HETATM   37  C   UNL     1      -7.098   6.050  69.080  1.00  0.00    -0.070 C  
HETATM   38  H   UNL     1      -5.292   5.787  68.335  1.00  0.00     0.000 HD 
HETATM   39  O   UNL     1      -5.741   6.491  68.788  1.00  0.00    -0.015 OA 
BRANCH  37  40
HETATM   40  C   UNL     1      -7.661   5.142  67.862  1.00  0.00    -0.087 C  
BRANCH  40  41
HETATM   41  C   UNL     1      -6.854   3.795  67.853  1.00  0.00    -0.047 A  
HETATM   42  C   UNL     1      -6.132   3.415  66.716  1.00  0.00    -0.024 A  
HETATM   43  C   UNL     1      -6.675   3.029  69.029  1.00  0.00    -0.037 A  
HETATM   44  C   UNL     1      -5.817   1.902  69.079  1.00  0.00    -0.023 A  
HETATM   45  C   UNL     1      -5.282   2.272  66.771  1.00  0.00    -0.008 A  
HETATM   46  C   UNL     1      -5.134   1.536  67.907  1.00  0.00    -0.004 A  
ENDBRANCH  40  41
BRANCH  40  47
HETATM   47  N   UNL     1      -7.984   5.687  66.429  1.00  0.00    -0.101 N  
HETATM   48  C   UNL     1      -7.150   6.344  65.481  1.00  0.00    -0.065 C  
HETATM   49  H   UNL     1      -8.948   5.548  66.126  1.00  0.00     0.000 HD 
HETATM   50  O   UNL     1      -5.934   6.402  65.603  1.00  0.00    -0.027 OA 
BRANCH  48  51
HETATM   51  O   UNL     1      -7.841   6.933  64.399  1.00  0.00    -0.108 OA 
HETATM   52  C   UNL     1      -7.342   8.030  63.441  1.00  0.00    -0.107 C  
HETATM   53  C   UNL     1      -6.760   9.290  64.109  1.00  0.00    -0.091 C  
HETATM   54  C   UNL     1      -8.504   8.586  62.545  1.00  0.00    -0.156 C  
HETATM   55  C   UNL     1      -6.298   7.464  62.459  1.00  0.00    -0.062 C  
ENDBRANCH  48  51
ENDBRANCH  40  47
ENDBRANCH  37  40
ENDBRANCH  35  37
ENDBRANCH  34  35
ENDBRANCH   8  34
BRANCH  22  56
HETATM   56  O   UNL     1      -6.192  13.287  71.312  1.00  0.00    -0.065 OA 
HETATM   57  C   UNL     1      -5.313  14.428  71.438  1.00  0.00    -0.168 C  
ENDBRANCH  22  56
BRANCH  11  58
HETATM   58  O   UNL     1      -8.243  16.556  67.369  1.00  0.00    -0.156 OA 
HETATM   59  C   UNL     1      -8.301  17.981  67.543  1.00  0.00    -0.233 C  
ENDBRANCH  11  58
BRANCH   5  60
HETATM   60  O   UNL     1     -11.340  12.913  65.920  1.00  0.00    -0.293 OA 
BRANCH  60  61
HETATM   61  C   UNL     1     -12.422  13.196  65.189  1.00  0.00    -0.483 C  
HETATM   62  C   UNL     1     -12.363  12.415  63.903  1.00  0.00    -0.602 C  
HETATM   63  O   UNL     1     -13.398  13.904  65.467  1.00  0.00    -0.662 OA 
ENDBRANCH  60  61
ENDBRANCH   5  60
TORSDOF 14
ENDMDL
MODEL       29
REMARK 921   NORMALIZED FREE ENERGY PREDICTED BY IDOCK:   -1.04 KCAL/MOL
REMARK 922        TOTAL FREE ENERGY PREDICTED BY IDOCK:   -5.22 KCAL/MOL
REMARK 923 INTER-LIGAND FREE ENERGY PREDICTED BY IDOCK:   -3.31 KCAL/MOL
REMARK 924 INTRA-LIGAND FREE ENERGY PREDICTED BY IDOCK:   -1.91 KCAL/MOL
REMARK 927      BINDING AFFINITY PREDICTED BY RF-SCORE:    0.00 PKD
ROOT
HETATM    1  C   UNL     1      -8.815  13.677  67.217  1.00  0.00    -0.227 C  
HETATM    2  C   UNL     1      -8.703  11.813  66.699  1.00  0.00    -0.186 C  
HETATM    3  C   UNL     1      -5.624   9.811  66.523  1.00  0.00    -0.046 C  
HETATM    4  C   UNL     1      -7.482  11.161  67.425  1.00  0.00    -0.109 C  
HETATM    5  C   UNL     1      -9.919  14.466  66.445  1.00  0.00    -0.294 C  
HETATM    6  O   UNL     1      -7.470  12.352  68.136  1.00  0.00    -0.099 OA 
HETATM    7  C   UNL     1      -7.804   9.843  68.300  1.00  0.00    -0.085 C  
HETATM    8  C   UNL     1      -6.768   9.339  69.370  1.00  0.00    -0.048 C  
HETATM    9  C   UNL     1      -6.286  14.369  68.828  1.00  0.00    -0.086 C  
HETATM   10  H   UNL     1      -6.727  11.956  68.577  1.00  0.00     0.000 HD 
HETATM   11  C   UNL     1      -8.046  16.234  68.171  1.00  0.00    -0.158 C  
HETATM   12  C   UNL     1      -9.504  16.589  67.893  1.00  0.00    -0.220 C  
HETATM   13  C   UNL     1      -8.478  14.788  70.048  1.00  0.00     0.609 C  
HETATM   14  C   UNL     1      -6.497  10.678  69.899  1.00  0.00    -0.124 C  
HETATM   15  C   UNL     1      -9.989  16.027  66.581  1.00  0.00    -0.267 C  
HETATM   16  C   UNL     1      -7.872  11.083  70.680  1.00  0.00     2.681 C  
HETATM   17  O   UNL     1      -9.144  16.214  65.424  1.00  0.00    -0.248 OA 
HETATM   18  C   UNL     1      -5.702  11.525  69.092  1.00  0.00    -0.049 C  
HETATM   19  C   UNL     1      -5.928  11.186  67.272  1.00  0.00    -0.064 C  
HETATM   20  C   UNL     1      -7.945  14.685  68.549  1.00  0.00    -0.136 C  
HETATM   21  O   UNL     1      -5.383  15.078  68.386  1.00  0.00    -0.095 OA 
HETATM   22  C   UNL     1      -5.926  13.058  69.727  1.00  0.00    -0.130 C  
HETATM   23  C   UNL     1      -9.339  14.835  65.037  1.00  0.00     1.047 C  
HETATM   24  C   UNL     1      -5.491  12.170  66.084  1.00  0.00     1.171 C  
ENDROOT
BRANCH   2  25
HETATM   25  O   UNL     1      -9.808  10.698  66.973  1.00  0.00    -0.176 OA 
BRANCH  25  26
HETATM   26  C   UNL     1     -11.153  10.971  67.440  1.00  0.00    -0.305 C  
HETATM   27  O   UNL     1     -12.040  11.080  66.592  1.00  0.00     0.455 OA 
BRANCH  26  28
HETATM   28  C   UNL     1     -11.578  11.473  68.964  1.00  0.00    -0.383 A  
HETATM   29  C   UNL     1     -12.641  11.288  71.272  1.00  0.00    -0.487 A  
HETATM   30  C   UNL     1     -11.532  12.852  69.252  1.00  0.00    -0.341 A  
HETATM   31  C   UNL     1     -12.275  10.756  69.998  1.00  0.00    -0.409 A  
HETATM   32  C   UNL     1     -11.965  13.417  70.499  1.00  0.00    -0.332 A  
HETATM   33  C   UNL     1     -12.472  12.633  71.528  1.00  0.00    -0.128 A  
ENDBRANCH  26  28
ENDBRANCH  25  26
ENDBRANCH   2  25
BRANCH   8  34
HETATM   34  O   UNL     1      -7.215   8.491  70.495  1.00  0.00    -0.040 OA 
BRANCH  34  35
HETATM   35  C   UNL     1      -8.317   7.699  70.273  1.00  0.00    -0.132 C  
HETATM   36  O   UNL     1      -9.454   8.102  70.529  1.00  0.00    -0.161 OA 
BRANCH  35  37
HETATM   37  C   UNL     1      -8.105   6.186  69.907  1.00  0.00    -0.119 C  
HETATM   38  H   UNL     1      -6.568   5.073  69.369  1.00  0.00     0.000 HD 
HETATM   39  O   UNL     1      -6.696   5.988  69.591  1.00  0.00    -0.048 OA 
BRANCH  37  40
HETATM   40  C   UNL     1      -9.024   5.265  68.942  1.00  0.00    -0.103 C  
BRANCH  40  41
HETATM   41  C   UNL     1      -9.366   3.944  69.719  1.00  0.00    -0.242 A  
HETATM   42  C   UNL     1      -9.306   2.707  69.067  1.00  0.00    -0.212 A  
HETATM   43  C   UNL     1      -9.555   3.936  71.121  1.00  0.00    -0.244 A  
HETATM   44  C   UNL     1      -9.700   2.736  71.862  1.00  0.00    -0.221 A  
HETATM   45  C   UNL     1      -9.467   1.506  69.816  1.00  0.00    -0.131 A  
HETATM   46  C   UNL     1      -9.665   1.517  71.164  1.00  0.00    -0.193 A  
ENDBRANCH  40  41
BRANCH  40  47
HETATM   47  N   UNL     1      -8.754   5.039  67.415  1.00  0.00    -0.104 N  
HETATM   48  C   UNL     1      -9.640   5.098  66.302  1.00  0.00    -0.164 C  
HETATM   49  H   UNL     1      -7.788   4.814  67.180  1.00  0.00     0.000 HD 
HETATM   50  O   UNL     1     -10.772   5.552  66.385  1.00  0.00    -0.281 OA 
BRANCH  48  51
HETATM   51  O   UNL     1      -9.108   4.577  65.101  1.00  0.00    -0.140 OA 
HETATM   52  C   UNL     1      -9.554   3.317  64.336  1.00  0.00    -0.153 C  
HETATM   53  C   UNL     1      -9.655   2.026  65.170  1.00  0.00     0.143 C  
HETATM   54  C   UNL     1      -8.542   2.946  63.195  1.00  0.00    -0.085 C  
HETATM   55  C   UNL     1     -10.903   3.556  63.630  1.00  0.00    -0.212 C  
ENDBRANCH  48  51
ENDBRANCH  40  47
ENDBRANCH  37  40
ENDBRANCH  35  37
ENDBRANCH  34  35
ENDBRANCH   8  34
BRANCH  22  56
HETATM   56  O   UNL     1      -5.186  13.248  70.955  1.00  0.00    -0.118 OA 
HETATM   57  C   UNL     1      -5.899  13.979  71.977  1.00  0.00     0.019 C  
ENDBRANCH  22  56
BRANCH  11  58
HETATM   58  O   UNL     1      -7.186  16.681  67.127  1.00  0.00    -0.148 OA 
HETATM   59  C   UNL     1      -6.986  18.104  67.157  1.00  0.00    -0.193 C  
ENDBRANCH  11  58
BRANCH   5  60
HETATM   60  O   UNL     1     -11.131  13.688  66.463  1.00  0.00    -0.299 OA 
BRANCH  60  61
HETATM   61  C   UNL     1     -11.951  13.688  65.408  1.00  0.00    -0.378 C  
HETATM   62  C   UNL     1     -13.269  14.294  65.811  1.00  0.00     0.296 C  
HETATM   63  O   UNL     1     -11.732  13.344  64.240  1.00  0.00    -0.376 OA 
ENDBRANCH  60  61
ENDBRANCH   5  60
TORSDOF 14
ENDMDL
MODEL       30
REMARK 921   NORMALIZED FREE ENERGY PREDICTED BY IDOCK:   -0.87 KCAL/MOL
REMARK 922        TOTAL FREE ENERGY PREDICTED BY IDOCK:   -4.90 KCAL/MOL
REMARK 923 INTER-LIGAND FREE ENERGY PREDICTED BY IDOCK:   -2.74 KCAL/MOL
REMARK 924 INTRA-LIGAND FREE ENERGY PREDICTED BY IDOCK:   -2.16 KCAL/MOL
REMARK 927      BINDING AFFINITY PREDICTED BY RF-SCORE:    0.00 PKD
ROOT
HETATM    1  C   UNL     1      -9.947  12.583  67.045  1.00  0.00    -0.217 C  
HETATM    2  C   UNL     1      -9.456  12.468  68.916  1.00  0.00     0.258 C  
HETATM    3  C   UNL     1     -10.325   9.725  71.204  1.00  0.00    -0.081 C  
HETATM    4  C   UNL     1      -9.334  10.962  69.314  1.00  0.00    -0.006 C  
HETATM    5  C   UNL     1     -10.232  14.043  66.571  1.00  0.00    -0.279 C  
HETATM    6  O   UNL     1      -9.439  10.755  67.946  1.00  0.00    -0.153 OA 
HETATM    7  C   UNL     1      -7.927  10.517  69.968  1.00  0.00     0.226 C  
HETATM    8  C   UNL     1      -7.542   8.995  70.042  1.00  0.00    -0.072 C  
HETATM    9  C   UNL     1     -10.611   9.744  66.062  1.00  0.00     0.118 C  
HETATM   10  H   UNL     1      -9.365   9.839  68.187  1.00  0.00     0.000 HD 
HETATM   11  C   UNL     1     -10.973  11.853  64.505  1.00  0.00    -0.322 C  
HETATM   12  C   UNL     1     -10.517  13.254  64.106  1.00  0.00    -0.281 C  
HETATM   13  C   UNL     1      -8.768  10.920  64.763  1.00  0.00    -0.055 C  
HETATM   14  C   UNL     1      -7.985   8.704  68.677  1.00  0.00    -0.115 C  
HETATM   15  C   UNL     1     -10.858  14.285  65.153  1.00  0.00    -0.378 C  
HETATM   16  C   UNL     1      -6.887   9.457  67.733  1.00  0.00    -0.079 C  
HETATM   17  O   UNL     1     -12.199  14.271  65.689  1.00  0.00    -0.400 OA 
HETATM   18  C   UNL     1      -9.383   8.647  68.468  1.00  0.00    -0.138 C  
HETATM   19  C   UNL     1     -10.317   9.786  69.611  1.00  0.00    -0.259 C  
HETATM   20  C   UNL     1     -10.025  11.303  65.667  1.00  0.00    -0.292 C  
HETATM   21  O   UNL     1     -11.757   9.372  65.810  1.00  0.00     3.637 OA 
HETATM   22  C   UNL     1      -9.572   8.732  66.806  1.00  0.00    -0.206 C  
HETATM   23  C   UNL     1     -11.682  14.415  67.031  1.00  0.00    -0.399 C  
HETATM   24  C   UNL     1     -11.838  10.255  69.413  1.00  0.00    -0.109 C  
ENDROOT
BRANCH   2  25
HETATM   25  O   UNL     1      -8.114  13.030  69.567  1.00  0.00     0.748 OA 
BRANCH  25  26
HETATM   26  C   UNL     1      -7.196  13.935  68.905  1.00  0.00    -0.103 C  
HETATM   27  O   UNL     1      -6.781  13.611  67.791  1.00  0.00    -0.142 OA 
BRANCH  26  28
HETATM   28  C   UNL     1      -6.389  15.203  69.609  1.00  0.00    -0.146 A  
HETATM   29  C   UNL     1      -5.166  16.450  71.464  1.00  0.00     0.119 A  
HETATM   30  C   UNL     1      -6.492  16.476  69.015  1.00  0.00    -0.182 A  
HETATM   31  C   UNL     1      -5.806  15.295  70.922  1.00  0.00     0.067 A  
HETATM   32  C   UNL     1      -5.919  17.665  69.581  1.00  0.00    -0.254 A  
HETATM   33  C   UNL     1      -5.214  17.646  70.779  1.00  0.00    -0.264 A  
ENDBRANCH  26  28
ENDBRANCH  25  26
ENDBRANCH   2  25
BRANCH   8  34
HETATM   34  O   UNL     1      -6.123   8.592  70.152  1.00  0.00    -0.033 OA 
BRANCH  34  35
HETATM   35  C   UNL     1      -5.827   7.615  71.073  1.00  0.00    -0.034 C  
HETATM   36  O   UNL     1      -5.152   7.868  72.074  1.00  0.00    -0.034 OA 
BRANCH  35  37
HETATM   37  C   UNL     1      -6.157   6.119  70.728  1.00  0.00    -0.038 C  
HETATM   38  H   UNL     1      -5.506   4.806  69.408  1.00  0.00     0.000 HD 
HETATM   39  O   UNL     1      -5.306   5.711  69.617  1.00  0.00    -0.004 OA 
BRANCH  37  40
HETATM   40  C   UNL     1      -7.619   5.437  70.586  1.00  0.00    -0.081 C  
BRANCH  40  41
HETATM   41  C   UNL     1      -7.910   4.642  71.908  1.00  0.00    -0.098 A  
HETATM   42  C   UNL     1      -9.019   4.969  72.697  1.00  0.00    -0.130 A  
HETATM   43  C   UNL     1      -7.191   3.471  72.244  1.00  0.00    -0.047 A  
HETATM   44  C   UNL     1      -7.545   2.649  73.343  1.00  0.00    -0.046 A  
HETATM   45  C   UNL     1      -9.360   4.146  73.809  1.00  0.00    -0.105 A  
HETATM   46  C   UNL     1      -8.647   3.030  74.128  1.00  0.00    -0.076 A  
ENDBRANCH  40  41
BRANCH  40  47
HETATM   47  N   UNL     1      -8.137   4.714  69.295  1.00  0.00    -0.069 N  
HETATM   48  C   UNL     1      -9.460   4.556  68.794  1.00  0.00    -0.157 C  
HETATM   49  H   UNL     1      -7.409   4.289  68.722  1.00  0.00     0.000 HD 
HETATM   50  O   UNL     1     -10.414   5.174  69.245  1.00  0.00    -0.219 OA 
BRANCH  48  51
HETATM   51  O   UNL     1      -9.581   3.618  67.743  1.00  0.00    -0.193 OA 
HETATM   52  C   UNL     1      -8.479   3.112  66.795  1.00  0.00    -0.104 C  
HETATM   53  C   UNL     1      -7.646   4.201  66.091  1.00  0.00    -0.089 C  
HETATM   54  C   UNL     1      -9.078   2.276  65.608  1.00  0.00    -0.086 C  
HETATM   55  C   UNL     1      -7.521   2.156  67.531  1.00  0.00    -0.056 C  
ENDBRANCH  48  51
ENDBRANCH  40  47
ENDBRANCH  37  40
ENDBRANCH  35  37
ENDBRANCH  34  35
ENDBRANCH   8  34
BRANCH  22  56
HETATM   56  O   UNL     1      -9.252   7.478  66.161  1.00  0.00    -0.167 OA 
HETATM   57  C   UNL     1      -8.161   7.553  65.216  1.00  0.00    -0.129 C  
ENDBRANCH  22  56
BRANCH  11  58
HETATM   58  O   UNL     1     -12.373  11.807  64.764  1.00  0.00    -0.200 OA 
HETATM   59  C   UNL     1     -13.146  11.654  63.562  1.00  0.00     0.229 C  
ENDBRANCH  11  58
BRANCH   5  60
HETATM   60  O   UNL     1      -9.167  14.890  67.040  1.00  0.00    -0.211 OA 
BRANCH  60  61
HETATM   61  C   UNL     1      -9.044  16.139  66.584  1.00  0.00    -0.252 C  
HETATM   62  C   UNL     1      -9.723  17.081  67.543  1.00  0.00    -0.251 C  
HETATM   63  O   UNL     1      -8.429  16.561  65.596  1.00  0.00    -0.301 OA 
ENDBRANCH  60  61
ENDBRANCH   5  60
TORSDOF 14
ENDMDL
MODEL       31
REMARK 921   NORMALIZED FREE ENERGY PREDICTED BY IDOCK:   -0.56 KCAL/MOL
REMARK 922        TOTAL FREE ENERGY PREDICTED BY IDOCK:   -4.34 KCAL/MOL
REMARK 923 INTER-LIGAND FREE ENERGY PREDICTED BY IDOCK:   -1.29 KCAL/MOL
REMARK 924 INTRA-LIGAND FREE ENERGY PREDICTED BY IDOCK:   -3.05 KCAL/MOL
REMARK 927      BINDING AFFINITY PREDICTED BY RF-SCORE:    0.00 PKD
ROOT
HETATM    1  C   UNL     1     -10.080  15.136  66.817  1.00  0.00    -0.261 C  
HETATM    2  C   UNL     1      -9.560  13.297  66.492  1.00  0.00    -0.264 C  
HETATM    3  C   UNL     1      -8.017  11.034  68.943  1.00  0.00    -0.138 C  
HETATM    4  C   UNL     1      -9.659  12.501  67.833  1.00  0.00    -0.206 C  
HETATM    5  C   UNL     1      -9.888  16.059  65.573  1.00  0.00    -0.189 C  
HETATM    6  O   UNL     1     -10.294  13.650  68.285  1.00  0.00    -0.237 OA 
HETATM    7  C   UNL     1     -10.582  11.176  67.800  1.00  0.00    -0.248 C  
HETATM    8  C   UNL     1     -11.072  10.527  69.145  1.00  0.00    -0.250 C  
HETATM    9  C   UNL     1     -10.389  15.512  69.855  1.00  0.00    -0.312 C  
HETATM   10  H   UNL     1     -10.355  13.166  69.101  1.00  0.00     0.000 HD 
HETATM   11  C   UNL     1     -10.598  17.561  68.191  1.00  0.00    -0.366 C  
HETATM   12  C   UNL     1     -11.003  18.061  66.808  1.00  0.00     0.141 C  
HETATM   13  C   UNL     1     -12.464  16.069  68.493  1.00  0.00     0.956 C  
HETATM   14  C   UNL     1     -11.428  11.807  69.760  1.00  0.00    -0.320 C  
HETATM   15  C   UNL     1     -10.046  17.612  65.734  1.00  0.00    -0.085 C  
HETATM   16  C   UNL     1     -12.744  12.297  68.928  1.00  0.00     1.175 C  
HETATM   17  O   UNL     1      -8.633  17.778  65.990  1.00  0.00    -0.497 OA 
HETATM   18  C   UNL     1     -10.354  12.617  70.196  1.00  0.00     2.248 C  
HETATM   19  C   UNL     1      -8.827  12.391  69.150  1.00  0.00     0.665 C  
HETATM   20  C   UNL     1     -10.885  15.992  68.288  1.00  0.00    -0.319 C  
HETATM   21  O   UNL     1      -9.592  16.157  70.536  1.00  0.00     0.856 OA 
HETATM   22  C   UNL     1     -11.028  14.131  70.439  1.00  0.00     0.393 C  
HETATM   23  C   UNL     1      -8.371  16.443  65.500  1.00  0.00     1.293 C  
HETATM   24  C   UNL     1      -7.573  13.390  69.111  1.00  0.00     0.200 C  
ENDROOT
BRANCH   2  25
HETATM   25  O   UNL     1     -10.296  12.275  65.515  1.00  0.00    -0.254 OA 
BRANCH  25  26
HETATM   26  C   UNL     1      -9.624  11.454  64.527  1.00  0.00    -0.192 C  
HETATM   27  O   UNL     1     -10.136  11.373  63.410  1.00  0.00    -0.332 OA 
BRANCH  26  28
HETATM   28  C   UNL     1      -8.417  10.354  64.824  1.00  0.00    -0.176 A  
HETATM   29  C   UNL     1      -6.042   9.565  65.304  1.00  0.00    -0.067 A  
HETATM   30  C   UNL     1      -8.649   9.003  64.501  1.00  0.00    -0.181 A  
HETATM   31  C   UNL     1      -7.025  10.583  65.105  1.00  0.00    -0.023 A  
HETATM   32  C   UNL     1      -7.653   7.975  64.622  1.00  0.00    -0.111 A  
HETATM   33  C   UNL     1      -6.365   8.245  65.070  1.00  0.00    -0.049 A  
ENDBRANCH  26  28
ENDBRANCH  25  26
ENDBRANCH   2  25
BRANCH   8  34
HETATM   34  O   UNL     1     -12.275   9.668  69.160  1.00  0.00     0.724 OA 
BRANCH  34  35
HETATM   35  C   UNL     1     -12.587   9.060  70.353  1.00  0.00     0.523 C  
HETATM   36  O   UNL     1     -13.463   9.517  71.091  1.00  0.00    -0.341 OA 
BRANCH  35  37
HETATM   37  C   UNL     1     -11.660   7.908  70.884  1.00  0.00    -0.273 C  
HETATM   38  H   UNL     1     -11.395   7.005  72.617  1.00  0.00     0.000 HD 
HETATM   39  O   UNL     1     -11.956   7.701  72.296  1.00  0.00    -0.304 OA 
BRANCH  37  40
HETATM   40  C   UNL     1     -10.074   7.713  70.616  1.00  0.00    -0.187 C  
BRANCH  40  41
HETATM   41  C   UNL     1      -9.899   7.134  69.166  1.00  0.00    -0.160 A  
HETATM   42  C   UNL     1      -8.648   7.172  68.539  1.00  0.00    -0.124 A  
HETATM   43  C   UNL     1     -10.928   6.399  68.532  1.00  0.00    -0.396 A  
HETATM   44  C   UNL     1     -10.734   5.730  67.297  1.00  0.00    -0.345 A  
HETATM   45  C   UNL     1      -8.465   6.509  67.292  1.00  0.00    -0.112 A  
HETATM   46  C   UNL     1      -9.472   5.819  66.686  1.00  0.00    -0.161 A  
ENDBRANCH  40  41
BRANCH  40  47
HETATM   47  N   UNL     1      -9.068   7.110  71.655  1.00  0.00    -0.137 N  
HETATM   48  C   UNL     1      -8.841   7.443  73.020  1.00  0.00    -0.142 C  
HETATM   49  H   UNL     1      -8.481   6.358  71.295  1.00  0.00     0.000 HD 
HETATM   50  O   UNL     1      -9.593   8.170  73.655  1.00  0.00    -0.168 OA 
BRANCH  48  51
HETATM   51  O   UNL     1      -7.673   6.876  73.576  1.00  0.00    -0.084 OA 
HETATM   52  C   UNL     1      -6.218   7.351  73.408  1.00  0.00    -0.060 C  
HETATM   53  C   UNL     1      -5.747   7.574  71.959  1.00  0.00    -0.036 C  
HETATM   54  C   UNL     1      -5.199   6.298  73.973  1.00  0.00    -0.040 C  
HETATM   55  C   UNL     1      -5.969   8.640  74.213  1.00  0.00    -0.141 C  
ENDBRANCH  48  51
ENDBRANCH  40  47
ENDBRANCH  37  40
ENDBRANCH  35  37
ENDBRANCH  34  35
ENDBRANCH   8  34
BRANCH  22  56
HETATM   56  O   UNL     1     -11.794  14.191  71.664  1.00  0.00    -0.150 OA 
HETATM   57  C   UNL     1     -13.097  14.799  71.525  1.00  0.00    -0.354 C  
ENDBRANCH  22  56
BRANCH  11  58
HETATM   58  O   UNL     1      -9.281  17.979  68.539  1.00  0.00    -0.283 OA 
HETATM   59  C   UNL     1      -9.257  19.306  69.091  1.00  0.00    -0.184 C  
ENDBRANCH  11  58
BRANCH   5  60
HETATM   60  O   UNL     1     -10.443  15.396  64.423  1.00  0.00    -0.085 OA 
BRANCH  60  61
HETATM   61  C   UNL     1     -11.753  15.462  64.169  1.00  0.00    -0.100 C  
HETATM   62  C   UNL     1     -12.362  14.099  64.371  1.00  0.00    -0.410 C  
HETATM   63  O   UNL     1     -12.453  16.443  63.888  1.00  0.00    -0.604 OA 
ENDBRANCH  60  61
ENDBRANCH   5  60
TORSDOF 14
ENDMDL
MODEL       32
REMARK 921   NORMALIZED FREE ENERGY PREDICTED BY IDOCK:   -0.49 KCAL/MOL
REMARK 922        TOTAL FREE ENERGY PREDICTED BY IDOCK:   -4.21 KCAL/MOL
REMARK 923 INTER-LIGAND FREE ENERGY PREDICTED BY IDOCK:   -3.29 KCAL/MOL
REMARK 924 INTRA-LIGAND FREE ENERGY PREDICTED BY IDOCK:   -0.91 KCAL/MOL
REMARK 927      BINDING AFFINITY PREDICTED BY RF-SCORE:    0.00 PKD
ROOT
HETATM    1  C   UNL     1      -9.377   6.459  67.647  1.00  0.00    -0.117 C  
HETATM    2  C   UNL     1     -10.052   8.213  67.171  1.00  0.00    -0.264 C  
HETATM    3  C   UNL     1     -11.315  10.741  69.522  1.00  0.00    -0.355 C  
HETATM    4  C   UNL     1      -9.787   9.194  68.359  1.00  0.00    -0.164 C  
HETATM    5  C   UNL     1      -9.711   5.363  66.587  1.00  0.00    -0.161 C  
HETATM    6  O   UNL     1      -9.020   8.145  68.847  1.00  0.00    -0.140 OA 
HETATM    7  C   UNL     1      -8.963  10.534  67.995  1.00  0.00    -0.135 C  
HETATM    8  C   UNL     1      -8.303  11.385  69.140  1.00  0.00     0.137 C  
HETATM    9  C   UNL     1      -8.562   6.528  70.613  1.00  0.00    -0.139 C  
HETATM   10  H   UNL     1      -8.858   8.742  69.569  1.00  0.00     0.000 HD 
HETATM   11  C   UNL     1      -8.501   4.274  69.226  1.00  0.00    -0.073 C  
HETATM   12  C   UNL     1      -8.293   3.599  67.873  1.00  0.00    -0.101 C  
HETATM   13  C   UNL     1      -6.703   5.862  69.009  1.00  0.00    -0.060 C  
HETATM   14  C   UNL     1      -7.776  10.219  69.852  1.00  0.00    -0.139 C  
HETATM   15  C   UNL     1      -9.436   3.856  66.925  1.00  0.00    -0.202 C  
HETATM   16  C   UNL     1      -6.584   9.666  68.884  1.00  0.00    -0.046 C  
HETATM   17  O   UNL     1     -10.776   3.675  67.434  1.00  0.00     1.698 OA 
HETATM   18  C   UNL     1      -8.716   9.439  70.566  1.00  0.00    -0.276 C  
HETATM   19  C   UNL     1     -10.402   9.458  69.769  1.00  0.00    -0.240 C  
HETATM   20  C   UNL     1      -8.296   5.850  69.064  1.00  0.00    -0.106 C  
HETATM   21  O   UNL     1      -9.199   5.957  71.497  1.00  0.00    -0.146 OA 
HETATM   22  C   UNL     1      -7.922   8.002  70.892  1.00  0.00    -0.094 C  
HETATM   23  C   UNL     1     -11.194   4.916  66.821  1.00  0.00     1.422 C  
HETATM   24  C   UNL     1     -11.583   8.418  70.075  1.00  0.00     0.191 C  
ENDROOT
BRANCH   2  25
HETATM   25  O   UNL     1      -9.545   9.113  65.958  1.00  0.00    -0.236 OA 
BRANCH  25  26
HETATM   26  C   UNL     1      -8.155   9.425  65.691  1.00  0.00    -0.112 C  
HETATM   27  O   UNL     1      -7.826  10.613  65.696  1.00  0.00    -0.157 OA 
BRANCH  26  28
HETATM   28  C   UNL     1      -7.021   8.389  65.062  1.00  0.00    -0.074 A  
HETATM   29  C   UNL     1      -5.709   7.194  63.234  1.00  0.00    -0.040 A  
HETATM   30  C   UNL     1      -6.490   7.389  65.900  1.00  0.00    -0.045 A  
HETATM   31  C   UNL     1      -6.673   8.145  63.687  1.00  0.00    -0.075 A  
HETATM   32  C   UNL     1      -5.576   6.377  65.448  1.00  0.00    -0.021 A  
HETATM   33  C   UNL     1      -5.146   6.308  64.128  1.00  0.00    -0.017 A  
ENDBRANCH  26  28
ENDBRANCH  25  26
ENDBRANCH   2  25
BRANCH   8  34
HETATM   34  O   UNL     1      -7.167  12.282  68.839  1.00  0.00    -0.109 OA 
BRANCH  34  35
HETATM   35  C   UNL     1      -7.352  13.196  67.828  1.00  0.00    -0.143 C  
HETATM   36  O   UNL     1      -6.448  13.453  67.029  1.00  0.00    -0.099 OA 
BRANCH  35  37
HETATM   37  C   UNL     1      -8.646  14.087  67.835  1.00  0.00    -0.181 C  
HETATM   38  H   UNL     1      -9.867  14.801  66.462  1.00  0.00     0.000 HD 
HETATM   39  O   UNL     1      -9.084  14.262  66.457  1.00  0.00    -0.249 OA 
BRANCH  37  40
HETATM   40  C   UNL     1      -8.904  15.447  68.677  1.00  0.00    -0.186 C  
BRANCH  40  41
HETATM   41  C   UNL     1     -10.309  15.327  69.367  1.00  0.00    -0.255 A  
HETATM   42  C   UNL     1     -10.466  15.681  70.712  1.00  0.00     0.091 A  
HETATM   43  C   UNL     1     -11.480  15.045  68.624  1.00  0.00    -0.329 A  
HETATM   44  C   UNL     1     -12.775  15.095  69.197  1.00  0.00     0.334 A  
HETATM   45  C   UNL     1     -11.770  15.715  71.285  1.00  0.00    -0.478 A  
HETATM   46  C   UNL     1     -12.885  15.425  70.559  1.00  0.00    -0.425 A  
ENDBRANCH  40  41
BRANCH  40  47
HETATM   47  N   UNL     1      -8.589  16.888  68.147  1.00  0.00    -0.214 N  
HETATM   48  C   UNL     1      -8.584  17.403  66.820  1.00  0.00    -0.260 C  
HETATM   49  H   UNL     1      -8.350  17.566  68.870  1.00  0.00     0.000 HD 
HETATM   50  O   UNL     1      -9.043  16.783  65.871  1.00  0.00    -0.492 OA 
BRANCH  48  51
HETATM   51  O   UNL     1      -7.994  18.680  66.689  1.00  0.00    -0.247 OA 
HETATM   52  C   UNL     1      -8.162  19.900  67.613  1.00  0.00    -0.313 C  
HETATM   53  C   UNL     1      -9.614  20.304  67.933  1.00  0.00    -0.438 C  
HETATM   54  C   UNL     1      -7.547  21.196  66.975  1.00  0.00    -0.034 C  
HETATM   55  C   UNL     1      -7.404  19.692  68.937  1.00  0.00    -0.373 C  
ENDBRANCH  48  51
ENDBRANCH  40  47
ENDBRANCH  37  40
ENDBRANCH  35  37
ENDBRANCH  34  35
ENDBRANCH   8  34
BRANCH  22  56
HETATM   56  O   UNL     1      -6.967   8.144  71.969  1.00  0.00    -0.068 OA 
HETATM   57  C   UNL     1      -7.216   9.267  72.844  1.00  0.00     0.941 C  
ENDBRANCH  22  56
BRANCH  11  58
HETATM   58  O   UNL     1      -9.717   3.860  69.842  1.00  0.00    -0.202 OA 
HETATM   59  C   UNL     1      -9.652   2.508  70.323  1.00  0.00    -0.031 C  
ENDBRANCH  11  58
BRANCH   5  60
HETATM   60  O   UNL     1      -9.388   5.877  65.282  1.00  0.00     0.104 OA 
BRANCH  60  61
HETATM   61  C   UNL     1      -9.135   5.043  64.269  1.00  0.00     0.047 C  
HETATM   62  C   UNL     1     -10.404   4.816  63.491  1.00  0.00     0.692 C  
HETATM   63  O   UNL     1      -8.060   4.552  63.903  1.00  0.00    -0.089 OA 
ENDBRANCH  60  61
ENDBRANCH   5  60
TORSDOF 14
ENDMDL
MODEL       33
REMARK 921   NORMALIZED FREE ENERGY PREDICTED BY IDOCK:   -0.44 KCAL/MOL
REMARK 922        TOTAL FREE ENERGY PREDICTED BY IDOCK:   -4.13 KCAL/MOL
REMARK 923 INTER-LIGAND FREE ENERGY PREDICTED BY IDOCK:   -1.98 KCAL/MOL
REMARK 924 INTRA-LIGAND FREE ENERGY PREDICTED BY IDOCK:   -2.15 KCAL/MOL
REMARK 927      BINDING AFFINITY PREDICTED BY RF-SCORE:    0.00 PKD
ROOT
HETATM    1  C   UNL     1     -10.251  14.051  66.560  1.00  0.00    -0.279 C  
HETATM    2  C   UNL     1      -9.447  12.296  66.385  1.00  0.00    -0.237 C  
HETATM    3  C   UNL     1      -7.614  10.498  69.016  1.00  0.00    -0.117 C  
HETATM    4  C   UNL     1      -9.445  11.600  67.785  1.00  0.00    -0.178 C  
HETATM    5  C   UNL     1     -10.182  14.894  65.249  1.00  0.00    -0.373 C  
HETATM    6  O   UNL     1     -10.257  12.668  68.141  1.00  0.00    -0.226 OA 
HETATM    7  C   UNL     1     -10.150  10.150  67.852  1.00  0.00    -0.207 C  
HETATM    8  C   UNL     1     -10.557   9.539  69.242  1.00  0.00    -0.220 C  
HETATM    9  C   UNL     1     -10.667  14.610  69.557  1.00  0.00    -0.184 C  
HETATM   10  H   UNL     1     -10.256  12.245  68.992  1.00  0.00     0.000 HD 
HETATM   11  C   UNL     1     -11.161  16.465  67.735  1.00  0.00    -0.199 C  
HETATM   12  C   UNL     1     -11.615  16.787  66.315  1.00  0.00     1.299 C  
HETATM   13  C   UNL     1     -12.779  14.729  68.145  1.00  0.00     0.975 C  
HETATM   14  C   UNL     1     -11.118  10.792  69.752  1.00  0.00    -0.346 C  
HETATM   15  C   UNL     1     -10.581  16.411  65.285  1.00  0.00    -0.299 C  
HETATM   16  C   UNL     1     -12.480  11.005  68.876  1.00  0.00     0.325 C  
HETATM   17  O   UNL     1      -9.216  16.814  65.534  1.00  0.00    -0.443 OA 
HETATM   18  C   UNL     1     -10.189  11.790  70.128  1.00  0.00     1.888 C  
HETATM   19  C   UNL     1      -8.628  11.724  69.110  1.00  0.00     0.371 C  
HETATM   20  C   UNL     1     -11.203  14.883  67.955  1.00  0.00    -0.318 C  
HETATM   21  O   UNL     1      -9.991  15.421  70.189  1.00  0.00    -0.258 OA 
HETATM   22  C   UNL     1     -11.094  13.195  70.246  1.00  0.00     0.792 C  
HETATM   23  C   UNL     1      -8.741  15.503  65.153  1.00  0.00     2.639 C  
HETATM   24  C   UNL     1      -7.544  12.900  68.999  1.00  0.00     0.150 C  
ENDROOT
BRANCH   2  25
HETATM   25  O   UNL     1      -9.998  11.100  65.489  1.00  0.00    -0.225 OA 
BRANCH  25  26
HETATM   26  C   UNL     1      -9.460  10.726  64.196  1.00  0.00    -0.268 C  
HETATM   27  O   UNL     1     -10.200  10.838  63.217  1.00  0.00    -0.319 OA 
BRANCH  26  28
HETATM   28  C   UNL     1      -8.069   9.862  63.925  1.00  0.00    -0.152 A  
HETATM   29  C   UNL     1      -6.629   8.001  62.949  1.00  0.00    -0.085 A  
HETATM   30  C   UNL     1      -6.985  10.045  64.806  1.00  0.00    -0.137 A  
HETATM   31  C   UNL     1      -7.860   8.713  63.086  1.00  0.00    -0.153 A  
HETATM   32  C   UNL     1      -5.767   9.288  64.734  1.00  0.00    -0.063 A  
HETATM   33  C   UNL     1      -5.567   8.301  63.776  1.00  0.00    -0.061 A  
ENDBRANCH  26  28
ENDBRANCH  25  26
ENDBRANCH   2  25
BRANCH   8  34
HETATM   34  O   UNL     1     -11.613   8.507  69.319  1.00  0.00     0.475 OA 
BRANCH  34  35
HETATM   35  C   UNL     1     -11.949   8.057  70.574  1.00  0.00     0.062 C  
HETATM   36  O   UNL     1     -12.307   8.840  71.457  1.00  0.00    -0.305 OA 
BRANCH  35  37
HETATM   37  C   UNL     1     -11.651   6.561  70.951  1.00  0.00    -0.359 C  
HETATM   38  H   UNL     1     -12.198   5.343  72.402  1.00  0.00     0.000 HD 
HETATM   39  O   UNL     1     -12.378   6.247  72.174  1.00  0.00    -0.315 OA 
BRANCH  37  40
HETATM   40  C   UNL     1     -10.216   5.810  70.951  1.00  0.00    -0.216 C  
BRANCH  40  41
HETATM   41  C   UNL     1      -9.389   6.350  72.172  1.00  0.00    -0.149 A  
HETATM   42  C   UNL     1      -8.996   7.692  72.218  1.00  0.00    -0.177 A  
HETATM   43  C   UNL     1      -9.181   5.566  73.332  1.00  0.00    -0.131 A  
HETATM   44  C   UNL     1      -8.583   6.089  74.505  1.00  0.00    -0.118 A  
HETATM   45  C   UNL     1      -8.383   8.206  73.397  1.00  0.00    -0.282 A  
HETATM   46  C   UNL     1      -8.175   7.434  74.499  1.00  0.00    -0.233 A  
ENDBRANCH  40  41
BRANCH  40  47
HETATM   47  N   UNL     1      -9.348   5.561  69.670  1.00  0.00    -0.131 N  
HETATM   48  C   UNL     1      -9.718   5.523  68.296  1.00  0.00    -0.132 C  
HETATM   49  H   UNL     1      -8.356   5.401  69.849  1.00  0.00     0.000 HD 
HETATM   50  O   UNL     1     -10.814   5.896  67.899  1.00  0.00    -0.271 OA 
BRANCH  48  51
HETATM   51  O   UNL     1      -8.724   5.009  67.434  1.00  0.00    -0.105 OA 
HETATM   52  C   UNL     1      -7.825   5.788  66.456  1.00  0.00    -0.101 C  
HETATM   53  C   UNL     1      -8.552   6.743  65.491  1.00  0.00    -0.095 C  
HETATM   54  C   UNL     1      -7.040   4.821  65.500  1.00  0.00    -0.064 C  
HETATM   55  C   UNL     1      -6.747   6.581  67.218  1.00  0.00    -0.060 C  
ENDBRANCH  48  51
ENDBRANCH  40  47
ENDBRANCH  37  40
ENDBRANCH  35  37
ENDBRANCH  34  35
ENDBRANCH   8  34
BRANCH  22  56
HETATM   56  O   UNL     1     -11.881  13.230  71.459  1.00  0.00     0.442 OA 
HETATM   57  C   UNL     1     -12.413  14.532  71.789  1.00  0.00    -0.348 C  
ENDBRANCH  22  56
BRANCH  11  58
HETATM   58  O   UNL     1      -9.931  17.109  68.055  1.00  0.00    -0.272 OA 
HETATM   59  C   UNL     1     -10.128  18.328  68.791  1.00  0.00    -0.370 C  
ENDBRANCH  11  58
BRANCH   5  60
HETATM   60  O   UNL     1     -10.608  14.065  64.152  1.00  0.00    -0.146 OA 
BRANCH  60  61
HETATM   61  C   UNL     1     -11.902  13.978  63.831  1.00  0.00    -0.229 C  
HETATM   62  C   UNL     1     -12.230  12.546  63.498  1.00  0.00    -0.652 C  
HETATM   63  O   UNL     1     -12.779  14.850  63.851  1.00  0.00    -0.789 OA 
ENDBRANCH  60  61
ENDBRANCH   5  60
TORSDOF 14
ENDMDL
MODEL       34
REMARK 921   NORMALIZED FREE ENERGY PREDICTED BY IDOCK:   -0.26 KCAL/MOL
REMARK 922        TOTAL FREE ENERGY PREDICTED BY IDOCK:   -3.80 KCAL/MOL
REMARK 923 INTER-LIGAND FREE ENERGY PREDICTED BY IDOCK:   -2.69 KCAL/MOL
REMARK 924 INTRA-LIGAND FREE ENERGY PREDICTED BY IDOCK:   -1.11 KCAL/MOL
REMARK 927      BINDING AFFINITY PREDICTED BY RF-SCORE:    0.00 PKD
ROOT
HETATM    1  C   UNL     1      -9.968  12.793  66.752  1.00  0.00    -0.237 C  
HETATM    2  C   UNL     1      -9.343  12.603  68.577  1.00  0.00    -0.080 C  
HETATM    3  C   UNL     1     -10.076   9.783  70.818  1.00  0.00    -0.200 C  
HETATM    4  C   UNL     1      -9.210  11.081  68.908  1.00  0.00    -0.129 C  
HETATM    5  C   UNL     1     -10.269  14.272  66.355  1.00  0.00    -0.291 C  
HETATM    6  O   UNL     1      -9.417  10.928  67.545  1.00  0.00    -0.154 OA 
HETATM    7  C   UNL     1      -7.765  10.599  69.441  1.00  0.00    -0.132 C  
HETATM    8  C   UNL     1      -7.393   9.072  69.429  1.00  0.00    -0.075 C  
HETATM    9  C   UNL     1     -10.736  10.000  65.716  1.00  0.00     0.274 C  
HETATM   10  H   UNL     1      -9.337  10.003  67.746  1.00  0.00     0.000 HD 
HETATM   11  C   UNL     1     -11.185  12.170  64.268  1.00  0.00    -0.347 C  
HETATM   12  C   UNL     1     -10.743  13.581  63.890  1.00  0.00     0.116 C  
HETATM   13  C   UNL     1      -8.978  11.208  64.329  1.00  0.00     0.029 C  
HETATM   14  C   UNL     1      -7.938   8.837  68.090  1.00  0.00    -0.106 C  
HETATM   15  C   UNL     1     -10.994  14.574  64.997  1.00  0.00    -0.398 C  
HETATM   16  C   UNL     1      -6.903   9.615  67.097  1.00  0.00    -0.084 C  
HETATM   17  O   UNL     1     -12.293  14.552  65.629  1.00  0.00    -0.340 OA 
HETATM   18  C   UNL     1      -9.348   8.801  67.982  1.00  0.00    -0.153 C  
HETATM   19  C   UNL     1     -10.183   9.904  69.232  1.00  0.00    -0.222 C  
HETATM   20  C   UNL     1     -10.161  11.567  65.336  1.00  0.00    -0.311 C  
HETATM   21  O   UNL     1     -11.901   9.648  65.534  1.00  0.00     4.100 OA 
HETATM   22  C   UNL     1      -9.657   8.951  66.343  1.00  0.00    -0.238 C  
HETATM   23  C   UNL     1     -11.678  14.640  66.934  1.00  0.00    -0.350 C  
HETATM   24  C   UNL     1     -11.708  10.394  69.164  1.00  0.00    -0.191 C  
ENDROOT
BRANCH   2  25
HETATM   25  O   UNL     1      -7.951  13.127  69.148  1.00  0.00     0.196 OA 
BRANCH  25  26
HETATM   26  C   UNL     1      -7.211  14.250  68.607  1.00  0.00    -0.125 C  
HETATM   27  O   UNL     1      -6.909  14.211  67.413  1.00  0.00    -0.213 OA 
BRANCH  26  28
HETATM   28  C   UNL     1      -6.444  15.433  69.483  1.00  0.00    -0.158 A  
HETATM   29  C   UNL     1      -5.566  16.591  71.575  1.00  0.00     0.564 A  
HETATM   30  C   UNL     1      -6.229  16.685  68.872  1.00  0.00    -0.159 A  
HETATM   31  C   UNL     1      -6.199  15.504  70.898  1.00  0.00     0.420 A  
HETATM   32  C   UNL     1      -5.663  17.814  69.555  1.00  0.00    -0.230 A  
HETATM   33  C   UNL     1      -5.285  17.755  70.892  1.00  0.00    -0.258 A  
ENDBRANCH  26  28
ENDBRANCH  25  26
ENDBRANCH   2  25
BRANCH   8  34
HETATM   34  O   UNL     1      -5.975   8.652  69.420  1.00  0.00    -0.039 OA 
BRANCH  34  35
HETATM   35  C   UNL     1      -5.668   7.496  70.098  1.00  0.00    -0.024 C  
HETATM   36  O   UNL     1      -5.166   7.532  71.223  1.00  0.00    -0.027 OA 
BRANCH  35  37
HETATM   37  C   UNL     1      -5.744   6.124  69.335  1.00  0.00    -0.016 C  
HETATM   38  H   UNL     1      -5.502   5.540  67.468  1.00  0.00     0.000 HD 
HETATM   39  O   UNL     1      -5.456   6.370  67.928  1.00  0.00    -0.004 OA 
BRANCH  37  40
HETATM   40  C   UNL     1      -6.880   4.978  69.477  1.00  0.00    -0.053 C  
BRANCH  40  41
HETATM   41  C   UNL     1      -7.139   4.378  68.049  1.00  0.00    -0.060 A  
HETATM   42  C   UNL     1      -6.246   3.450  67.502  1.00  0.00    -0.032 A  
HETATM   43  C   UNL     1      -8.354   4.602  67.359  1.00  0.00    -0.104 A  
HETATM   44  C   UNL     1      -8.674   3.939  66.148  1.00  0.00    -0.115 A  
HETATM   45  C   UNL     1      -6.568   2.798  66.277  1.00  0.00    -0.032 A  
HETATM   46  C   UNL     1      -7.735   3.038  65.617  1.00  0.00    -0.081 A  
ENDBRANCH  40  41
BRANCH  40  47
HETATM   47  N   UNL     1      -8.181   5.123  70.339  1.00  0.00    -0.096 N  
HETATM   48  C   UNL     1      -8.690   4.306  71.387  1.00  0.00    -0.111 C  
HETATM   49  H   UNL     1      -8.755   5.935  70.113  1.00  0.00     0.000 HD 
HETATM   50  O   UNL     1      -8.028   3.422  71.913  1.00  0.00    -0.060 OA 
BRANCH  48  51
HETATM   51  O   UNL     1     -10.023   4.590  71.758  1.00  0.00    -0.180 OA 
HETATM   52  C   UNL     1     -10.736   5.954  71.755  1.00  0.00    -0.245 C  
HETATM   53  C   UNL     1     -10.003   7.096  72.484  1.00  0.00    -0.196 C  
HETATM   54  C   UNL     1     -12.126   5.880  72.482  1.00  0.00    -0.100 C  
HETATM   55  C   UNL     1     -11.047   6.405  70.315  1.00  0.00    -0.416 C  
ENDBRANCH  48  51
ENDBRANCH  40  47
ENDBRANCH  37  40
ENDBRANCH  35  37
ENDBRANCH  34  35
ENDBRANCH   8  34
BRANCH  22  56
HETATM   56  O   UNL     1      -9.399   7.719  65.630  1.00  0.00     0.037 OA 
HETATM   57  C   UNL     1      -8.301   7.790  64.693  1.00  0.00    -0.018 C  
ENDBRANCH  22  56
BRANCH  11  58
HETATM   58  O   UNL     1     -12.563  12.127  64.628  1.00  0.00    -0.445 OA 
HETATM   59  C   UNL     1     -13.409  11.821  63.507  1.00  0.00     0.526 C  
ENDBRANCH  11  58
BRANCH   5  60
HETATM   60  O   UNL     1      -9.163  15.091  66.776  1.00  0.00    -0.225 OA 
BRANCH  60  61
HETATM   61  C   UNL     1      -9.133  16.394  66.481  1.00  0.00    -0.276 C  
HETATM   62  C   UNL     1     -10.172  17.108  67.304  1.00  0.00    -0.316 C  
HETATM   63  O   UNL     1      -8.367  17.014  65.733  1.00  0.00    -0.500 OA 
ENDBRANCH  60  61
ENDBRANCH   5  60
TORSDOF 14
ENDMDL
MODEL       35
REMARK 921   NORMALIZED FREE ENERGY PREDICTED BY IDOCK:    0.10 KCAL/MOL
REMARK 922        TOTAL FREE ENERGY PREDICTED BY IDOCK:   -3.15 KCAL/MOL
REMARK 923 INTER-LIGAND FREE ENERGY PREDICTED BY IDOCK:   -5.13 KCAL/MOL
REMARK 924 INTRA-LIGAND FREE ENERGY PREDICTED BY IDOCK:    1.98 KCAL/MOL
REMARK 927      BINDING AFFINITY PREDICTED BY RF-SCORE:    0.00 PKD
ROOT
HETATM    1  C   UNL     1      -8.938  13.268  66.928  1.00  0.00    -0.212 C  
HETATM    2  C   UNL     1      -8.844  11.386  66.473  1.00  0.00    -0.187 C  
HETATM    3  C   UNL     1      -5.774   9.377  66.247  1.00  0.00    -0.053 C  
HETATM    4  C   UNL     1      -7.595  10.759  67.172  1.00  0.00    -0.105 C  
HETATM    5  C   UNL     1     -10.072  14.029  66.173  1.00  0.00    -0.309 C  
HETATM    6  O   UNL     1      -7.556  11.976  67.839  1.00  0.00    -0.106 OA 
HETATM    7  C   UNL     1      -7.881   9.474  68.106  1.00  0.00    -0.083 C  
HETATM    8  C   UNL     1      -6.803   9.008  69.151  1.00  0.00    -0.054 C  
HETATM    9  C   UNL     1      -6.347  14.015  68.411  1.00  0.00    -0.105 C  
HETATM   10  H   UNL     1      -6.796  11.595  68.265  1.00  0.00     0.000 HD 
HETATM   11  C   UNL     1      -8.133  15.856  67.758  1.00  0.00    -0.143 C  
HETATM   12  C   UNL     1      -9.601  16.202  67.526  1.00  0.00    -0.229 C  
HETATM   13  C   UNL     1      -8.489  14.479  69.702  1.00  0.00     0.398 C  
HETATM   14  C   UNL     1      -6.513  10.364  69.621  1.00  0.00    -0.076 C  
HETATM   15  C   UNL     1     -10.137  15.594  66.255  1.00  0.00    -0.299 C  
HETATM   16  C   UNL     1      -7.856  10.798  70.441  1.00  0.00     1.287 C  
HETATM   17  O   UNL     1      -9.338  15.739  65.060  1.00  0.00     0.040 OA 
HETATM   18  C   UNL     1      -5.751  11.181  68.753  1.00  0.00    -0.043 C  
HETATM   19  C   UNL     1      -6.049  10.777  66.957  1.00  0.00    -0.068 C  
HETATM   20  C   UNL     1      -8.016  14.322  68.187  1.00  0.00    -0.140 C  
HETATM   21  O   UNL     1      -5.462  14.707  67.909  1.00  0.00    -0.168 OA 
HETATM   22  C   UNL     1      -5.951  12.736  69.342  1.00  0.00    -0.104 C  
HETATM   23  C   UNL     1      -9.549  14.347  64.731  1.00  0.00     0.842 C  
HETATM   24  C   UNL     1      -5.660  11.719  65.719  1.00  0.00     1.060 C  
ENDROOT
BRANCH   2  25
HETATM   25  O   UNL     1      -9.937  10.282  66.830  1.00  0.00    -0.191 OA 
BRANCH  25  26
HETATM   26  C   UNL     1     -10.117   9.040  66.104  1.00  0.00    -0.172 C  
HETATM   27  O   UNL     1     -10.932   8.231  66.553  1.00  0.00     0.251 OA 
BRANCH  26  28
HETATM   28  C   UNL     1      -9.121   8.443  64.919  1.00  0.00     0.266 A  
HETATM   29  C   UNL     1      -7.550   6.770  63.812  1.00  0.00    -0.104 A  
HETATM   30  C   UNL     1      -8.619   9.338  63.953  1.00  0.00    -0.208 A  
HETATM   31  C   UNL     1      -8.429   7.183  64.859  1.00  0.00     0.065 A  
HETATM   32  C   UNL     1      -7.676   8.962  62.937  1.00  0.00    -0.116 A  
HETATM   33  C   UNL     1      -7.179   7.668  62.834  1.00  0.00    -0.086 A  
ENDBRANCH  26  28
ENDBRANCH  25  26
ENDBRANCH   2  25
BRANCH   8  34
HETATM   34  O   UNL     1      -7.205   8.201  70.323  1.00  0.00    -0.050 OA 
BRANCH  34  35
HETATM   35  C   UNL     1      -8.109   8.772  71.187  1.00  0.00    -0.157 C  
HETATM   36  O   UNL     1      -7.753   9.212  72.283  1.00  0.00    -0.304 OA 
BRANCH  35  37
HETATM   37  C   UNL     1      -9.644   8.652  70.871  1.00  0.00    -0.203 C  
HETATM   38  H   UNL     1     -10.727   8.402  69.242  1.00  0.00     0.000 HD 
HETATM   39  O   UNL     1      -9.799   8.475  69.433  1.00  0.00    -0.178 OA 
BRANCH  37  40
HETATM   40  C   UNL     1     -10.846   9.571  71.450  1.00  0.00    -0.312 C  
BRANCH  40  41
HETATM   41  C   UNL     1     -12.136   8.680  71.531  1.00  0.00    -0.369 A  
HETATM   42  C   UNL     1     -12.109   7.357  71.074  1.00  0.00    -0.330 A  
HETATM   43  C   UNL     1     -13.291   9.108  72.228  1.00  0.00    -0.540 A  
HETATM   44  C   UNL     1     -14.402   8.258  72.453  1.00  0.00    -0.345 A  
HETATM   45  C   UNL     1     -13.236   6.513  71.292  1.00  0.00     0.246 A  
HETATM   46  C   UNL     1     -14.347   6.946  71.950  1.00  0.00    -0.365 A  
ENDBRANCH  40  41
BRANCH  40  47
HETATM   47  N   UNL     1     -11.131  11.043  70.996  1.00  0.00     0.262 N  
HETATM   48  C   UNL     1     -11.807  11.541  69.847  1.00  0.00    -0.355 C  
HETATM   49  H   UNL     1     -10.774  11.761  71.626  1.00  0.00     0.000 HD 
HETATM   50  O   UNL     1     -12.465  10.822  69.108  1.00  0.00    -0.377 OA 
BRANCH  48  51
HETATM   51  O   UNL     1     -11.644  12.926  69.624  1.00  0.00    -0.283 OA 
HETATM   52  C   UNL     1     -12.195  14.092  70.466  1.00  0.00    -0.365 C  
HETATM   53  C   UNL     1     -13.703  14.042  70.775  1.00  0.00     0.248 C  
HETATM   54  C   UNL     1     -12.009  15.469  69.736  1.00  0.00    -0.384 C  
HETATM   55  C   UNL     1     -11.422  14.219  71.793  1.00  0.00     0.701 C  
ENDBRANCH  48  51
ENDBRANCH  40  47
ENDBRANCH  37  40
ENDBRANCH  35  37
ENDBRANCH  34  35
ENDBRANCH   8  34
BRANCH  22  56
HETATM   56  O   UNL     1      -5.162  12.969  70.531  1.00  0.00    -0.102 OA 
HETATM   57  C   UNL     1      -5.652  14.036  71.374  1.00  0.00    -0.232 C  
ENDBRANCH  22  56
BRANCH  11  58
HETATM   58  O   UNL     1      -7.315  16.266  66.666  1.00  0.00    -0.226 OA 
HETATM   59  C   UNL     1      -7.246  17.696  66.542  1.00  0.00    -0.252 C  
ENDBRANCH  11  58
BRANCH   5  60
HETATM   60  O   UNL     1     -11.281  13.254  66.266  1.00  0.00    -0.291 OA 
BRANCH  60  61
HETATM   61  C   UNL     1     -12.130  13.196  65.236  1.00  0.00    -0.429 C  
HETATM   62  C   UNL     1     -11.971  11.868  64.543  1.00  0.00    -0.281 C  
HETATM   63  O   UNL     1     -12.993  14.008  64.880  1.00  0.00    -0.707 OA 
ENDBRANCH  60  61
ENDBRANCH   5  60
TORSDOF 14
ENDMDL
MODEL       36
REMARK 921   NORMALIZED FREE ENERGY PREDICTED BY IDOCK:    0.66 KCAL/MOL
REMARK 922        TOTAL FREE ENERGY PREDICTED BY IDOCK:   -2.12 KCAL/MOL
REMARK 923 INTER-LIGAND FREE ENERGY PREDICTED BY IDOCK:   -4.82 KCAL/MOL
REMARK 924 INTRA-LIGAND FREE ENERGY PREDICTED BY IDOCK:    2.70 KCAL/MOL
REMARK 927      BINDING AFFINITY PREDICTED BY RF-SCORE:    0.00 PKD
ROOT
HETATM    1  C   UNL     1     -10.650  13.240  68.556  1.00  0.00    -0.270 C  
HETATM    2  C   UNL     1     -11.370  11.768  67.521  1.00  0.00    -0.310 C  
HETATM    3  C   UNL     1     -10.558  11.002  64.018  1.00  0.00    -0.395 C  
HETATM    4  C   UNL     1     -10.315  11.342  66.449  1.00  0.00    -0.242 C  
HETATM    5  C   UNL     1     -11.675  13.839  69.569  1.00  0.00    -0.323 C  
HETATM    6  O   UNL     1      -9.480  12.191  67.163  1.00  0.00    -0.183 OA 
HETATM    7  C   UNL     1      -9.884   9.786  66.463  1.00  0.00    -0.286 C  
HETATM    8  C   UNL     1      -8.576   9.327  65.721  1.00  0.00    -0.152 C  
HETATM    9  C   UNL     1      -8.036  14.154  67.215  1.00  0.00    -0.150 C  
HETATM   10  H   UNL     1      -8.839  11.932  66.511  1.00  0.00     0.000 HD 
HETATM   11  C   UNL     1      -9.058  15.474  69.270  1.00  0.00    -0.266 C  
HETATM   12  C   UNL     1      -9.862  15.419  70.566  1.00  0.00     0.497 C  
HETATM   13  C   UNL     1      -7.801  13.456  69.650  1.00  0.00     1.011 C  
HETATM   14  C   UNL     1      -7.772  10.446  66.217  1.00  0.00    -0.129 C  
HETATM   15  C   UNL     1     -11.328  15.173  70.318  1.00  0.00    -0.283 C  
HETATM   16  C   UNL     1      -7.587  10.130  67.808  1.00  0.00    -0.090 C  
HETATM   17  O   UNL     1     -11.974  15.970  69.300  1.00  0.00    -0.324 OA 
HETATM   18  C   UNL     1      -8.019  11.708  65.628  1.00  0.00     0.600 C  
HETATM   19  C   UNL     1      -9.793  11.903  65.088  1.00  0.00    -0.243 C  
HETATM   20  C   UNL     1      -8.931  14.001  68.666  1.00  0.00    -0.104 C  
HETATM   21  O   UNL     1      -7.933  15.213  66.597  1.00  0.00    -0.119 OA 
HETATM   22  C   UNL     1      -7.296  12.812  66.660  1.00  0.00     0.704 C  
HETATM   23  C   UNL     1     -12.627  14.794  68.770  1.00  0.00     0.342 C  
HETATM   24  C   UNL     1     -10.508  13.295  64.738  1.00  0.00    -0.402 C  
ENDROOT
BRANCH   2  25
HETATM   25  O   UNL     1     -11.773  10.334  68.088  1.00  0.00    -0.287 OA 
BRANCH  25  26
HETATM   26  C   UNL     1     -11.753   9.971  69.492  1.00  0.00     0.006 C  
HETATM   27  O   UNL     1     -12.794  10.119  70.133  1.00  0.00    -0.119 OA 
BRANCH  26  28
HETATM   28  C   UNL     1     -10.401   9.682  70.410  1.00  0.00    -0.350 A  
HETATM   29  C   UNL     1      -7.909   9.483  70.900  1.00  0.00    -0.016 A  
HETATM   30  C   UNL     1     -10.550   8.963  71.613  1.00  0.00    -0.422 A  
HETATM   31  C   UNL     1      -9.014   9.799  70.051  1.00  0.00    -0.255 A  
HETATM   32  C   UNL     1      -9.447   8.570  72.444  1.00  0.00    -0.350 A  
HETATM   33  C   UNL     1      -8.131   8.871  72.116  1.00  0.00     0.113 A  
ENDBRANCH  26  28
ENDBRANCH  25  26
ENDBRANCH   2  25
BRANCH   8  34
HETATM   34  O   UNL     1      -7.899   8.074  66.117  1.00  0.00    -0.088 OA 
BRANCH  34  35
HETATM   35  C   UNL     1      -8.372   7.445  67.245  1.00  0.00    -0.119 C  
HETATM   36  O   UNL     1      -9.459   7.754  67.739  1.00  0.00    -0.141 OA 
BRANCH  35  37
HETATM   37  C   UNL     1      -7.413   6.487  68.040  1.00  0.00    -0.095 C  
HETATM   38  H   UNL     1      -6.186   5.018  67.566  1.00  0.00     0.000 HD 
HETATM   39  O   UNL     1      -6.766   5.597  67.085  1.00  0.00    -0.058 OA 
BRANCH  37  40
HETATM   40  C   UNL     1      -7.731   5.690  69.414  1.00  0.00    -0.088 C  
BRANCH  40  41
HETATM   41  C   UNL     1      -7.381   4.177  69.185  1.00  0.00    -0.054 A  
HETATM   42  C   UNL     1      -7.631   3.576  67.946  1.00  0.00    -0.065 A  
HETATM   43  C   UNL     1      -6.642   3.434  70.136  1.00  0.00    -0.033 A  
HETATM   44  C   UNL     1      -6.175   2.120  69.878  1.00  0.00    -0.024 A  
HETATM   45  C   UNL     1      -7.171   2.250  67.700  1.00  0.00    -0.051 A  
HETATM   46  C   UNL     1      -6.475   1.542  68.632  1.00  0.00    -0.025 A  
ENDBRANCH  40  41
BRANCH  40  47
HETATM   47  N   UNL     1      -9.013   5.910  70.288  1.00  0.00    -0.145 N  
HETATM   48  C   UNL     1     -10.053   5.006  70.645  1.00  0.00    -0.243 C  
HETATM   49  H   UNL     1      -9.120   6.852  70.662  1.00  0.00     0.000 HD 
HETATM   50  O   UNL     1      -9.972   3.800  70.454  1.00  0.00    -0.137 OA 
BRANCH  48  51
HETATM   51  O   UNL     1     -11.188   5.616  71.224  1.00  0.00    -0.202 OA 
HETATM   52  C   UNL     1     -11.716   5.460  72.661  1.00  0.00    -0.144 C  
HETATM   53  C   UNL     1     -11.906   4.013  73.154  1.00  0.00     0.150 C  
HETATM   54  C   UNL     1     -13.141   6.099  72.825  1.00  0.00     0.862 C  
HETATM   55  C   UNL     1     -10.812   6.208  73.659  1.00  0.00    -0.150 C  
ENDBRANCH  48  51
ENDBRANCH  40  47
ENDBRANCH  37  40
ENDBRANCH  35  37
ENDBRANCH  34  35
ENDBRANCH   8  34
BRANCH  22  56
HETATM   56  O   UNL     1      -5.858  12.832  66.508  1.00  0.00     0.334 OA 
HETATM   57  C   UNL     1      -5.125  12.864  67.753  1.00  0.00    -0.103 C  
ENDBRANCH  22  56
BRANCH  11  58
HETATM   58  O   UNL     1      -9.553  16.474  68.383  1.00  0.00    -0.220 OA 
HETATM   59  C   UNL     1      -8.879  17.732  68.547  1.00  0.00    -0.283 C  
ENDBRANCH  11  58
BRANCH   5  60
HETATM   60  O   UNL     1     -12.296  12.755  70.284  1.00  0.00    -0.287 OA 
BRANCH  60  61
HETATM   61  C   UNL     1     -13.053  12.997  71.358  1.00  0.00    -0.248 C  
HETATM   62  C   UNL     1     -12.918  11.848  72.322  1.00  0.00    -0.009 C  
HETATM   63  O   UNL     1     -13.723  13.998  71.640  1.00  0.00    -0.357 OA 
ENDBRANCH  60  61
ENDBRANCH   5  60
TORSDOF 14
ENDMDL
MODEL       37
REMARK 921   NORMALIZED FREE ENERGY PREDICTED BY IDOCK:    0.74 KCAL/MOL
REMARK 922        TOTAL FREE ENERGY PREDICTED BY IDOCK:   -1.98 KCAL/MOL
REMARK 923 INTER-LIGAND FREE ENERGY PREDICTED BY IDOCK:   -0.65 KCAL/MOL
REMARK 924 INTRA-LIGAND FREE ENERGY PREDICTED BY IDOCK:   -1.33 KCAL/MOL
REMARK 927      BINDING AFFINITY PREDICTED BY RF-SCORE:    0.00 PKD
ROOT
HETATM    1  C   UNL     1      -9.899  14.052  67.534  1.00  0.00    -0.236 C  
HETATM    2  C   UNL     1      -9.184  13.254  69.150  1.00  0.00     0.627 C  
HETATM    3  C   UNL     1      -9.893   9.858  70.366  1.00  0.00    -0.185 C  
HETATM    4  C   UNL     1      -9.087  11.707  68.947  1.00  0.00     0.072 C  
HETATM    5  C   UNL     1     -10.169  15.583  67.671  1.00  0.00    -0.255 C  
HETATM    6  O   UNL     1      -9.371  12.022  67.626  1.00  0.00    -0.176 OA 
HETATM    7  C   UNL     1      -7.632  11.055  69.199  1.00  0.00    -0.113 C  
HETATM    8  C   UNL     1      -7.314   9.614  68.658  1.00  0.00    -0.074 C  
HETATM    9  C   UNL     1     -10.815  11.777  65.677  1.00  0.00    -0.292 C  
HETATM   10  H   UNL     1      -9.311  11.081  67.502  1.00  0.00     0.000 HD 
HETATM   11  C   UNL     1     -11.266  14.312  65.064  1.00  0.00    -0.364 C  
HETATM   12  C   UNL     1     -10.797  15.762  65.151  1.00  0.00    -0.444 C  
HETATM   13  C   UNL     1      -9.093  13.353  64.666  1.00  0.00     2.027 C  
HETATM   14  C   UNL     1      -7.937   9.848  67.353  1.00  0.00    -0.106 C  
HETATM   15  C   UNL     1     -10.954  16.332  66.538  1.00  0.00    -0.007 C  
HETATM   16  C   UNL     1      -6.930  10.898  66.613  1.00  0.00    -0.135 C  
HETATM   17  O   UNL     1     -12.218  16.118  67.205  1.00  0.00     1.067 OA 
HETATM   18  C   UNL     1      -9.351   9.870  67.326  1.00  0.00    -0.167 C  
HETATM   19  C   UNL     1     -10.080  10.503  68.920  1.00  0.00    -0.215 C  
HETATM   20  C   UNL     1     -10.208  13.372  65.806  1.00  0.00    -0.300 C  
HETATM   21  O   UNL     1     -12.000  11.523  65.461  1.00  0.00    -0.125 OA 
HETATM   22  C   UNL     1      -9.741  10.563  65.852  1.00  0.00    -0.217 C  
HETATM   23  C   UNL     1     -11.532  15.757  68.425  1.00  0.00    -0.365 C  
HETATM   24  C   UNL     1     -11.589  11.011  69.112  1.00  0.00    -0.389 C  
ENDROOT
BRANCH   2  25
HETATM   25  O   UNL     1      -7.747  13.537  69.776  1.00  0.00     0.644 OA 
BRANCH  25  26
HETATM   26  C   UNL     1      -6.565  13.869  69.005  1.00  0.00    -0.107 C  
HETATM   27  O   UNL     1      -5.791  12.953  68.724  1.00  0.00    -0.065 OA 
BRANCH  26  28
HETATM   28  C   UNL     1      -5.971  15.394  68.730  1.00  0.00    -0.095 A  
HETATM   29  C   UNL     1      -5.195  17.743  69.341  1.00  0.00    -0.182 A  
HETATM   30  C   UNL     1      -6.010  15.903  67.417  1.00  0.00    -0.125 A  
HETATM   31  C   UNL     1      -5.664  16.436  69.674  1.00  0.00    -0.171 A  
HETATM   32  C   UNL     1      -5.614  17.238  67.070  1.00  0.00    -0.196 A  
HETATM   33  C   UNL     1      -5.160  18.144  68.022  1.00  0.00    -0.156 A  
ENDBRANCH  26  28
ENDBRANCH  25  26
ENDBRANCH   2  25
BRANCH   8  34
HETATM   34  O   UNL     1      -5.914   9.201  68.422  1.00  0.00    -0.044 OA 
BRANCH  34  35
HETATM   35  C   UNL     1      -5.498   8.044  69.038  1.00  0.00    -0.030 C  
HETATM   36  O   UNL     1      -5.175   8.037  70.228  1.00  0.00    -0.023 OA 
BRANCH  35  37
HETATM   37  C   UNL     1      -5.213   6.773  68.159  1.00  0.00    -0.011 C  
HETATM   38  H   UNL     1      -5.224   6.371  66.228  1.00  0.00     0.000 HD 
HETATM   39  O   UNL     1      -5.396   7.139  66.760  1.00  0.00    -0.021 OA 
BRANCH  37  40
HETATM   40  C   UNL     1      -5.737   5.261  68.410  1.00  0.00    -0.016 C  
BRANCH  40  41
HETATM   41  C   UNL     1      -6.230   4.688  67.033  1.00  0.00    -0.036 A  
HETATM   42  C   UNL     1      -7.599   4.614  66.751  1.00  0.00    -0.087 A  
HETATM   43  C   UNL     1      -5.328   4.410  65.979  1.00  0.00    -0.009 A  
HETATM   44  C   UNL     1      -5.765   4.050  64.680  1.00  0.00    -0.014 A  
HETATM   45  C   UNL     1      -8.030   4.237  65.446  1.00  0.00    -0.097 A  
HETATM   46  C   UNL     1      -7.148   3.957  64.447  1.00  0.00    -0.054 A  
ENDBRANCH  40  41
BRANCH  40  47
HETATM   47  N   UNL     1      -6.626   4.823  69.623  1.00  0.00    -0.035 N  
HETATM   48  C   UNL     1      -7.820   5.394  70.147  1.00  0.00    -0.081 C  
HETATM   49  H   UNL     1      -6.296   3.994  70.118  1.00  0.00     0.000 HD 
HETATM   50  O   UNL     1      -8.453   6.255  69.553  1.00  0.00    -0.125 OA 
BRANCH  48  51
HETATM   51  O   UNL     1      -8.204   4.894  71.412  1.00  0.00    -0.106 OA 
HETATM   52  C   UNL     1      -8.962   3.591  71.724  1.00  0.00    -0.105 C  
HETATM   53  C   UNL     1     -10.268   3.369  70.938  1.00  0.00     0.423 C  
HETATM   54  C   UNL     1      -9.418   3.535  73.226  1.00  0.00    -0.130 C  
HETATM   55  C   UNL     1      -8.050   2.366  71.523  1.00  0.00    -0.054 C  
ENDBRANCH  48  51
ENDBRANCH  40  47
ENDBRANCH  37  40
ENDBRANCH  35  37
ENDBRANCH  34  35
ENDBRANCH   8  34
BRANCH  22  56
HETATM   56  O   UNL     1      -9.564   9.637  64.755  1.00  0.00    -0.265 OA 
HETATM   57  C   UNL     1      -8.960  10.215  63.577  1.00  0.00    -0.245 C  
ENDBRANCH  22  56
BRANCH  11  58
HETATM   58  O   UNL     1     -12.624  14.172  65.473  1.00  0.00    -0.485 OA 
HETATM   59  C   UNL     1     -13.535  14.215  64.362  1.00  0.00     1.964 C  
ENDBRANCH  11  58
BRANCH   5  60
HETATM   60  O   UNL     1      -9.015  16.198  68.272  1.00  0.00    -0.182 OA 
BRANCH  60  61
HETATM   61  C   UNL     1      -9.067  17.462  68.702  1.00  0.00    -0.261 C  
HETATM   62  C   UNL     1      -8.706  18.383  67.566  1.00  0.00    -0.264 C  
HETATM   63  O   UNL     1      -9.417  17.906  69.803  1.00  0.00     0.571 OA 
ENDBRANCH  60  61
ENDBRANCH   5  60
TORSDOF 14
ENDMDL
MODEL       38
REMARK 921   NORMALIZED FREE ENERGY PREDICTED BY IDOCK:    1.20 KCAL/MOL
REMARK 922        TOTAL FREE ENERGY PREDICTED BY IDOCK:   -1.14 KCAL/MOL
REMARK 923 INTER-LIGAND FREE ENERGY PREDICTED BY IDOCK:   -5.42 KCAL/MOL
REMARK 924 INTRA-LIGAND FREE ENERGY PREDICTED BY IDOCK:    4.28 KCAL/MOL
REMARK 927      BINDING AFFINITY PREDICTED BY RF-SCORE:    0.00 PKD
ROOT
HETATM    1  C   UNL     1      -9.232   5.403  70.402  1.00  0.00    -0.190 C  
HETATM    2  C   UNL     1     -10.484   6.553  69.469  1.00  0.00    -0.222 C  
HETATM    3  C   UNL     1     -11.669   9.832  70.632  1.00  0.00    -0.377 C  
HETATM    4  C   UNL     1     -10.173   8.040  69.837  1.00  0.00    -0.204 C  
HETATM    5  C   UNL     1      -9.535   3.883  70.216  1.00  0.00    -0.185 C  
HETATM    6  O   UNL     1      -9.034   7.494  70.411  1.00  0.00    -0.150 OA 
HETATM    7  C   UNL     1      -9.906   9.032  68.593  1.00  0.00    -0.177 C  
HETATM    8  C   UNL     1      -9.210  10.421  68.833  1.00  0.00    -0.177 C  
HETATM    9  C   UNL     1      -7.644   7.140  72.383  1.00  0.00    -0.088 C  
HETATM   10  H   UNL     1      -8.845   8.398  70.636  1.00  0.00     0.000 HD 
HETATM   11  C   UNL     1      -7.354   4.509  72.327  1.00  0.00    -0.076 C  
HETATM   12  C   UNL     1      -7.366   3.229  71.497  1.00  0.00    -0.040 C  
HETATM   13  C   UNL     1      -6.223   5.873  70.696  1.00  0.00    -0.031 C  
HETATM   14  C   UNL     1      -8.191   9.879  69.734  1.00  0.00    -0.191 C  
HETATM   15  C   UNL     1      -8.760   2.831  71.082  1.00  0.00    -0.067 C  
HETATM   16  C   UNL     1      -7.227   8.994  68.759  1.00  0.00    -0.075 C  
HETATM   17  O   UNL     1      -9.786   2.841  72.100  1.00  0.00    -0.130 OA 
HETATM   18  C   UNL     1      -8.622   9.534  71.037  1.00  0.00     0.128 C  
HETATM   19  C   UNL     1     -10.400   8.972  71.069  1.00  0.00    -0.348 C  
HETATM   20  C   UNL     1      -7.660   5.756  71.376  1.00  0.00    -0.105 C  
HETATM   21  O   UNL     1      -7.807   7.088  73.602  1.00  0.00    -0.095 OA 
HETATM   22  C   UNL     1      -7.394   8.578  71.656  1.00  0.00    -0.100 C  
HETATM   23  C   UNL     1     -10.697   3.510  71.199  1.00  0.00     1.409 C  
HETATM   24  C   UNL     1     -11.096   8.168  72.268  1.00  0.00    -0.410 C  
ENDROOT
BRANCH   2  25
HETATM   25  O   UNL     1     -10.629   6.690  67.888  1.00  0.00    -0.194 OA 
BRANCH  25  26
HETATM   26  C   UNL     1      -9.619   7.258  67.017  1.00  0.00    -0.166 C  
HETATM   27  O   UNL     1      -9.845   8.366  66.528  1.00  0.00    -0.242 OA 
BRANCH  26  28
HETATM   28  C   UNL     1      -8.335   6.447  66.345  1.00  0.00    -0.119 A  
HETATM   29  C   UNL     1      -5.913   5.695  66.112  1.00  0.00    -0.022 A  
HETATM   30  C   UNL     1      -8.462   5.968  65.026  1.00  0.00    -0.089 A  
HETATM   31  C   UNL     1      -6.967   6.386  66.784  1.00  0.00    -0.067 A  
HETATM   32  C   UNL     1      -7.393   5.337  64.305  1.00  0.00    -0.056 A  
HETATM   33  C   UNL     1      -6.133   5.154  64.862  1.00  0.00    -0.026 A  
ENDBRANCH  26  28
ENDBRANCH  25  26
ENDBRANCH   2  25
BRANCH   8  34
HETATM   34  O   UNL     1      -8.513  11.105  67.722  1.00  0.00    -0.120 OA 
BRANCH  34  35
HETATM   35  C   UNL     1      -8.067  12.383  67.965  1.00  0.00    -0.162 C  
HETATM   36  O   UNL     1      -6.894  12.599  68.278  1.00  0.00    -0.070 OA 
BRANCH  35  37
HETATM   37  C   UNL     1      -9.116  13.548  68.069  1.00  0.00    -0.201 C  
HETATM   38  H   UNL     1      -9.295  15.183  69.156  1.00  0.00     0.000 HD 
HETATM   39  O   UNL     1      -8.661  14.478  69.094  1.00  0.00    -0.092 OA 
BRANCH  37  40
HETATM   40  C   UNL     1     -10.730  13.422  68.111  1.00  0.00    -0.253 C  
BRANCH  40  41
HETATM   41  C   UNL     1     -11.294  14.004  66.766  1.00  0.00    -0.346 A  
HETATM   42  C   UNL     1     -10.674  15.103  66.159  1.00  0.00    -0.327 A  
HETATM   43  C   UNL     1     -12.307  13.339  66.036  1.00  0.00    -0.449 A  
HETATM   44  C   UNL     1     -12.712  13.757  64.743  1.00  0.00    -0.259 A  
HETATM   45  C   UNL     1     -11.097  15.526  64.866  1.00  0.00    -0.428 A  
HETATM   46  C   UNL     1     -12.085  14.883  64.184  1.00  0.00    -0.289 A  
ENDBRANCH  40  41
BRANCH  40  47
HETATM   47  N   UNL     1     -11.612  13.767  69.359  1.00  0.00    -0.292 N  
HETATM   48  C   UNL     1     -12.510  14.849  69.585  1.00  0.00    -0.139 C  
HETATM   49  H   UNL     1     -11.530  13.111  70.136  1.00  0.00     0.000 HD 
HETATM   50  O   UNL     1     -12.875  15.599  68.690  1.00  0.00     0.741 OA 
BRANCH  48  51
HETATM   51  O   UNL     1     -12.932  14.992  70.925  1.00  0.00    -0.361 OA 
HETATM   52  C   UNL     1     -12.080  15.370  72.151  1.00  0.00    -0.407 C  
HETATM   53  C   UNL     1     -10.797  14.545  72.357  1.00  0.00     2.126 C  
HETATM   54  C   UNL     1     -12.874  15.168  73.490  1.00  0.00    -0.657 C  
HETATM   55  C   UNL     1     -11.706  16.865  72.115  1.00  0.00     0.314 C  
ENDBRANCH  48  51
ENDBRANCH  40  47
ENDBRANCH  37  40
ENDBRANCH  35  37
ENDBRANCH  34  35
ENDBRANCH   8  34
BRANCH  22  56
HETATM   56  O   UNL     1      -6.249   9.363  72.058  1.00  0.00    -0.268 OA 
HETATM   57  C   UNL     1      -5.152   8.590  72.594  1.00  0.00    -0.041 C  
ENDBRANCH  22  56
BRANCH  11  58
HETATM   58  O   UNL     1      -8.169   4.393  73.490  1.00  0.00    -0.093 OA 
HETATM   59  C   UNL     1      -8.161   3.062  74.031  1.00  0.00    -0.069 C  
ENDBRANCH  11  58
BRANCH   5  60
HETATM   60  O   UNL     1      -9.766   3.632  68.817  1.00  0.00    -0.133 OA 
BRANCH  60  61
HETATM   61  C   UNL     1      -8.757   3.274  68.018  1.00  0.00    -0.106 C  
HETATM   62  C   UNL     1      -7.636   2.723  68.859  1.00  0.00    -0.047 C  
HETATM   63  O   UNL     1      -8.691   3.280  66.783  1.00  0.00    -0.111 OA 
ENDBRANCH  60  61
ENDBRANCH   5  60
TORSDOF 14
ENDMDL
MODEL       39
REMARK 921   NORMALIZED FREE ENERGY PREDICTED BY IDOCK:    1.35 KCAL/MOL
REMARK 922        TOTAL FREE ENERGY PREDICTED BY IDOCK:   -0.87 KCAL/MOL
REMARK 923 INTER-LIGAND FREE ENERGY PREDICTED BY IDOCK:   -3.41 KCAL/MOL
REMARK 924 INTRA-LIGAND FREE ENERGY PREDICTED BY IDOCK:    2.55 KCAL/MOL
REMARK 927      BINDING AFFINITY PREDICTED BY RF-SCORE:    0.00 PKD
ROOT
HETATM    1  C   UNL     1      -9.159   9.391  65.589  1.00  0.00    -0.258 C  
HETATM    2  C   UNL     1     -10.495   8.314  66.492  1.00  0.00     0.012 C  
HETATM    3  C   UNL     1     -10.560   4.641  66.633  1.00  0.00     0.013 C  
HETATM    4  C   UNL     1      -9.833   6.976  66.956  1.00  0.00    -0.183 C  
HETATM    5  C   UNL     1      -9.742  10.695  64.961  1.00  0.00    -0.279 C  
HETATM    6  O   UNL     1      -8.657   7.615  66.590  1.00  0.00    -0.123 OA 
HETATM    7  C   UNL     1      -9.967   6.632  68.528  1.00  0.00    -0.152 C  
HETATM    8  C   UNL     1      -9.030   5.549  69.176  1.00  0.00    -0.108 C  
HETATM    9  C   UNL     1      -6.637   7.667  65.225  1.00  0.00    -0.044 C  
HETATM   10  H   UNL     1      -8.254   6.801  66.872  1.00  0.00     0.000 HD 
HETATM   11  C   UNL     1      -6.806  10.090  64.172  1.00  0.00    -0.126 C  
HETATM   12  C   UNL     1      -7.364  11.506  64.281  1.00  0.00     2.130 C  
HETATM   13  C   UNL     1      -6.274   9.834  66.507  1.00  0.00    -0.068 C  
HETATM   14  C   UNL     1      -7.823   6.030  68.501  1.00  0.00    -0.100 C  
HETATM   15  C   UNL     1      -8.845  11.559  64.006  1.00  0.00     0.415 C  
HETATM   16  C   UNL     1      -7.509   7.462  69.218  1.00  0.00    -0.092 C  
HETATM   17  O   UNL     1      -9.331  10.860  62.838  1.00  0.00    -0.280 OA 
HETATM   18  C   UNL     1      -7.712   5.731  67.123  1.00  0.00    -0.101 C  
HETATM   19  C   UNL     1      -9.373   5.646  66.280  1.00  0.00    -0.169 C  
HETATM   20  C   UNL     1      -7.289   9.236  65.433  1.00  0.00    -0.090 C  
HETATM   21  O   UNL     1      -6.277   7.227  64.134  1.00  0.00    -0.043 OA 
HETATM   22  C   UNL     1      -6.500   6.743  66.561  1.00  0.00    -0.043 C  
HETATM   23  C   UNL     1     -10.422  10.303  63.605  1.00  0.00     0.792 C  
HETATM   24  C   UNL     1      -9.613   5.704  64.696  1.00  0.00     0.850 C  
ENDROOT
BRANCH   2  25
HETATM   25  O   UNL     1     -11.270   8.710  67.827  1.00  0.00     0.203 OA 
BRANCH  25  26
HETATM   26  C   UNL     1     -10.708   9.513  68.896  1.00  0.00    -0.195 C  
HETATM   27  O   UNL     1      -9.510   9.371  69.146  1.00  0.00    -0.155 OA 
BRANCH  26  28
HETATM   28  C   UNL     1     -11.563  10.367  70.033  1.00  0.00    -0.378 A  
HETATM   29  C   UNL     1     -13.282  10.726  71.880  1.00  0.00    -0.524 A  
HETATM   30  C   UNL     1     -11.570  11.774  69.949  1.00  0.00    -0.351 A  
HETATM   31  C   UNL     1     -12.560   9.904  70.961  1.00  0.00    -0.431 A  
HETATM   32  C   UNL     1     -12.346  12.617  70.815  1.00  0.00    -0.372 A  
HETATM   33  C   UNL     1     -13.163  12.098  71.812  1.00  0.00    -0.423 A  
ENDBRANCH  26  28
ENDBRANCH  25  26
ENDBRANCH   2  25
BRANCH   8  34
HETATM   34  O   UNL     1      -8.771   5.566  70.632  1.00  0.00    -0.125 OA 
BRANCH  34  35
HETATM   35  C   UNL     1      -7.462   5.427  71.029  1.00  0.00    -0.088 C  
HETATM   36  O   UNL     1      -6.994   4.319  71.302  1.00  0.00    -0.034 OA 
BRANCH  35  37
HETATM   37  C   UNL     1      -6.625   6.716  71.358  1.00  0.00    -0.053 C  
HETATM   38  H   UNL     1      -4.744   7.090  71.812  1.00  0.00     0.000 HD 
HETATM   39  O   UNL     1      -5.249   6.311  71.613  1.00  0.00    -0.021 OA 
BRANCH  37  40
HETATM   40  C   UNL     1      -7.037   7.935  72.342  1.00  0.00    -0.087 C  
BRANCH  40  41
HETATM   41  C   UNL     1      -8.452   7.613  72.943  1.00  0.00    -0.185 A  
HETATM   42  C   UNL     1      -9.594   8.236  72.427  1.00  0.00    -0.364 A  
HETATM   43  C   UNL     1      -8.642   6.565  73.874  1.00  0.00    -0.136 A  
HETATM   44  C   UNL     1      -9.928   6.151  74.301  1.00  0.00    -0.294 A  
HETATM   45  C   UNL     1     -10.883   7.825  72.873  1.00  0.00    -0.453 A  
HETATM   46  C   UNL     1     -11.047   6.825  73.783  1.00  0.00     0.285 A  
ENDBRANCH  40  41
BRANCH  40  47
HETATM   47  N   UNL     1      -6.831   9.451  72.006  1.00  0.00     0.326 N  
HETATM   48  C   UNL     1      -6.059  10.074  70.985  1.00  0.00    -0.031 C  
HETATM   49  H   UNL     1      -7.333  10.097  72.616  1.00  0.00     0.000 HD 
HETATM   50  O   UNL     1      -5.570   9.448  70.055  1.00  0.00    -0.034 OA 
BRANCH  48  51
HETATM   51  O   UNL     1      -5.893  11.469  71.143  1.00  0.00    -0.380 OA 
HETATM   52  C   UNL     1      -5.992  12.562  70.064  1.00  0.00    -0.145 C  
HETATM   53  C   UNL     1      -5.151  12.331  68.795  1.00  0.00    -0.054 C  
HETATM   54  C   UNL     1      -5.487  13.949  70.599  1.00  0.00    -0.145 C  
HETATM   55  C   UNL     1      -7.459  12.789  69.651  1.00  0.00     0.794 C  
ENDBRANCH  48  51
ENDBRANCH  40  47
ENDBRANCH  37  40
ENDBRANCH  35  37
ENDBRANCH  34  35
ENDBRANCH   8  34
BRANCH  22  56
HETATM   56  O   UNL     1      -5.186   6.275  66.943  1.00  0.00    -0.005 OA 
HETATM   57  C   UNL     1      -5.167   4.949  67.517  1.00  0.00    -0.008 C  
ENDBRANCH  22  56
BRANCH  11  58
HETATM   58  O   UNL     1      -7.062   9.518  62.893  1.00  0.00    -0.102 OA 
HETATM   59  C   UNL     1      -5.911   8.846  62.355  1.00  0.00    -0.091 C  
ENDBRANCH  11  58
BRANCH   5  60
HETATM   60  O   UNL     1     -10.576  11.340  65.940  1.00  0.00    -0.258 OA 
BRANCH  60  61
HETATM   61  C   UNL     1     -11.276  12.433  65.621  1.00  0.00    -0.322 C  
HETATM   62  C   UNL     1     -10.585  13.642  66.195  1.00  0.00    -0.291 C  
HETATM   63  O   UNL     1     -12.285  12.544  64.915  1.00  0.00    -0.441 OA 
ENDBRANCH  60  61
ENDBRANCH   5  60
TORSDOF 14
ENDMDL
MODEL       40
REMARK 921   NORMALIZED FREE ENERGY PREDICTED BY IDOCK:    2.21 KCAL/MOL
REMARK 922        TOTAL FREE ENERGY PREDICTED BY IDOCK:    0.70 KCAL/MOL
REMARK 923 INTER-LIGAND FREE ENERGY PREDICTED BY IDOCK:   -2.52 KCAL/MOL
REMARK 924 INTRA-LIGAND FREE ENERGY PREDICTED BY IDOCK:    3.22 KCAL/MOL
REMARK 927      BINDING AFFINITY PREDICTED BY RF-SCORE:    0.00 PKD
ROOT
HETATM    1  C   UNL     1      -8.976  12.554  67.033  1.00  0.00    -0.211 C  
HETATM    2  C   UNL     1      -8.530  10.741  66.512  1.00  0.00    -0.147 C  
HETATM    3  C   UNL     1      -5.135   9.376  66.161  1.00  0.00    -0.035 C  
HETATM    4  C   UNL     1      -7.166  10.349  67.167  1.00  0.00    -0.091 C  
HETATM    5  C   UNL     1     -10.254  13.102  66.326  1.00  0.00    -0.293 C  
HETATM    6  O   UNL     1      -7.347  11.529  67.874  1.00  0.00    -0.086 OA 
HETATM    7  C   UNL     1      -7.174   9.005  68.061  1.00  0.00    -0.080 C  
HETATM    8  C   UNL     1      -6.001   8.727  69.070  1.00  0.00    -0.043 C  
HETATM    9  C   UNL     1      -6.543  13.746  68.493  1.00  0.00    -0.099 C  
HETATM   10  H   UNL     1      -6.517  11.291  68.272  1.00  0.00     0.000 HD 
HETATM   11  C   UNL     1      -8.668  15.224  67.937  1.00  0.00    -0.164 C  
HETATM   12  C   UNL     1     -10.181  15.284  67.744  1.00  0.00    -0.237 C  
HETATM   13  C   UNL     1      -8.702  13.746  69.839  1.00  0.00     1.929 C  
HETATM   14  C   UNL     1      -5.968  10.099  69.580  1.00  0.00    -0.042 C  
HETATM   15  C   UNL     1     -10.620  14.621  66.463  1.00  0.00    -0.300 C  
HETATM   16  C   UNL     1      -7.349  10.238  70.439  1.00  0.00     0.089 C  
HETATM   17  O   UNL     1      -9.894  14.955  65.258  1.00  0.00    -0.327 OA 
HETATM   18  C   UNL     1      -5.401  11.074  68.727  1.00  0.00    -0.040 C  
HETATM   19  C   UNL     1      -5.659  10.674  66.924  1.00  0.00    -0.048 C  
HETATM   20  C   UNL     1      -8.245  13.729  68.311  1.00  0.00    -0.156 C  
HETATM   21  O   UNL     1      -5.822  14.613  67.999  1.00  0.00    -0.129 OA 
HETATM   22  C   UNL     1      -5.884  12.542  69.372  1.00  0.00    -0.093 C  
HETATM   23  C   UNL     1      -9.838  13.559  64.886  1.00  0.00    -0.013 C  
HETATM   24  C   UNL     1      -5.491  11.710  65.711  1.00  0.00     0.689 C  
ENDROOT
BRANCH   2  25
HETATM   25  O   UNL     1      -9.379   9.435  66.851  1.00  0.00    -0.139 OA 
BRANCH  25  26
HETATM   26  C   UNL     1      -9.525   8.297  65.965  1.00  0.00    -0.119 C  
HETATM   27  O   UNL     1     -10.349   7.436  66.275  1.00  0.00     0.019 OA 
BRANCH  26  28
HETATM   28  C   UNL     1      -8.482   7.861  64.749  1.00  0.00    -0.010 A  
HETATM   29  C   UNL     1      -7.384   7.997  62.455  1.00  0.00    -0.098 A  
HETATM   30  C   UNL     1      -7.894   6.582  64.798  1.00  0.00    -0.112 A  
HETATM   31  C   UNL     1      -8.277   8.471  63.463  1.00  0.00    -0.133 A  
HETATM   32  C   UNL     1      -7.052   6.055  63.761  1.00  0.00    -0.056 A  
HETATM   33  C   UNL     1      -6.756   6.779  62.612  1.00  0.00    -0.043 A  
ENDBRANCH  26  28
ENDBRANCH  25  26
ENDBRANCH   2  25
BRANCH   8  34
HETATM   34  O   UNL     1      -6.209   7.822  70.220  1.00  0.00    -0.033 OA 
BRANCH  34  35
HETATM   35  C   UNL     1      -7.216   8.155  71.095  1.00  0.00    -0.060 C  
HETATM   36  O   UNL     1      -7.092   9.098  71.880  1.00  0.00    -0.314 OA 
BRANCH  35  37
HETATM   37  C   UNL     1      -8.440   7.183  71.253  1.00  0.00    -0.113 C  
HETATM   38  H   UNL     1      -9.849   6.493  70.058  1.00  0.00     0.000 HD 
HETATM   39  O   UNL     1      -9.109   7.082  69.962  1.00  0.00    -0.145 OA 
BRANCH  37  40
HETATM   40  C   UNL     1      -9.533   7.157  72.448  1.00  0.00    -0.145 C  
BRANCH  40  41
HETATM   41  C   UNL     1      -9.874   5.655  72.756  1.00  0.00    -0.183 A  
HETATM   42  C   UNL     1      -8.952   4.647  72.453  1.00  0.00    -0.138 A  
HETATM   43  C   UNL     1     -11.017   5.293  73.507  1.00  0.00    -0.353 A  
HETATM   44  C   UNL     1     -11.255   3.963  73.936  1.00  0.00    -0.170 A  
HETATM   45  C   UNL     1      -9.205   3.310  72.875  1.00  0.00    -0.119 A  
HETATM   46  C   UNL     1     -10.319   2.975  73.584  1.00  0.00    -0.225 A  
ENDBRANCH  40  41
BRANCH  40  47
HETATM   47  N   UNL     1     -10.775   8.109  72.532  1.00  0.00    -0.327 N  
HETATM   48  C   UNL     1     -11.515   8.755  71.502  1.00  0.00    -0.305 C  
HETATM   49  H   UNL     1     -11.106   8.297  73.478  1.00  0.00     0.000 HD 
HETATM   50  O   UNL     1     -11.379   8.474  70.319  1.00  0.00    -0.232 OA 
BRANCH  48  51
HETATM   51  O   UNL     1     -12.406   9.752  71.957  1.00  0.00    -0.354 OA 
HETATM   52  C   UNL     1     -12.910  10.991  71.193  1.00  0.00    -0.392 C  
HETATM   53  C   UNL     1     -11.822  11.872  70.552  1.00  0.00    -0.253 C  
HETATM   54  C   UNL     1     -13.680  11.979  72.141  1.00  0.00    -0.080 C  
HETATM   55  C   UNL     1     -13.924  10.587  70.106  1.00  0.00     2.004 C  
ENDBRANCH  48  51
ENDBRANCH  40  47
ENDBRANCH  37  40
ENDBRANCH  35  37
ENDBRANCH  34  35
ENDBRANCH   8  34
BRANCH  22  56
HETATM   56  O   UNL     1      -5.126  12.889  70.554  1.00  0.00    -0.090 OA 
HETATM   57  C   UNL     1      -5.879  13.605  71.559  1.00  0.00    -0.010 C  
ENDBRANCH  22  56
BRANCH  11  58
HETATM   58  O   UNL     1      -7.972  15.817  66.845  1.00  0.00    -0.214 OA 
HETATM   59  C   UNL     1      -8.611  17.017  66.378  1.00  0.00    -0.276 C  
ENDBRANCH  11  58
BRANCH   5  60
HETATM   60  O   UNL     1     -11.287  12.104  66.415  1.00  0.00    -0.321 OA 
BRANCH  60  61
HETATM   61  C   UNL     1     -12.246  12.036  65.486  1.00  0.00     0.163 C  
HETATM   62  C   UNL     1     -11.845  11.031  64.439  1.00  0.00     0.976 C  
HETATM   63  O   UNL     1     -13.345  12.602  65.447  1.00  0.00    -0.193 OA 
ENDBRANCH  60  61
ENDBRANCH   5  60
TORSDOF 14
ENDMDL
MODEL       41
REMARK 921   NORMALIZED FREE ENERGY PREDICTED BY IDOCK:    3.45 KCAL/MOL
REMARK 922        TOTAL FREE ENERGY PREDICTED BY IDOCK:    2.94 KCAL/MOL
REMARK 923 INTER-LIGAND FREE ENERGY PREDICTED BY IDOCK:    0.86 KCAL/MOL
REMARK 924 INTRA-LIGAND FREE ENERGY PREDICTED BY IDOCK:    2.08 KCAL/MOL
REMARK 927      BINDING AFFINITY PREDICTED BY RF-SCORE:    0.00 PKD
ROOT
HETATM    1  C   UNL     1      -8.737  15.005  67.388  1.00  0.00    -0.208 C  
HETATM    2  C   UNL     1      -8.637  13.338  66.404  1.00  0.00     0.338 C  
HETATM    3  C   UNL     1      -5.752  11.062  66.316  1.00  0.00    -0.143 C  
HETATM    4  C   UNL     1      -7.670  12.367  67.155  1.00  0.00    -0.122 C  
HETATM    5  C   UNL     1      -9.571  16.103  66.657  1.00  0.00    -0.244 C  
HETATM    6  O   UNL     1      -7.741  13.324  68.157  1.00  0.00    -0.120 OA 
HETATM    7  C   UNL     1      -8.280  10.923  67.540  1.00  0.00    -0.116 C  
HETATM    8  C   UNL     1      -7.562  10.030  68.616  1.00  0.00    -0.088 C  
HETATM    9  C   UNL     1      -6.615  14.921  69.614  1.00  0.00    -0.162 C  
HETATM   10  H   UNL     1      -7.153  12.733  68.614  1.00  0.00     0.000 HD 
HETATM   11  C   UNL     1      -8.036  17.107  69.157  1.00  0.00    -0.019 C  
HETATM   12  C   UNL     1      -9.360  17.710  68.694  1.00  0.00    -0.270 C  
HETATM   13  C   UNL     1      -8.997  15.298  70.423  1.00  0.00     1.003 C  
HETATM   14  C   UNL     1      -7.330  11.140  69.542  1.00  0.00    -0.023 C  
HETATM   15  C   UNL     1      -9.561  17.572  67.206  1.00  0.00    -0.273 C  
HETATM   16  C   UNL     1      -8.818  11.508  70.104  1.00  0.00     2.812 C  
HETATM   17  O   UNL     1      -8.457  17.937  66.349  1.00  0.00    -0.285 OA 
HETATM   18  C   UNL     1      -6.310  12.054  69.187  1.00  0.00    -0.093 C  
HETATM   19  C   UNL     1      -6.126  12.226  67.340  1.00  0.00    -0.153 C  
HETATM   20  C   UNL     1      -8.136  15.514  69.099  1.00  0.00    -0.244 C  
HETATM   21  O   UNL     1      -5.585  15.595  69.586  1.00  0.00    -0.108 OA 
HETATM   22  C   UNL     1      -6.569  13.388  70.166  1.00  0.00     0.204 C  
HETATM   23  C   UNL     1      -8.653  16.742  65.560  1.00  0.00     0.919 C  
HETATM   24  C   UNL     1      -5.355  13.416  66.592  1.00  0.00     2.065 C  
ENDROOT
BRANCH   2  25
HETATM   25  O   UNL     1      -9.851  12.345  66.120  1.00  0.00    -0.244 OA 
BRANCH  25  26
HETATM   26  C   UNL     1     -10.967  12.134  67.021  1.00  0.00    -0.271 C  
HETATM   27  O   UNL     1     -11.724  11.192  66.779  1.00  0.00    -0.349 OA 
BRANCH  26  28
HETATM   28  C   UNL     1     -11.528  13.207  68.157  1.00  0.00    -0.349 A  
HETATM   29  C   UNL     1     -12.230  14.000  70.473  1.00  0.00    -0.435 A  
HETATM   30  C   UNL     1     -12.209  14.357  67.712  1.00  0.00    -0.190 A  
HETATM   31  C   UNL     1     -11.693  13.029  69.574  1.00  0.00    -0.381 A  
HETATM   32  C   UNL     1     -12.821  15.309  68.596  1.00  0.00     1.135 A  
HETATM   33  C   UNL     1     -12.790  15.159  69.977  1.00  0.00    -0.121 A  
ENDBRANCH  26  28
ENDBRANCH  25  26
ENDBRANCH   2  25
BRANCH   8  34
HETATM   34  O   UNL     1      -8.319   8.987  69.341  1.00  0.00    -0.113 OA 
BRANCH  34  35
HETATM   35  C   UNL     1      -9.442   8.494  68.720  1.00  0.00    -0.143 C  
HETATM   36  O   UNL     1     -10.374   9.237  68.405  1.00  0.00    -0.196 OA 
BRANCH  35  37
HETATM   37  C   UNL     1      -9.635   6.937  68.621  1.00  0.00    -0.133 C  
HETATM   38  H   UNL     1     -10.693   5.723  67.483  1.00  0.00     0.000 HD 
HETATM   39  O   UNL     1     -10.576   6.664  67.543  1.00  0.00    -0.207 OA 
BRANCH  37  40
HETATM   40  C   UNL     1      -9.866   5.892  69.837  1.00  0.00    -0.174 C  
BRANCH  40  41
HETATM   41  C   UNL     1     -10.172   6.722  71.134  1.00  0.00    -0.212 A  
HETATM   42  C   UNL     1     -11.488   7.086  71.443  1.00  0.00    -0.312 A  
HETATM   43  C   UNL     1      -9.179   6.964  72.113  1.00  0.00    -0.143 A  
HETATM   44  C   UNL     1      -9.473   7.565  73.362  1.00  0.00    -0.306 A  
HETATM   45  C   UNL     1     -11.773   7.704  72.695  1.00  0.00    -0.323 A  
HETATM   46  C   UNL     1     -10.802   7.944  73.620  1.00  0.00     0.545 A  
ENDBRANCH  40  41
BRANCH  40  47
HETATM   47  N   UNL     1      -8.976   4.630  70.099  1.00  0.00    -0.086 N  
HETATM   48  C   UNL     1      -9.095   3.603  71.078  1.00  0.00    -0.108 C  
HETATM   49  H   UNL     1      -8.183   4.526  69.466  1.00  0.00     0.000 HD 
HETATM   50  O   UNL     1     -10.093   3.467  71.772  1.00  0.00    -0.163 OA 
BRANCH  48  51
HETATM   51  O   UNL     1      -7.962   2.765  71.190  1.00  0.00    -0.052 OA 
HETATM   52  C   UNL     1      -6.477   3.170  71.151  1.00  0.00    -0.019 C  
HETATM   53  C   UNL     1      -6.051   4.042  69.955  1.00  0.00    -0.023 C  
HETATM   54  C   UNL     1      -5.540   1.915  71.049  1.00  0.00    -0.012 C  
HETATM   55  C   UNL     1      -6.071   3.885  72.454  1.00  0.00    -0.009 C  
ENDBRANCH  48  51
ENDBRANCH  40  47
ENDBRANCH  37  40
ENDBRANCH  35  37
ENDBRANCH  34  35
ENDBRANCH   8  34
BRANCH  22  56
HETATM   56  O   UNL     1      -6.126  13.157  71.522  1.00  0.00    -0.115 OA 
HETATM   57  C   UNL     1      -6.015  14.352  72.327  1.00  0.00     0.284 C  
ENDBRANCH  22  56
BRANCH  11  58
HETATM   58  O   UNL     1      -6.925  17.690  68.482  1.00  0.00    -0.212 OA 
HETATM   59  C   UNL     1      -6.093  18.461  69.365  1.00  0.00    -0.257 C  
ENDBRANCH  11  58
BRANCH   5  60
HETATM   60  O   UNL     1     -10.804  15.514  66.205  1.00  0.00    -0.313 OA 
BRANCH  60  61
HETATM   61  C   UNL     1     -10.912  15.039  64.962  1.00  0.00    -0.423 C  
HETATM   62  C   UNL     1     -12.312  14.525  64.752  1.00  0.00    -0.403 C  
HETATM   63  O   UNL     1     -10.086  15.046  64.041  1.00  0.00     1.021 OA 
ENDBRANCH  60  61
ENDBRANCH   5  60
TORSDOF 14
ENDMDL
MODEL       42
REMARK 921   NORMALIZED FREE ENERGY PREDICTED BY IDOCK:    3.94 KCAL/MOL
REMARK 922        TOTAL FREE ENERGY PREDICTED BY IDOCK:    3.84 KCAL/MOL
REMARK 923 INTER-LIGAND FREE ENERGY PREDICTED BY IDOCK:    4.05 KCAL/MOL
REMARK 924 INTRA-LIGAND FREE ENERGY PREDICTED BY IDOCK:   -0.22 KCAL/MOL
REMARK 927      BINDING AFFINITY PREDICTED BY RF-SCORE:    0.00 PKD
ROOT
HETATM    1  C   UNL     1      -9.878  15.924  66.822  1.00  0.00    -0.254 C  
HETATM    2  C   UNL     1      -9.204  14.113  66.980  1.00  0.00    -0.239 C  
HETATM    3  C   UNL     1      -8.046  12.512  70.080  1.00  0.00     3.371 C  
HETATM    4  C   UNL     1      -9.519  13.581  68.416  1.00  0.00    -0.185 C  
HETATM    5  C   UNL     1      -9.497  16.607  65.472  1.00  0.00     0.294 C  
HETATM    6  O   UNL     1     -10.292  14.731  68.500  1.00  0.00    -0.225 OA 
HETATM    7  C   UNL     1     -10.343  12.195  68.489  1.00  0.00    -0.233 C  
HETATM    8  C   UNL     1     -11.050  11.771  69.827  1.00  0.00     0.006 C  
HETATM    9  C   UNL     1     -10.794  16.842  69.612  1.00  0.00    -0.204 C  
HETATM   10  H   UNL     1     -10.484  14.408  69.374  1.00  0.00     0.000 HD 
HETATM   11  C   UNL     1     -10.786  18.507  67.555  1.00  0.00    -0.291 C  
HETATM   12  C   UNL     1     -10.941  18.695  66.048  1.00  0.00     0.095 C  
HETATM   13  C   UNL     1     -12.591  16.934  67.814  1.00  0.00     3.284 C  
HETATM   14  C   UNL     1     -11.589  13.107  70.093  1.00  0.00    -0.147 C  
HETATM   15  C   UNL     1      -9.769  18.140  65.280  1.00  0.00     1.462 C  
HETATM   16  C   UNL     1     -12.742  13.304  68.954  1.00  0.00     0.884 C  
HETATM   17  O   UNL     1      -8.445  18.483  65.747  1.00  0.00    -0.455 OA 
HETATM   18  C   UNL     1     -10.666  14.081  70.540  1.00  0.00     1.031 C  
HETATM   19  C   UNL     1      -8.955  13.802  69.855  1.00  0.00     1.982 C  
HETATM   20  C   UNL     1     -11.000  16.966  67.918  1.00  0.00    -0.251 C  
HETATM   21  O   UNL     1     -10.182  17.676  70.279  1.00  0.00     0.674 OA 
HETATM   22  C   UNL     1     -11.457  15.544  70.342  1.00  0.00    -0.345 C  
HETATM   23  C   UNL     1      -8.019  17.109  65.596  1.00  0.00     0.633 C  
HETATM   24  C   UNL     1      -7.774  14.887  69.840  1.00  0.00     0.116 C  
ENDROOT
BRANCH   2  25
HETATM   25  O   UNL     1      -9.678  12.860  66.117  1.00  0.00    -0.266 OA 
BRANCH  25  26
HETATM   26  C   UNL     1      -8.964  11.600  66.038  1.00  0.00    -0.147 C  
HETATM   27  O   UNL     1      -8.240  11.295  66.987  1.00  0.00    -0.138 OA 
BRANCH  26  28
HETATM   28  C   UNL     1      -8.759  10.674  64.676  1.00  0.00    -0.161 A  
HETATM   29  C   UNL     1      -9.279   9.818  62.334  1.00  0.00    -0.294 A  
HETATM   30  C   UNL     1      -7.962   9.515  64.769  1.00  0.00    -0.123 A  
HETATM   31  C   UNL     1      -9.499  10.690  63.443  1.00  0.00    -0.352 A  
HETATM   32  C   UNL     1      -7.787   8.585  63.689  1.00  0.00    -0.151 A  
HETATM   33  C   UNL     1      -8.403   8.760  62.456  1.00  0.00    -0.202 A  
ENDBRANCH  26  28
ENDBRANCH  25  26
ENDBRANCH   2  25
BRANCH   8  34
HETATM   34  O   UNL     1     -12.184  10.823  69.800  1.00  0.00    -0.323 OA 
BRANCH  34  35
HETATM   35  C   UNL     1     -12.553  10.266  71.002  1.00  0.00    -0.390 C  
HETATM   36  O   UNL     1     -12.857  10.973  71.966  1.00  0.00    -0.380 OA 
BRANCH  35  37
HETATM   37  C   UNL     1     -12.362   8.721  71.215  1.00  0.00    -0.270 C  
HETATM   38  H   UNL     1     -12.574   7.475  72.729  1.00  0.00     0.000 HD 
HETATM   39  O   UNL     1     -12.689   8.409  72.600  1.00  0.00    -0.297 OA 
BRANCH  37  40
HETATM   40  C   UNL     1     -11.125   7.801  70.717  1.00  0.00    -0.257 C  
BRANCH  40  41
HETATM   41  C   UNL     1     -10.662   6.918  71.931  1.00  0.00    -0.245 A  
HETATM   42  C   UNL     1      -9.797   7.446  72.896  1.00  0.00    -0.253 A  
HETATM   43  C   UNL     1     -11.238   5.652  72.190  1.00  0.00    -0.288 A  
HETATM   44  C   UNL     1     -10.956   4.915  73.367  1.00  0.00    -0.394 A  
HETATM   45  C   UNL     1      -9.506   6.692  74.069  1.00  0.00    -0.231 A  
HETATM   46  C   UNL     1     -10.057   5.467  74.296  1.00  0.00    -0.267 A  
ENDBRANCH  40  41
BRANCH  40  47
HETATM   47  N   UNL     1      -9.939   8.317  69.832  1.00  0.00    -0.187 N  
HETATM   48  C   UNL     1      -9.027   7.604  69.003  1.00  0.00    -0.137 C  
HETATM   49  H   UNL     1      -9.797   9.327  69.854  1.00  0.00     0.000 HD 
HETATM   50  O   UNL     1      -9.187   6.428  68.708  1.00  0.00    -0.128 OA 
BRANCH  48  51
HETATM   51  O   UNL     1      -7.920   8.362  68.561  1.00  0.00    -0.117 OA 
HETATM   52  C   UNL     1      -6.601   8.634  69.308  1.00  0.00    -0.049 C  
HETATM   53  C   UNL     1      -6.741   9.171  70.745  1.00  0.00    -0.082 C  
HETATM   54  C   UNL     1      -5.742   9.730  68.582  1.00  0.00    -0.039 C  
HETATM   55  C   UNL     1      -5.719   7.371  69.336  1.00  0.00    -0.023 C  
ENDBRANCH  48  51
ENDBRANCH  40  47
ENDBRANCH  37  40
ENDBRANCH  35  37
ENDBRANCH  34  35
ENDBRANCH   8  34
BRANCH  22  56
HETATM   56  O   UNL     1     -12.450  15.765  71.370  1.00  0.00    -0.412 OA 
HETATM   57  C   UNL     1     -11.908  16.163  72.649  1.00  0.00    -0.506 C  
ENDBRANCH  22  56
BRANCH  11  58
HETATM   58  O   UNL     1      -9.587  19.105  68.041  1.00  0.00    -0.305 OA 
HETATM   59  C   UNL     1      -9.679  20.538  68.104  1.00  0.00    -0.053 C  
ENDBRANCH  11  58
BRANCH   5  60
HETATM   60  O   UNL     1      -9.780  15.688  64.401  1.00  0.00     0.666 OA 
BRANCH  60  61
HETATM   61  C   UNL     1     -11.006  15.179  64.250  1.00  0.00     0.195 C  
HETATM   62  C   UNL     1     -10.898  13.691  64.044  1.00  0.00    -0.025 C  
HETATM   63  O   UNL     1     -12.107  15.739  64.330  1.00  0.00    -0.318 OA 
ENDBRANCH  60  61
ENDBRANCH   5  60
TORSDOF 14
ENDMDL
MODEL       43
REMARK 921   NORMALIZED FREE ENERGY PREDICTED BY IDOCK:    4.02 KCAL/MOL
REMARK 922        TOTAL FREE ENERGY PREDICTED BY IDOCK:    3.99 KCAL/MOL
REMARK 923 INTER-LIGAND FREE ENERGY PREDICTED BY IDOCK:    4.01 KCAL/MOL
REMARK 924 INTRA-LIGAND FREE ENERGY PREDICTED BY IDOCK:   -0.02 KCAL/MOL
REMARK 927      BINDING AFFINITY PREDICTED BY RF-SCORE:    0.00 PKD
ROOT
HETATM    1  C   UNL     1     -10.005  15.953  67.529  1.00  0.00    -0.238 C  
HETATM    2  C   UNL     1      -9.831  15.017  69.218  1.00  0.00    -0.197 C  
HETATM    3  C   UNL     1     -11.403  11.805  70.069  1.00  0.00    -0.130 C  
HETATM    4  C   UNL     1      -9.974  13.482  68.961  1.00  0.00     0.138 C  
HETATM    5  C   UNL     1     -10.016  17.506  67.683  1.00  0.00    -0.309 C  
HETATM    6  O   UNL     1      -9.891  13.858  67.627  1.00  0.00    -0.228 OA 
HETATM    7  C   UNL     1      -8.758  12.562  69.491  1.00  0.00     1.589 C  
HETATM    8  C   UNL     1      -8.594  11.093  68.957  1.00  0.00    -0.024 C  
HETATM    9  C   UNL     1     -10.879  13.912  65.399  1.00  0.00    -0.319 C  
HETATM   10  H   UNL     1      -9.978  12.925  67.471  1.00  0.00     0.000 HD 
HETATM   11  C   UNL     1     -10.710  16.493  64.837  1.00  0.00    -0.146 C  
HETATM   12  C   UNL     1     -10.016  17.826  65.100  1.00  0.00     1.290 C  
HETATM   13  C   UNL     1      -8.716  15.143  64.875  1.00  0.00     4.048 C  
HETATM   14  C   UNL     1      -8.854  11.454  67.562  1.00  0.00    -0.146 C  
HETATM   15  C   UNL     1     -10.375  18.401  66.447  1.00  0.00    -0.405 C  
HETATM   16  C   UNL     1      -7.532  12.302  67.117  1.00  0.00    -0.113 C  
HETATM   17  O   UNL     1     -11.774  18.424  66.808  1.00  0.00     1.349 OA 
HETATM   18  C   UNL     1     -10.197  11.744  67.226  1.00  0.00    -0.226 C  
HETATM   19  C   UNL     1     -11.139  12.489  68.653  1.00  0.00    -0.305 C  
HETATM   20  C   UNL     1     -10.036  15.361  65.742  1.00  0.00    -0.391 C  
HETATM   21  O   UNL     1     -12.010  13.889  64.916  1.00  0.00    -0.358 OA 
HETATM   22  C   UNL     1     -10.112  12.514  65.741  1.00  0.00    -0.262 C  
HETATM   23  C   UNL     1     -11.458  17.926  68.128  1.00  0.00     1.005 C  
HETATM   24  C   UNL     1     -12.534  13.271  68.536  1.00  0.00     0.352 C  
ENDROOT
BRANCH   2  25
HETATM   25  O   UNL     1      -8.545  15.016  70.158  1.00  0.00     0.234 OA 
BRANCH  25  26
HETATM   26  C   UNL     1      -7.177  14.983  69.679  1.00  0.00    -0.192 C  
HETATM   27  O   UNL     1      -6.412  14.165  70.192  1.00  0.00    -0.144 OA 
BRANCH  26  28
HETATM   28  C   UNL     1      -6.437  16.139  68.745  1.00  0.00    -0.122 A  
HETATM   29  C   UNL     1      -5.138  18.279  68.272  1.00  0.00    -0.167 A  
HETATM   30  C   UNL     1      -6.763  16.203  67.376  1.00  0.00    -0.218 A  
HETATM   31  C   UNL     1      -5.705  17.309  69.153  1.00  0.00    -0.183 A  
HETATM   32  C   UNL     1      -6.263  17.214  66.488  1.00  0.00    -0.248 A  
HETATM   33  C   UNL     1      -5.412  18.224  66.922  1.00  0.00    -0.155 A  
ENDBRANCH  26  28
ENDBRANCH  25  26
ENDBRANCH   2  25
BRANCH   8  34
HETATM   34  O   UNL     1      -7.277  10.425  69.013  1.00  0.00    -0.073 OA 
BRANCH  34  35
HETATM   35  C   UNL     1      -7.230   9.199  69.635  1.00  0.00    -0.061 C  
HETATM   36  O   UNL     1      -7.870   8.984  70.668  1.00  0.00    -0.101 OA 
BRANCH  35  37
HETATM   37  C   UNL     1      -6.174   8.141  69.153  1.00  0.00    -0.039 C  
HETATM   38  H   UNL     1      -4.489   8.203  68.130  1.00  0.00     0.000 HD 
HETATM   39  O   UNL     1      -5.128   8.844  68.421  1.00  0.00    -0.030 OA 
BRANCH  37  40
HETATM   40  C   UNL     1      -6.460   6.702  68.467  1.00  0.00    -0.049 C  
BRANCH  40  41
HETATM   41  C   UNL     1      -6.668   6.936  66.928  1.00  0.00    -0.056 A  
HETATM   42  C   UNL     1      -6.099   6.056  65.999  1.00  0.00    -0.032 A  
HETATM   43  C   UNL     1      -7.572   7.908  66.440  1.00  0.00    -0.091 A  
HETATM   44  C   UNL     1      -7.896   8.023  65.065  1.00  0.00    -0.123 A  
HETATM   45  C   UNL     1      -6.419   6.188  64.617  1.00  0.00    -0.034 A  
HETATM   46  C   UNL     1      -7.280   7.140  64.162  1.00  0.00    -0.069 A  
ENDBRANCH  40  41
BRANCH  40  47
HETATM   47  N   UNL     1      -7.410   5.609  69.066  1.00  0.00    -0.080 N  
HETATM   48  C   UNL     1      -8.823   5.607  69.238  1.00  0.00    -0.111 C  
HETATM   49  H   UNL     1      -6.940   4.762  69.385  1.00  0.00     0.000 HD 
HETATM   50  O   UNL     1      -9.549   6.447  68.726  1.00  0.00    -0.126 OA 
BRANCH  48  51
HETATM   51  O   UNL     1      -9.313   4.564  70.056  1.00  0.00    -0.122 OA 
HETATM   52  C   UNL     1      -9.684   4.628  71.549  1.00  0.00    -0.175 C  
HETATM   53  C   UNL     1      -8.613   5.224  72.482  1.00  0.00    -0.121 C  
HETATM   54  C   UNL     1      -9.940   3.197  72.141  1.00  0.00    -0.232 C  
HETATM   55  C   UNL     1     -11.002   5.400  71.752  1.00  0.00    -0.198 C  
ENDBRANCH  48  51
ENDBRANCH  40  47
ENDBRANCH  37  40
ENDBRANCH  35  37
ENDBRANCH  34  35
ENDBRANCH   8  34
BRANCH  22  56
HETATM   56  O   UNL     1      -9.864  11.583  64.663  1.00  0.00    -0.242 OA 
HETATM   57  C   UNL     1     -10.846  11.620  63.604  1.00  0.00    -0.432 C  
ENDBRANCH  22  56
BRANCH  11  58
HETATM   58  O   UNL     1     -12.127  16.608  64.930  1.00  0.00     0.644 OA 
HETATM   59  C   UNL     1     -12.800  15.942  63.848  1.00  0.00     1.542 C  
ENDBRANCH  11  58
BRANCH   5  60
HETATM   60  O   UNL     1      -8.934  17.884  68.554  1.00  0.00    -0.286 OA 
BRANCH  60  61
HETATM   61  C   UNL     1      -8.623  19.172  68.729  1.00  0.00    -0.335 C  
HETATM   62  C   UNL     1      -9.404  19.711  69.899  1.00  0.00     0.566 C  
HETATM   63  O   UNL     1      -7.792  19.870  68.135  1.00  0.00    -0.306 OA 
ENDBRANCH  60  61
ENDBRANCH   5  60
TORSDOF 14
ENDMDL
MODEL       44
REMARK 921   NORMALIZED FREE ENERGY PREDICTED BY IDOCK:    4.16 KCAL/MOL
REMARK 922        TOTAL FREE ENERGY PREDICTED BY IDOCK:    4.24 KCAL/MOL
REMARK 923 INTER-LIGAND FREE ENERGY PREDICTED BY IDOCK:    1.37 KCAL/MOL
REMARK 924 INTRA-LIGAND FREE ENERGY PREDICTED BY IDOCK:    2.87 KCAL/MOL
REMARK 927      BINDING AFFINITY PREDICTED BY RF-SCORE:    0.00 PKD
ROOT
HETATM    1  C   UNL     1      -8.421  15.836  67.565  1.00  0.00    -0.183 C  
HETATM    2  C   UNL     1      -8.412  14.230  66.479  1.00  0.00     0.256 C  
HETATM    3  C   UNL     1      -5.645  11.824  66.221  1.00  0.00     0.277 C  
HETATM    4  C   UNL     1      -7.489  13.167  67.158  1.00  0.00     0.038 C  
HETATM    5  C   UNL     1      -9.204  17.018  66.912  1.00  0.00    -0.240 C  
HETATM    6  O   UNL     1      -7.506  14.062  68.219  1.00  0.00    -0.102 OA 
HETATM    7  C   UNL     1      -8.169  11.734  67.459  1.00  0.00    -0.152 C  
HETATM    8  C   UNL     1      -7.489  10.741  68.471  1.00  0.00    -0.100 C  
HETATM    9  C   UNL     1      -6.291  15.508  69.761  1.00  0.00    -0.164 C  
HETATM   10  H   UNL     1      -6.945  13.416  68.632  1.00  0.00     0.000 HD 
HETATM   11  C   UNL     1      -7.604  17.786  69.454  1.00  0.00     0.197 C  
HETATM   12  C   UNL     1      -8.898  18.482  69.042  1.00  0.00    -0.081 C  
HETATM   13  C   UNL     1      -8.646  15.951  70.615  1.00  0.00     2.393 C  
HETATM   14  C   UNL     1      -7.195  11.778  69.462  1.00  0.00     0.160 C  
HETATM   15  C   UNL     1      -9.116  18.447  67.551  1.00  0.00    -0.271 C  
HETATM   16  C   UNL     1      -8.659  12.184  70.060  1.00  0.00     3.188 C  
HETATM   17  O   UNL     1      -8.000  18.809  66.707  1.00  0.00    -0.239 OA 
HETATM   18  C   UNL     1      -6.134  12.660  69.154  1.00  0.00    -0.092 C  
HETATM   19  C   UNL     1      -5.953  12.938  67.319  1.00  0.00     0.025 C  
HETATM   20  C   UNL     1      -7.784  16.206  69.298  1.00  0.00    -0.210 C  
HETATM   21  O   UNL     1      -5.229  16.130  69.764  1.00  0.00    -0.117 OA 
HETATM   22  C   UNL     1      -6.319  13.942  70.216  1.00  0.00    -0.067 C  
HETATM   23  C   UNL     1      -8.262  17.677  65.848  1.00  0.00     0.026 C  
HETATM   24  C   UNL     1      -5.128  14.133  66.639  1.00  0.00     2.538 C  
ENDROOT
BRANCH   2  25
HETATM   25  O   UNL     1      -9.676  13.319  66.146  1.00  0.00    -0.281 OA 
BRANCH  25  26
HETATM   26  C   UNL     1     -10.686  12.931  67.111  1.00  0.00    -0.253 C  
HETATM   27  O   UNL     1     -11.405  11.971  66.829  1.00  0.00    -0.307 OA 
BRANCH  26  28
HETATM   28  C   UNL     1     -11.199  13.830  68.408  1.00  0.00    -0.300 A  
HETATM   29  C   UNL     1     -12.037  14.242  70.779  1.00  0.00    -0.418 A  
HETATM   30  C   UNL     1     -11.628  15.153  68.179  1.00  0.00    -0.358 A  
HETATM   31  C   UNL     1     -11.559  13.396  69.732  1.00  0.00    -0.305 A  
HETATM   32  C   UNL     1     -12.181  15.996  69.201  1.00  0.00     0.083 A  
HETATM   33  C   UNL     1     -12.340  15.561  70.511  1.00  0.00    -0.461 A  
ENDBRANCH  26  28
ENDBRANCH  25  26
ENDBRANCH   2  25
BRANCH   8  34
HETATM   34  O   UNL     1      -8.293   9.694  69.137  1.00  0.00    -0.115 OA 
BRANCH  34  35
HETATM   35  C   UNL     1      -9.640   9.676  68.857  1.00  0.00    -0.161 C  
HETATM   36  O   UNL     1     -10.430  10.388  69.480  1.00  0.00    -0.223 OA 
BRANCH  35  37
HETATM   37  C   UNL     1     -10.201   8.569  67.893  1.00  0.00    -0.218 C  
HETATM   38  H   UNL     1     -11.838   8.342  66.817  1.00  0.00     0.000 HD 
HETATM   39  O   UNL     1     -11.498   9.012  67.400  1.00  0.00     0.706 OA 
BRANCH  37  40
HETATM   40  C   UNL     1     -10.215   6.967  68.131  1.00  0.00    -0.176 C  
BRANCH  40  41
HETATM   41  C   UNL     1     -10.347   6.711  69.675  1.00  0.00    -0.226 A  
HETATM   42  C   UNL     1     -11.606   6.488  70.247  1.00  0.00    -0.473 A  
HETATM   43  C   UNL     1      -9.211   6.512  70.495  1.00  0.00    -0.156 A  
HETATM   44  C   UNL     1      -9.313   6.118  71.852  1.00  0.00    -0.157 A  
HETATM   45  C   UNL     1     -11.700   6.106  71.616  1.00  0.00    -0.290 A  
HETATM   46  C   UNL     1     -10.596   5.934  72.395  1.00  0.00    -0.257 A  
ENDBRANCH  40  41
BRANCH  40  47
HETATM   47  N   UNL     1      -9.258   5.957  67.411  1.00  0.00    -0.110 N  
HETATM   48  C   UNL     1      -9.476   5.129  66.273  1.00  0.00    -0.156 C  
HETATM   49  H   UNL     1      -8.328   5.880  67.823  1.00  0.00     0.000 HD 
HETATM   50  O   UNL     1     -10.452   5.253  65.547  1.00  0.00     0.084 OA 
BRANCH  48  51
HETATM   51  O   UNL     1      -8.481   4.148  66.062  1.00  0.00    -0.109 OA 
HETATM   52  C   UNL     1      -8.065   3.004  67.004  1.00  0.00    -0.079 C  
HETATM   53  C   UNL     1      -7.738   3.412  68.452  1.00  0.00    -0.056 C  
HETATM   54  C   UNL     1      -6.751   2.300  66.510  1.00  0.00    -0.039 C  
HETATM   55  C   UNL     1      -9.140   1.901  67.031  1.00  0.00    -0.109 C  
ENDBRANCH  48  51
ENDBRANCH  40  47
ENDBRANCH  37  40
ENDBRANCH  35  37
ENDBRANCH  34  35
ENDBRANCH   8  34
BRANCH  22  56
HETATM   56  O   UNL     1      -5.879  13.605  71.551  1.00  0.00    -0.322 OA 
HETATM   57  C   UNL     1      -5.621  14.745  72.401  1.00  0.00     0.194 C  
ENDBRANCH  22  56
BRANCH  11  58
HETATM   58  O   UNL     1      -6.469  18.354  68.805  1.00  0.00    -0.215 OA 
HETATM   59  C   UNL     1      -5.863  19.400  69.583  1.00  0.00    -0.251 C  
ENDBRANCH  11  58
BRANCH   5  60
HETATM   60  O   UNL     1     -10.468  16.519  66.437  1.00  0.00    -0.304 OA 
BRANCH  60  61
HETATM   61  C   UNL     1     -10.575  16.007  65.207  1.00  0.00    -0.402 C  
HETATM   62  C   UNL     1     -11.655  16.745  64.460  1.00  0.00     0.536 C  
HETATM   63  O   UNL     1      -9.898  15.130  64.657  1.00  0.00    -0.023 OA 
ENDBRANCH  60  61
ENDBRANCH   5  60
TORSDOF 14
ENDMDL
MODEL       45
REMARK 921   NORMALIZED FREE ENERGY PREDICTED BY IDOCK:    4.98 KCAL/MOL
REMARK 922        TOTAL FREE ENERGY PREDICTED BY IDOCK:    5.73 KCAL/MOL
REMARK 923 INTER-LIGAND FREE ENERGY PREDICTED BY IDOCK:   -0.35 KCAL/MOL
REMARK 924 INTRA-LIGAND FREE ENERGY PREDICTED BY IDOCK:    6.07 KCAL/MOL
REMARK 927      BINDING AFFINITY PREDICTED BY RF-SCORE:    0.00 PKD
ROOT
HETATM    1  C   UNL     1      -9.297  11.902  66.718  1.00  0.00    -0.204 C  
HETATM    2  C   UNL     1      -8.643  10.094  66.472  1.00  0.00    -0.126 C  
HETATM    3  C   UNL     1      -5.126   9.119  66.029  1.00  0.00    -0.036 C  
HETATM    4  C   UNL     1      -7.193   9.999  67.048  1.00  0.00    -0.090 C  
HETATM    5  C   UNL     1     -10.688  12.150  66.055  1.00  0.00    -0.273 C  
HETATM    6  O   UNL     1      -7.483  11.256  67.558  1.00  0.00    -0.097 OA 
HETATM    7  C   UNL     1      -6.948   8.850  68.154  1.00  0.00    -0.077 C  
HETATM    8  C   UNL     1      -5.676   8.907  69.076  1.00  0.00    -0.040 C  
HETATM    9  C   UNL     1      -6.953  13.631  67.710  1.00  0.00    -0.162 C  
HETATM   10  H   UNL     1      -6.602  11.199  67.908  1.00  0.00     0.000 HD 
HETATM   11  C   UNL     1      -9.298  14.708  67.120  1.00  0.00    -0.223 C  
HETATM   12  C   UNL     1     -10.815  14.544  67.067  1.00  0.00    -0.297 C  
HETATM   13  C   UNL     1      -8.985  13.608  69.239  1.00  0.00     0.669 C  
HETATM   14  C   UNL     1      -5.796  10.342  69.340  1.00  0.00    -0.038 C  
HETATM   15  C   UNL     1     -11.250  13.611  65.967  1.00  0.00    -0.296 C  
HETATM   16  C   UNL     1      -7.116  10.463  70.294  1.00  0.00    -0.060 C  
HETATM   17  O   UNL     1     -10.669  13.808  64.658  1.00  0.00    -0.387 OA 
HETATM   18  C   UNL     1      -5.435  11.209  68.282  1.00  0.00    -0.039 C  
HETATM   19  C   UNL     1      -5.767  10.459  66.608  1.00  0.00    -0.059 C  
HETATM   20  C   UNL     1      -8.645  13.370  67.699  1.00  0.00    -0.193 C  
HETATM   21  O   UNL     1      -6.398  14.476  67.007  1.00  0.00    -0.062 OA 
HETATM   22  C   UNL     1      -6.069  12.698  68.712  1.00  0.00    -0.071 C  
HETATM   23  C   UNL     1     -10.447  12.385  64.525  1.00  0.00    -0.325 C  
HETATM   24  C   UNL     1      -5.836  11.270  65.226  1.00  0.00     0.590 C  
ENDROOT
BRANCH   2  25
HETATM   25  O   UNL     1      -9.274   8.776  67.109  1.00  0.00    -0.132 OA 
BRANCH  25  26
HETATM   26  C   UNL     1      -9.161   7.450  66.534  1.00  0.00    -0.162 C  
HETATM   27  O   UNL     1      -9.215   7.355  65.307  1.00  0.00     0.280 OA 
BRANCH  26  28
HETATM   28  C   UNL     1      -9.289   6.012  67.353  1.00  0.00    -0.111 A  
HETATM   29  C   UNL     1      -9.879   4.478  69.299  1.00  0.00    -0.241 A  
HETATM   30  C   UNL     1      -8.521   4.918  66.908  1.00  0.00    -0.106 A  
HETATM   31  C   UNL     1      -9.853   5.750  68.650  1.00  0.00    -0.178 A  
HETATM   32  C   UNL     1      -8.474   3.653  67.587  1.00  0.00    -0.105 A  
HETATM   33  C   UNL     1      -9.190   3.415  68.754  1.00  0.00    -0.229 A  
ENDBRANCH  26  28
ENDBRANCH  25  26
ENDBRANCH   2  25
BRANCH   8  34
HETATM   34  O   UNL     1      -5.670   8.207  70.379  1.00  0.00    -0.028 OA 
BRANCH  34  35
HETATM   35  C   UNL     1      -6.600   8.617  71.306  1.00  0.00    -0.069 C  
HETATM   36  O   UNL     1      -6.291   9.386  72.219  1.00  0.00    -0.296 OA 
BRANCH  35  37
HETATM   37  C   UNL     1      -8.007   7.919  71.333  1.00  0.00    -0.094 C  
HETATM   38  H   UNL     1      -9.217   7.145  69.982  1.00  0.00     0.000 HD 
HETATM   39  O   UNL     1      -8.366   7.568  69.965  1.00  0.00    -0.131 OA 
BRANCH  37  40
HETATM   40  C   UNL     1      -9.325   8.386  72.150  1.00  0.00    -0.269 C  
BRANCH  40  41
HETATM   41  C   UNL     1     -10.146   7.098  72.516  1.00  0.00    -0.211 A  
HETATM   42  C   UNL     1      -9.851   6.382  73.682  1.00  0.00    -0.213 A  
HETATM   43  C   UNL     1     -11.310   6.732  71.799  1.00  0.00    -0.307 A  
HETATM   44  C   UNL     1     -12.155   5.672  72.212  1.00  0.00     0.033 A  
HETATM   45  C   UNL     1     -10.697   5.308  74.082  1.00  0.00    -0.232 A  
HETATM   46  C   UNL     1     -11.805   4.958  73.372  1.00  0.00     0.098 A  
ENDBRANCH  40  41
BRANCH  40  47
HETATM   47  N   UNL     1     -10.223   9.609  71.757  1.00  0.00     0.226 N  
HETATM   48  C   UNL     1     -11.633   9.784  71.842  1.00  0.00     0.032 C  
HETATM   49  H   UNL     1      -9.715  10.409  71.380  1.00  0.00     0.000 HD 
HETATM   50  O   UNL     1     -12.357   9.011  72.455  1.00  0.00    -0.349 OA 
BRANCH  48  51
HETATM   51  O   UNL     1     -12.126  10.913  71.150  1.00  0.00    -0.334 OA 
HETATM   52  C   UNL     1     -12.822  12.154  71.738  1.00  0.00    -0.262 C  
HETATM   53  C   UNL     1     -14.007  11.875  72.682  1.00  0.00     0.884 C  
HETATM   54  C   UNL     1     -13.446  13.053  70.613  1.00  0.00     0.759 C  
HETATM   55  C   UNL     1     -11.807  13.053  72.471  1.00  0.00     3.033 C  
ENDBRANCH  48  51
ENDBRANCH  40  47
ENDBRANCH  37  40
ENDBRANCH  35  37
ENDBRANCH  34  35
ENDBRANCH   8  34
BRANCH  22  56
HETATM   56  O   UNL     1      -5.282  13.345  69.739  1.00  0.00    -0.084 OA 
HETATM   57  C   UNL     1      -6.037  14.211  70.615  1.00  0.00    -0.170 C  
ENDBRANCH  22  56
BRANCH  11  58
HETATM   58  O   UNL     1      -8.774  15.175  65.880  1.00  0.00     0.015 OA 
HETATM   59  C   UNL     1      -8.995  16.582  65.689  1.00  0.00     0.264 C  
ENDBRANCH  11  58
BRANCH   5  60
HETATM   60  O   UNL     1     -11.562  11.064  66.413  1.00  0.00    -0.147 OA 
BRANCH  60  61
HETATM   61  C   UNL     1     -11.872  10.836  67.692  1.00  0.00     0.460 C  
HETATM   62  C   UNL     1     -11.388   9.463  68.079  1.00  0.00     0.382 C  
HETATM   63  O   UNL     1     -12.396  11.590  68.522  1.00  0.00    -0.459 OA 
ENDBRANCH  60  61
ENDBRANCH   5  60
TORSDOF 14
ENDMDL
MODEL       46
REMARK 921   NORMALIZED FREE ENERGY PREDICTED BY IDOCK:    5.24 KCAL/MOL
REMARK 922        TOTAL FREE ENERGY PREDICTED BY IDOCK:    6.20 KCAL/MOL
REMARK 923 INTER-LIGAND FREE ENERGY PREDICTED BY IDOCK:    0.22 KCAL/MOL
REMARK 924 INTRA-LIGAND FREE ENERGY PREDICTED BY IDOCK:    5.98 KCAL/MOL
REMARK 927      BINDING AFFINITY PREDICTED BY RF-SCORE:    0.00 PKD
ROOT
HETATM    1  C   UNL     1     -10.502  15.481  68.745  1.00  0.00    -0.234 C  
HETATM    2  C   UNL     1     -11.909  14.280  68.165  1.00  0.00    -0.339 C  
HETATM    3  C   UNL     1     -12.004  12.463  64.971  1.00  0.00    -0.458 C  
HETATM    4  C   UNL     1     -11.293  13.204  67.213  1.00  0.00    -0.306 C  
HETATM    5  C   UNL     1     -11.027  16.681  69.594  1.00  0.00    -0.221 C  
HETATM    6  O   UNL     1     -10.088  13.739  67.647  1.00  0.00    -0.236 OA 
HETATM    7  C   UNL     1     -11.550  11.666  67.629  1.00  0.00    -0.349 C  
HETATM    8  C   UNL     1     -10.672  10.525  66.996  1.00  0.00    -0.250 C  
HETATM    9  C   UNL     1      -7.968  14.825  67.128  1.00  0.00    -0.174 C  
HETATM   10  H   UNL     1      -9.713  13.085  67.069  1.00  0.00     0.000 HD 
HETATM   11  C   UNL     1      -8.041  16.888  68.785  1.00  0.00    -0.251 C  
HETATM   12  C   UNL     1      -8.598  17.486  70.074  1.00  0.00     2.141 C  
HETATM   13  C   UNL     1      -7.694  14.668  69.652  1.00  0.00     0.062 C  
HETATM   14  C   UNL     1      -9.414  11.258  67.149  1.00  0.00    -0.183 C  
HETATM   15  C   UNL     1     -10.054  17.859  69.947  1.00  0.00     0.725 C  
HETATM   16  C   UNL     1      -9.149  11.264  68.760  1.00  0.00    -0.122 C  
HETATM   17  O   UNL     1     -10.451  18.604  68.774  1.00  0.00    -0.245 OA 
HETATM   18  C   UNL     1      -9.197  12.331  66.253  1.00  0.00    -0.171 C  
HETATM   19  C   UNL     1     -10.788  13.154  65.736  1.00  0.00    -0.289 C  
HETATM   20  C   UNL     1      -8.626  15.414  68.594  1.00  0.00    -0.179 C  
HETATM   21  O   UNL     1      -7.526  15.561  66.245  1.00  0.00     0.288 OA 
HETATM   22  C   UNL     1      -7.940  13.207  66.928  1.00  0.00     0.134 C  
HETATM   23  C   UNL     1     -11.601  17.746  68.599  1.00  0.00     1.712 C  
HETATM   24  C   UNL     1     -10.904  14.599  65.049  1.00  0.00    -0.431 C  
ENDROOT
BRANCH   2  25
HETATM   25  O   UNL     1     -12.783  13.339  69.108  1.00  0.00     0.286 OA 
BRANCH  25  26
HETATM   26  C   UNL     1     -12.288  12.685  70.303  1.00  0.00    -0.195 C  
HETATM   27  O   UNL     1     -11.199  13.055  70.745  1.00  0.00     0.908 OA 
BRANCH  26  28
HETATM   28  C   UNL     1     -12.867  11.276  70.961  1.00  0.00    -0.395 A  
HETATM   29  C   UNL     1     -12.960   9.331  72.604  1.00  0.00    -0.282 A  
HETATM   30  C   UNL     1     -13.706  10.464  70.172  1.00  0.00     1.134 A  
HETATM   31  C   UNL     1     -12.428  10.571  72.136  1.00  0.00     0.130 A  
HETATM   32  C   UNL     1     -14.193   9.180  70.594  1.00  0.00     0.562 A  
HETATM   33  C   UNL     1     -13.862   8.634  71.828  1.00  0.00    -0.472 A  
ENDBRANCH  26  28
ENDBRANCH  25  26
ENDBRANCH   2  25
BRANCH   8  34
HETATM   34  O   UNL     1     -10.527   9.228  67.691  1.00  0.00    -0.238 OA 
BRANCH  34  35
HETATM   35  C   UNL     1     -10.515   9.261  69.066  1.00  0.00    -0.216 C  
HETATM   36  O   UNL     1     -10.953  10.234  69.684  1.00  0.00    -0.234 OA 
BRANCH  35  37
HETATM   37  C   UNL     1      -9.727   8.148  69.847  1.00  0.00    -0.176 C  
HETATM   38  H   UNL     1      -9.271   7.813  71.736  1.00  0.00     0.000 HD 
HETATM   39  O   UNL     1      -9.748   8.486  71.264  1.00  0.00    -0.174 OA 
BRANCH  37  40
HETATM   40  C   UNL     1      -8.300   7.490  69.454  1.00  0.00    -0.132 C  
BRANCH  40  41
HETATM   41  C   UNL     1      -7.210   8.102  70.405  1.00  0.00    -0.048 A  
HETATM   42  C   UNL     1      -6.315   9.065  69.923  1.00  0.00    -0.038 A  
HETATM   43  C   UNL     1      -7.214   7.851  71.797  1.00  0.00    -0.071 A  
HETATM   44  C   UNL     1      -6.344   8.521  72.694  1.00  0.00    -0.090 A  
HETATM   45  C   UNL     1      -5.434   9.724  70.828  1.00  0.00    -0.057 A  
HETATM   46  C   UNL     1      -5.440   9.458  72.164  1.00  0.00    -0.063 A  
ENDBRANCH  40  41
BRANCH  40  47
HETATM   47  N   UNL     1      -7.798   7.276  67.985  1.00  0.00    -0.116 N  
HETATM   48  C   UNL     1      -8.062   6.224  67.064  1.00  0.00    -0.109 C  
HETATM   49  H   UNL     1      -7.182   8.009  67.632  1.00  0.00     0.000 HD 
HETATM   50  O   UNL     1      -8.933   5.386  67.253  1.00  0.00    -0.113 OA 
BRANCH  48  51
HETATM   51  O   UNL     1      -7.229   6.221  65.922  1.00  0.00    -0.071 OA 
HETATM   52  C   UNL     1      -6.816   7.420  65.049  1.00  0.00    -0.050 C  
HETATM   53  C   UNL     1      -7.966   8.310  64.542  1.00  0.00    -0.146 C  
HETATM   54  C   UNL     1      -6.098   6.954  63.733  1.00  0.00    -0.039 C  
HETATM   55  C   UNL     1      -5.793   8.305  65.786  1.00  0.00    -0.041 C  
ENDBRANCH  48  51
ENDBRANCH  40  47
ENDBRANCH  37  40
ENDBRANCH  35  37
ENDBRANCH  34  35
ENDBRANCH   8  34
BRANCH  22  56
HETATM   56  O   UNL     1      -6.662  12.560  66.731  1.00  0.00     0.015 OA 
HETATM   57  C   UNL     1      -6.372  11.508  67.679  1.00  0.00    -0.066 C  
ENDBRANCH  22  56
BRANCH  11  58
HETATM   58  O   UNL     1      -8.200  17.773  67.680  1.00  0.00    -0.225 OA 
HETATM   59  C   UNL     1      -6.944  18.115  67.070  1.00  0.00    -0.194 C  
ENDBRANCH  11  58
BRANCH   5  60
HETATM   60  O   UNL     1     -11.932  16.172  70.591  1.00  0.00    -0.320 OA 
BRANCH  60  61
HETATM   61  C   UNL     1     -11.869  16.614  71.851  1.00  0.00     0.000 C  
HETATM   62  C   UNL     1     -13.112  16.183  72.584  1.00  0.00    -0.330 C  
HETATM   63  O   UNL     1     -10.956  17.213  72.431  1.00  0.00     1.262 OA 
ENDBRANCH  60  61
ENDBRANCH   5  60
TORSDOF 14
ENDMDL
MODEL       47
REMARK 921   NORMALIZED FREE ENERGY PREDICTED BY IDOCK:    6.73 KCAL/MOL
REMARK 922        TOTAL FREE ENERGY PREDICTED BY IDOCK:    8.91 KCAL/MOL
REMARK 923 INTER-LIGAND FREE ENERGY PREDICTED BY IDOCK:    5.09 KCAL/MOL
REMARK 924 INTRA-LIGAND FREE ENERGY PREDICTED BY IDOCK:    3.82 KCAL/MOL
REMARK 927      BINDING AFFINITY PREDICTED BY RF-SCORE:    0.00 PKD
ROOT
HETATM    1  C   UNL     1      -8.404   7.808  69.441  1.00  0.00    -0.133 C  
HETATM    2  C   UNL     1      -7.583   9.453  68.825  1.00  0.00    -0.079 C  
HETATM    3  C   UNL     1      -5.590   9.846  65.761  1.00  0.00    -0.053 C  
HETATM    4  C   UNL     1      -7.498   9.420  67.264  1.00  0.00    -0.091 C  
HETATM    5  C   UNL     1      -8.415   7.671  70.996  1.00  0.00    -0.116 C  
HETATM    6  O   UNL     1      -8.308   8.301  67.402  1.00  0.00    -0.123 OA 
HETATM    7  C   UNL     1      -8.178  10.666  66.495  1.00  0.00    -0.138 C  
HETATM    8  C   UNL     1      -8.503  10.559  64.961  1.00  0.00    -0.163 C  
HETATM    9  C   UNL     1      -8.673   5.919  67.028  1.00  0.00    -0.109 C  
HETATM   10  H   UNL     1      -8.256   8.280  66.453  1.00  0.00     0.000 HD 
HETATM   11  C   UNL     1      -9.288   5.115  69.473  1.00  0.00    -0.130 C  
HETATM   12  C   UNL     1      -9.820   5.484  70.855  1.00  0.00    -0.241 C  
HETATM   13  C   UNL     1     -10.857   6.446  68.221  1.00  0.00    -0.384 C  
HETATM   14  C   UNL     1      -9.055   9.206  65.062  1.00  0.00    -0.215 C  
HETATM   15  C   UNL     1      -8.835   6.306  71.646  1.00  0.00    -0.138 C  
HETATM   16  C   UNL     1     -10.463   9.410  65.863  1.00  0.00     0.231 C  
HETATM   17  O   UNL     1      -7.465   5.848  71.685  1.00  0.00    -0.090 OA 
HETATM   18  C   UNL     1      -8.124   8.157  65.241  1.00  0.00    -0.136 C  
HETATM   19  C   UNL     1      -6.617   8.705  66.193  1.00  0.00    -0.061 C  
HETATM   20  C   UNL     1      -9.295   6.414  68.543  1.00  0.00    -0.122 C  
HETATM   21  O   UNL     1      -7.977   4.914  66.881  1.00  0.00    -0.102 OA 
HETATM   22  C   UNL     1      -9.042   6.848  65.740  1.00  0.00     0.060 C  
HETATM   23  C   UNL     1      -6.991   7.191  71.439  1.00  0.00    -0.064 C  
HETATM   24  C   UNL     1      -5.557   7.726  66.894  1.00  0.00    -0.032 C  
ENDROOT
BRANCH   2  25
HETATM   25  O   UNL     1      -8.163  10.923  69.034  1.00  0.00    -0.151 OA 
BRANCH  25  26
HETATM   26  C   UNL     1      -7.443  12.006  69.675  1.00  0.00     0.626 C  
HETATM   27  O   UNL     1      -7.358  11.985  70.904  1.00  0.00     2.660 OA 
BRANCH  26  28
HETATM   28  C   UNL     1      -6.996  13.440  68.968  1.00  0.00    -0.084 A  
HETATM   29  C   UNL     1      -6.707  15.120  67.075  1.00  0.00     0.389 A  
HETATM   30  C   UNL     1      -6.083  14.267  69.651  1.00  0.00    -0.120 A  
HETATM   31  C   UNL     1      -7.167  13.877  67.609  1.00  0.00    -0.187 A  
HETATM   32  C   UNL     1      -5.549  15.482  69.103  1.00  0.00    -0.104 A  
HETATM   33  C   UNL     1      -5.898  15.936  67.836  1.00  0.00    -0.155 A  
ENDBRANCH  26  28
ENDBRANCH  25  26
ENDBRANCH   2  25
BRANCH   8  34
HETATM   34  O   UNL     1      -9.538  11.426  64.359  1.00  0.00    -0.230 OA 
BRANCH  34  35
HETATM   35  C   UNL     1     -10.081  12.396  65.169  1.00  0.00    -0.256 C  
HETATM   36  O   UNL     1      -9.791  13.585  65.021  1.00  0.00    -0.194 OA 
BRANCH  35  37
HETATM   37  C   UNL     1     -10.896  11.957  66.439  1.00  0.00    -0.279 C  
HETATM   38  H   UNL     1     -12.795  11.988  66.968  1.00  0.00     0.000 HD 
HETATM   39  O   UNL     1     -12.303  12.253  66.200  1.00  0.00    -0.588 OA 
BRANCH  37  40
HETATM   40  C   UNL     1     -10.527  12.231  67.992  1.00  0.00    -0.218 C  
BRANCH  40  41
HETATM   41  C   UNL     1     -11.584  11.480  68.878  1.00  0.00    -0.384 A  
HETATM   42  C   UNL     1     -11.726  10.090  68.780  1.00  0.00     0.180 A  
HETATM   43  C   UNL     1     -12.282  12.137  69.918  1.00  0.00    -0.240 A  
HETATM   44  C   UNL     1     -13.115  11.443  70.832  1.00  0.00    -0.061 A  
HETATM   45  C   UNL     1     -12.575   9.403  69.693  1.00  0.00     1.437 A  
HETATM   46  C   UNL     1     -13.253  10.053  70.679  1.00  0.00    -0.174 A  
ENDBRANCH  40  41
BRANCH  40  47
HETATM   47  N   UNL     1     -10.107  13.626  68.569  1.00  0.00    -0.254 N  
HETATM   48  C   UNL     1     -10.780  14.489  69.480  1.00  0.00    -0.146 C  
HETATM   49  H   UNL     1      -9.206  13.972  68.239  1.00  0.00     0.000 HD 
HETATM   50  O   UNL     1     -11.759  14.135  70.121  1.00  0.00    -0.281 OA 
BRANCH  48  51
HETATM   51  O   UNL     1     -10.231  15.788  69.571  1.00  0.00    -0.234 OA 
HETATM   52  C   UNL     1     -10.487  16.990  68.645  1.00  0.00    -0.363 C  
HETATM   53  C   UNL     1     -10.309  16.727  67.138  1.00  0.00    -0.297 C  
HETATM   54  C   UNL     1      -9.489  18.167  68.938  1.00  0.00    -0.216 C  
HETATM   55  C   UNL     1     -11.893  17.573  68.883  1.00  0.00     2.362 C  
ENDBRANCH  48  51
ENDBRANCH  40  47
ENDBRANCH  37  40
ENDBRANCH  35  37
ENDBRANCH  34  35
ENDBRANCH   8  34
BRANCH  22  56
HETATM   56  O   UNL     1      -9.766   6.247  64.642  1.00  0.00     1.399 OA 
HETATM   57  C   UNL     1      -9.721   4.803  64.616  1.00  0.00     0.120 C  
ENDBRANCH  22  56
BRANCH  11  58
HETATM   58  O   UNL     1      -8.053   4.409  69.554  1.00  0.00    -0.060 OA 
HETATM   59  C   UNL     1      -8.158   3.214  70.344  1.00  0.00    -0.045 C  
ENDBRANCH  11  58
BRANCH   5  60
HETATM   60  O   UNL     1      -8.885   8.909  71.559  1.00  0.00    -0.214 OA 
BRANCH  60  61
HETATM   61  C   UNL     1     -10.000   8.940  72.295  1.00  0.00    -0.112 C  
HETATM   62  C   UNL     1     -10.605  10.317  72.214  1.00  0.00     4.325 C  
HETATM   63  O   UNL     1     -10.563   8.026  72.910  1.00  0.00    -0.339 OA 
ENDBRANCH  60  61
ENDBRANCH   5  60
TORSDOF 14
ENDMDL
MODEL       48
REMARK 921   NORMALIZED FREE ENERGY PREDICTED BY IDOCK:    7.66 KCAL/MOL
REMARK 922        TOTAL FREE ENERGY PREDICTED BY IDOCK:   10.60 KCAL/MOL
REMARK 923 INTER-LIGAND FREE ENERGY PREDICTED BY IDOCK:    4.35 KCAL/MOL
REMARK 924 INTRA-LIGAND FREE ENERGY PREDICTED BY IDOCK:    6.25 KCAL/MOL
REMARK 927      BINDING AFFINITY PREDICTED BY RF-SCORE:    0.00 PKD
ROOT
HETATM    1  C   UNL     1      -8.203   7.341  68.370  1.00  0.00    -0.125 C  
HETATM    2  C   UNL     1      -8.311   8.737  67.030  1.00  0.00    -0.103 C  
HETATM    3  C   UNL     1     -11.403  10.268  65.762  1.00  0.00     1.224 C  
HETATM    4  C   UNL     1      -9.592   9.592  67.294  1.00  0.00    -0.150 C  
HETATM    5  C   UNL     1      -7.033   6.338  68.123  1.00  0.00    -0.080 C  
HETATM    6  O   UNL     1      -9.635   8.873  68.481  1.00  0.00    -0.153 OA 
HETATM    7  C   UNL     1      -9.358  11.180  67.463  1.00  0.00    -0.174 C  
HETATM    8  C   UNL     1     -10.477  12.074  68.110  1.00  0.00    -0.202 C  
HETATM    9  C   UNL     1     -10.829   7.360  69.973  1.00  0.00    -0.252 C  
HETATM   10  H   UNL     1     -10.414   9.392  68.642  1.00  0.00     0.000 HD 
HETATM   11  C   UNL     1      -8.994   5.494  70.370  1.00  0.00    -0.139 C  
HETATM   12  C   UNL     1      -7.513   5.123  70.374  1.00  0.00    -0.067 C  
HETATM   13  C   UNL     1      -8.724   7.670  71.367  1.00  0.00    -0.132 C  
HETATM   14  C   UNL     1     -10.762  11.128  69.191  1.00  0.00    -0.262 C  
HETATM   15  C   UNL     1      -6.945   5.028  68.981  1.00  0.00    -0.052 C  
HETATM   16  C   UNL     1      -9.440  11.205  70.146  1.00  0.00     1.711 C  
HETATM   17  O   UNL     1      -7.701   4.279  68.003  1.00  0.00    -0.074 OA 
HETATM   18  C   UNL     1     -11.481   9.963  68.835  1.00  0.00     0.022 C  
HETATM   19  C   UNL     1     -11.130   9.421  67.085  1.00  0.00     0.218 C  
HETATM   20  C   UNL     1      -9.149   7.032  69.969  1.00  0.00    -0.145 C  
HETATM   21  O   UNL     1     -11.686   6.482  69.868  1.00  0.00    -0.406 OA 
HETATM   22  C   UNL     1     -11.276   8.920  70.129  1.00  0.00    -0.160 C  
HETATM   23  C   UNL     1      -7.503   5.325  67.024  1.00  0.00    -0.087 C  
HETATM   24  C   UNL     1     -11.462   7.975  66.479  1.00  0.00     2.945 C  
ENDROOT
BRANCH   2  25
HETATM   25  O   UNL     1      -7.248   9.904  66.807  1.00  0.00    -0.089 OA 
BRANCH  25  26
HETATM   26  C   UNL     1      -7.563  11.207  66.255  1.00  0.00    -0.075 C  
HETATM   27  O   UNL     1      -7.857  11.264  65.060  1.00  0.00     0.382 OA 
BRANCH  26  28
HETATM   28  C   UNL     1      -7.260  12.674  66.970  1.00  0.00     0.064 A  
HETATM   29  C   UNL     1      -6.444  15.084  67.101  1.00  0.00     0.360 A  
HETATM   30  C   UNL     1      -7.249  12.743  68.378  1.00  0.00    -0.115 A  
HETATM   31  C   UNL     1      -6.714  13.873  66.393  1.00  0.00     3.401 A  
HETATM   32  C   UNL     1      -6.908  13.930  69.111  1.00  0.00    -0.108 A  
HETATM   33  C   UNL     1      -6.554  15.114  68.475  1.00  0.00    -0.099 A  
ENDBRANCH  26  28
ENDBRANCH  25  26
ENDBRANCH   2  25
BRANCH   8  34
HETATM   34  O   UNL     1     -10.127  13.372  68.726  1.00  0.00    -0.192 OA 
BRANCH  34  35
HETATM   35  C   UNL     1     -11.080  13.952  69.531  1.00  0.00    -0.128 C  
HETATM   36  O   UNL     1     -12.153  13.387  69.756  1.00  0.00    -0.322 OA 
BRANCH  35  37
HETATM   37  C   UNL     1     -10.891  15.446  69.977  1.00  0.00    -0.305 C  
HETATM   38  H   UNL     1     -11.724  16.627  71.319  1.00  0.00     0.000 HD 
HETATM   39  O   UNL     1     -11.838  15.723  71.049  1.00  0.00    -0.350 OA 
BRANCH  37  40
HETATM   40  C   UNL     1     -10.734  16.748  69.026  1.00  0.00    -0.331 C  
BRANCH  40  41
HETATM   41  C   UNL     1     -10.857  16.273  67.534  1.00  0.00    -0.268 A  
HETATM   42  C   UNL     1     -11.474  15.053  67.232  1.00  0.00    -0.312 A  
HETATM   43  C   UNL     1     -10.527  17.125  66.454  1.00  0.00    -0.255 A  
HETATM   44  C   UNL     1     -10.785  16.777  65.105  1.00  0.00    -0.159 A  
HETATM   45  C   UNL     1     -11.717  14.704  65.873  1.00  0.00    -0.301 A  
HETATM   46  C   UNL     1     -11.378  15.530  64.843  1.00  0.00    -0.339 A  
ENDBRANCH  40  41
BRANCH  40  47
HETATM   47  N   UNL     1      -9.665  17.874  69.237  1.00  0.00    -0.076 N  
HETATM   48  C   UNL     1      -9.791  19.173  69.805  1.00  0.00     0.387 C  
HETATM   49  H   UNL     1      -8.726  17.638  68.915  1.00  0.00     0.000 HD 
HETATM   50  O   UNL     1     -10.788  19.529  70.418  1.00  0.00     1.439 OA 
BRANCH  48  51
HETATM   51  O   UNL     1      -8.679  20.018  69.590  1.00  0.00     0.310 OA 
HETATM   52  C   UNL     1      -7.252  19.618  69.176  1.00  0.00    -0.327 C  
HETATM   53  C   UNL     1      -6.592  18.512  70.022  1.00  0.00     0.168 C  
HETATM   54  C   UNL     1      -6.255  20.825  69.298  1.00  0.00    -0.112 C  
HETATM   55  C   UNL     1      -7.211  19.197  67.694  1.00  0.00    -0.246 C  
ENDBRANCH  48  51
ENDBRANCH  40  47
ENDBRANCH  37  40
ENDBRANCH  35  37
ENDBRANCH  34  35
ENDBRANCH   8  34
BRANCH  22  56
HETATM   56  O   UNL     1     -12.100   9.290  71.257  1.00  0.00    -0.303 OA 
HETATM   57  C   UNL     1     -11.928   8.455  72.424  1.00  0.00    -0.384 C  
ENDBRANCH  22  56
BRANCH  11  58
HETATM   58  O   UNL     1      -9.769   4.568  69.615  1.00  0.00    -0.186 OA 
HETATM   59  C   UNL     1      -9.748   3.248  70.182  1.00  0.00    -0.026 C  
ENDBRANCH  11  58
BRANCH   5  60
HETATM   60  O   UNL     1      -5.840   7.092  67.839  1.00  0.00    -0.024 OA 
BRANCH  60  61
HETATM   61  C   UNL     1      -5.445   8.070  68.660  1.00  0.00    -0.031 C  
HETATM   62  C   UNL     1      -5.262   7.505  70.044  1.00  0.00    -0.023 C  
HETATM   63  O   UNL     1      -5.172   9.250  68.406  1.00  0.00    -0.034 OA 
ENDBRANCH  60  61
ENDBRANCH   5  60
TORSDOF 14
ENDMDL
MODEL       49
REMARK 921   NORMALIZED FREE ENERGY PREDICTED BY IDOCK:    8.61 KCAL/MOL
REMARK 922        TOTAL FREE ENERGY PREDICTED BY IDOCK:   12.34 KCAL/MOL
REMARK 923 INTER-LIGAND FREE ENERGY PREDICTED BY IDOCK:    7.44 KCAL/MOL
REMARK 924 INTRA-LIGAND FREE ENERGY PREDICTED BY IDOCK:    4.90 KCAL/MOL
REMARK 927      BINDING AFFINITY PREDICTED BY RF-SCORE:    0.00 PKD
ROOT
HETATM    1  C   UNL     1      -9.826  16.039  67.632  1.00  0.00    -0.235 C  
HETATM    2  C   UNL     1      -9.878  14.894  69.195  1.00  0.00    -0.199 C  
HETATM    3  C   UNL     1     -11.658  11.688  69.454  1.00  0.00    -0.392 C  
HETATM    4  C   UNL     1     -10.051  13.412  68.729  1.00  0.00    -0.085 C  
HETATM    5  C   UNL     1      -9.794  17.560  67.983  1.00  0.00    -0.299 C  
HETATM    6  O   UNL     1      -9.805  13.945  67.471  1.00  0.00    -0.229 OA 
HETATM    7  C   UNL     1      -8.937  12.372  69.262  1.00  0.00     0.920 C  
HETATM    8  C   UNL     1      -8.772  10.973  68.563  1.00  0.00    -0.159 C  
HETATM    9  C   UNL     1     -10.535  14.326  65.176  1.00  0.00    -0.411 C  
HETATM   10  H   UNL     1      -9.910  13.045  67.187  1.00  0.00     0.000 HD 
HETATM   11  C   UNL     1     -10.205  16.945  64.972  1.00  0.00     0.548 C  
HETATM   12  C   UNL     1      -9.493  18.197  65.477  1.00  0.00     0.878 C  
HETATM   13  C   UNL     1      -8.281  15.498  65.047  1.00  0.00     5.387 C  
HETATM   14  C   UNL     1      -8.861  11.517  67.207  1.00  0.00    -0.160 C  
HETATM   15  C   UNL     1      -9.978  18.619  66.841  1.00  0.00    -0.345 C  
HETATM   16  C   UNL     1      -7.465  12.343  67.017  1.00  0.00    -0.037 C  
HETATM   17  O   UNL     1     -11.406  18.671  67.053  1.00  0.00     0.173 OA 
HETATM   18  C   UNL     1     -10.146  11.917  66.771  1.00  0.00    -0.225 C  
HETATM   19  C   UNL     1     -11.211  12.527  68.174  1.00  0.00    -0.312 C  
HETATM   20  C   UNL     1      -9.680  15.676  65.790  1.00  0.00    -0.380 C  
HETATM   21  O   UNL     1     -11.606  14.423  64.577  1.00  0.00    -0.393 OA 
HETATM   22  C   UNL     1      -9.866  12.859  65.415  1.00  0.00    -0.118 C  
HETATM   23  C   UNL     1     -11.259  17.997  68.323  1.00  0.00     0.582 C  
HETATM   24  C   UNL     1     -12.553  13.390  68.012  1.00  0.00     0.658 C  
ENDROOT
BRANCH   2  25
HETATM   25  O   UNL     1      -8.706  14.709  70.258  1.00  0.00     0.742 OA 
BRANCH  25  26
HETATM   26  C   UNL     1      -7.292  14.769  69.942  1.00  0.00     0.005 C  
HETATM   27  O   UNL     1      -6.533  14.040  70.582  1.00  0.00    -0.077 OA 
BRANCH  26  28
HETATM   28  C   UNL     1      -6.539  15.940  69.038  1.00  0.00    -0.142 A  
HETATM   29  C   UNL     1      -5.569  18.243  68.541  1.00  0.00    -0.176 A  
HETATM   30  C   UNL     1      -6.467  15.765  67.642  1.00  0.00    -0.190 A  
HETATM   31  C   UNL     1      -6.178  17.283  69.406  1.00  0.00    -0.245 A  
HETATM   32  C   UNL     1      -5.926  16.748  66.746  1.00  0.00    -0.154 A  
HETATM   33  C   UNL     1      -5.432  17.966  67.197  1.00  0.00    -0.158 A  
ENDBRANCH  26  28
ENDBRANCH  25  26
ENDBRANCH   2  25
BRANCH   8  34
HETATM   34  O   UNL     1      -7.496  10.235  68.672  1.00  0.00    -0.080 OA 
BRANCH  34  35
HETATM   35  C   UNL     1      -7.243   9.609  69.870  1.00  0.00    -0.106 C  
HETATM   36  O   UNL     1      -7.582  10.121  70.940  1.00  0.00    -0.111 OA 
BRANCH  35  37
HETATM   37  C   UNL     1      -6.310   8.345  69.886  1.00  0.00    -0.035 C  
HETATM   38  H   UNL     1      -4.566   7.877  69.095  1.00  0.00     0.000 HD 
HETATM   39  O   UNL     1      -5.130   8.642  69.085  1.00  0.00    -0.034 OA 
BRANCH  37  40
HETATM   40  C   UNL     1      -6.741   6.797  69.686  1.00  0.00    -0.050 C  
BRANCH  40  41
HETATM   41  C   UNL     1      -8.120   6.774  68.934  1.00  0.00    -0.120 A  
HETATM   42  C   UNL     1      -9.247   6.214  69.546  1.00  0.00    -0.143 A  
HETATM   43  C   UNL     1      -8.313   7.473  67.719  1.00  0.00    -0.119 A  
HETATM   44  C   UNL     1      -9.587   7.602  67.111  1.00  0.00    -0.211 A  
HETATM   45  C   UNL     1     -10.522   6.336  68.921  1.00  0.00    -0.280 A  
HETATM   46  C   UNL     1     -10.688   6.998  67.742  1.00  0.00    -0.300 A  
ENDBRANCH  40  41
BRANCH  40  47
HETATM   47  N   UNL     1      -6.615   5.693  70.792  1.00  0.00    -0.042 N  
HETATM   48  C   UNL     1      -7.010   5.707  72.159  1.00  0.00    -0.081 C  
HETATM   49  H   UNL     1      -6.180   4.825  70.481  1.00  0.00     0.000 HD 
HETATM   50  O   UNL     1      -7.723   6.582  72.630  1.00  0.00    -0.101 OA 
BRANCH  48  51
HETATM   51  O   UNL     1      -6.500   4.636  72.928  1.00  0.00    -0.038 OA 
HETATM   52  C   UNL     1      -6.759   3.130  72.742  1.00  0.00    -0.026 C  
HETATM   53  C   UNL     1      -8.237   2.710  72.639  1.00  0.00    -0.059 C  
HETATM   54  C   UNL     1      -6.219   2.297  73.958  1.00  0.00    -0.008 C  
HETATM   55  C   UNL     1      -6.006   2.596  71.508  1.00  0.00    -0.014 C  
ENDBRANCH  48  51
ENDBRANCH  40  47
ENDBRANCH  37  40
ENDBRANCH  35  37
ENDBRANCH  34  35
ENDBRANCH   8  34
BRANCH  22  56
HETATM   56  O   UNL     1      -9.535  12.057  64.258  1.00  0.00    -0.030 OA 
HETATM   57  C   UNL     1     -10.471  12.173  63.163  1.00  0.00    -0.166 C  
ENDBRANCH  22  56
BRANCH  11  58
HETATM   58  O   UNL     1     -11.618  17.122  64.929  1.00  0.00    -0.048 OA 
HETATM   59  C   UNL     1     -12.328  15.890  65.139  1.00  0.00     1.080 C  
ENDBRANCH  11  58
BRANCH   5  60
HETATM   60  O   UNL     1      -8.802  17.770  69.005  1.00  0.00    -0.162 OA 
BRANCH  60  61
HETATM   61  C   UNL     1      -8.806  18.891  69.733  1.00  0.00     0.889 C  
HETATM   62  C   UNL     1      -8.591  20.070  68.821  1.00  0.00     0.044 C  
HETATM   63  O   UNL     1      -9.020  19.044  70.942  1.00  0.00     3.017 OA 
ENDBRANCH  60  61
ENDBRANCH   5  60
TORSDOF 14
ENDMDL
MODEL       50
REMARK 921   NORMALIZED FREE ENERGY PREDICTED BY IDOCK:   10.12 KCAL/MOL
REMARK 922        TOTAL FREE ENERGY PREDICTED BY IDOCK:   15.07 KCAL/MOL
REMARK 923 INTER-LIGAND FREE ENERGY PREDICTED BY IDOCK:    9.25 KCAL/MOL
REMARK 924 INTRA-LIGAND FREE ENERGY PREDICTED BY IDOCK:    5.82 KCAL/MOL
REMARK 927      BINDING AFFINITY PREDICTED BY RF-SCORE:    0.00 PKD
ROOT
HETATM    1  C   UNL     1      -8.791  17.180  67.158  1.00  0.00    -0.232 C  
HETATM    2  C   UNL     1      -8.515  15.262  67.187  1.00  0.00    -0.209 C  
HETATM    3  C   UNL     1      -7.663  13.255  70.147  1.00  0.00     2.166 C  
HETATM    4  C   UNL     1      -8.907  14.716  68.598  1.00  0.00    -0.183 C  
HETATM    5  C   UNL     1      -8.300  17.854  65.839  1.00  0.00     0.091 C  
HETATM    6  O   UNL     1      -9.416  15.996  68.776  1.00  0.00    -0.206 OA 
HETATM    7  C   UNL     1     -10.005  13.533  68.616  1.00  0.00    -0.149 C  
HETATM    8  C   UNL     1     -10.760  13.183  69.950  1.00  0.00     0.797 C  
HETATM    9  C   UNL     1      -9.436  18.089  70.026  1.00  0.00     1.558 C  
HETATM   10  H   UNL     1      -9.655  15.664  69.634  1.00  0.00     0.000 HD 
HETATM   11  C   UNL     1      -9.114  19.844  68.072  1.00  0.00    -0.299 C  
HETATM   12  C   UNL     1      -9.255  20.157  66.585  1.00  0.00    -0.467 C  
HETATM   13  C   UNL     1     -11.207  18.673  68.297  1.00  0.00     0.769 C  
HETATM   14  C   UNL     1     -10.998  14.582  70.311  1.00  0.00    -0.005 C  
HETATM   15  C   UNL     1      -8.243  19.418  65.747  1.00  0.00     0.040 C  
HETATM   16  C   UNL     1     -12.105  15.091  69.225  1.00  0.00    -0.282 C  
HETATM   17  O   UNL     1      -6.868  19.443  66.190  1.00  0.00    -0.210 OA 
HETATM   18  C   UNL     1      -9.880  15.308  70.785  1.00  0.00     0.874 C  
HETATM   19  C   UNL     1      -8.281  14.720  70.028  1.00  0.00     0.531 C  
HETATM   20  C   UNL     1      -9.644  18.363  68.350  1.00  0.00    -0.366 C  
HETATM   21  O   UNL     1      -8.648  18.730  70.721  1.00  0.00     3.309 OA 
HETATM   22  C   UNL     1     -10.346  16.915  70.700  1.00  0.00     1.254 C  
HETATM   23  C   UNL     1      -6.746  18.023  65.944  1.00  0.00    -0.288 C  
HETATM   24  C   UNL     1      -6.897  15.530  70.038  1.00  0.00    -0.020 C  
ENDROOT
BRANCH   2  25
HETATM   25  O   UNL     1      -9.261  14.195  66.267  1.00  0.00    -0.227 OA 
BRANCH  25  26
HETATM   26  C   UNL     1      -8.852  12.812  66.116  1.00  0.00     0.249 C  
HETATM   27  O   UNL     1      -7.837  12.450  66.713  1.00  0.00    -0.066 OA 
BRANCH  26  28
HETATM   28  C   UNL     1      -9.412  11.743  64.977  1.00  0.00    -0.080 A  
HETATM   29  C   UNL     1      -9.285   9.792  63.344  1.00  0.00    -0.217 A  
HETATM   30  C   UNL     1     -10.592  12.067  64.278  1.00  0.00    -0.377 A  
HETATM   31  C   UNL     1      -8.735  10.637  64.356  1.00  0.00    -0.145 A  
HETATM   32  C   UNL     1     -11.123  11.272  63.207  1.00  0.00    -0.091 A  
HETATM   33  C   UNL     1     -10.499  10.109  62.771  1.00  0.00     1.420 A  
ENDBRANCH  26  28
ENDBRANCH  25  26
ENDBRANCH   2  25
BRANCH   8  34
HETATM   34  O   UNL     1     -12.070  12.499  69.904  1.00  0.00    -0.304 OA 
BRANCH  34  35
HETATM   35  C   UNL     1     -12.501  11.910  71.070  1.00  0.00    -0.290 C  
HETATM   36  O   UNL     1     -12.484  12.526  72.138  1.00  0.00     0.160 OA 
BRANCH  35  37
HETATM   37  C   UNL     1     -12.801  10.368  71.078  1.00  0.00    -0.401 C  
HETATM   38  H   UNL     1     -13.323   9.046  72.444  1.00  0.00     0.000 HD 
HETATM   39  O   UNL     1     -13.142   9.979  72.440  1.00  0.00    -0.351 OA 
BRANCH  37  40
HETATM   40  C   UNL     1     -11.946   9.193  70.362  1.00  0.00     0.055 C  
BRANCH  40  41
HETATM   41  C   UNL     1     -11.803   8.010  71.386  1.00  0.00    -0.326 A  
HETATM   42  C   UNL     1     -11.775   6.686  70.933  1.00  0.00    -0.431 A  
HETATM   43  C   UNL     1     -11.512   8.242  72.751  1.00  0.00    -0.338 A  
HETATM   44  C   UNL     1     -11.216   7.190  73.654  1.00  0.00     0.357 A  
HETATM   45  C   UNL     1     -11.491   5.634  71.850  1.00  0.00    -0.163 A  
HETATM   46  C   UNL     1     -11.229   5.873  73.165  1.00  0.00    -0.214 A  
ENDBRANCH  40  41
BRANCH  40  47
HETATM   47  N   UNL     1     -10.659   9.433  69.501  1.00  0.00    -0.217 N  
HETATM   48  C   UNL     1     -10.516   9.914  68.169  1.00  0.00    -0.215 C  
HETATM   49  H   UNL     1      -9.782   9.209  69.971  1.00  0.00     0.000 HD 
HETATM   50  O   UNL     1     -11.442  10.417  67.547  1.00  0.00    -0.386 OA 
BRANCH  48  51
HETATM   51  O   UNL     1      -9.224   9.751  67.622  1.00  0.00    -0.131 OA 
HETATM   52  C   UNL     1      -8.264   8.560  67.799  1.00  0.00    -0.122 C  
HETATM   53  C   UNL     1      -8.001   8.119  69.251  1.00  0.00    -0.115 C  
HETATM   54  C   UNL     1      -6.832   8.885  67.242  1.00  0.00    -0.077 C  
HETATM   55  C   UNL     1      -8.753   7.341  66.993  1.00  0.00    -0.123 C  
ENDBRANCH  48  51
ENDBRANCH  40  47
ENDBRANCH  37  40
ENDBRANCH  35  37
ENDBRANCH  34  35
ENDBRANCH   8  34
BRANCH  22  56
HETATM   56  O   UNL     1     -11.248  17.273  71.771  1.00  0.00     0.575 OA 
HETATM   57  C   UNL     1     -11.734  16.153  72.544  1.00  0.00    -0.421 C  
ENDBRANCH  22  56
BRANCH  11  58
HETATM   58  O   UNL     1      -7.807  20.143  68.553  1.00  0.00    -0.177 OA 
HETATM   59  C   UNL     1      -7.238  19.053  69.297  1.00  0.00    -0.212 C  
ENDBRANCH  11  58
BRANCH   5  60
HETATM   60  O   UNL     1      -8.793  17.086  64.725  1.00  0.00     2.558 OA 
BRANCH  60  61
HETATM   61  C   UNL     1     -10.010  16.537  64.766  1.00  0.00     1.395 C  
HETATM   62  C   UNL     1     -11.001  17.573  65.231  1.00  0.00     0.232 C  
HETATM   63  O   UNL     1     -10.376  15.405  64.425  1.00  0.00    -0.008 OA 
ENDBRANCH  60  61
ENDBRANCH   5  60
TORSDOF 14
ENDMDL
MODEL       51
REMARK 921   NORMALIZED FREE ENERGY PREDICTED BY IDOCK:   11.83 KCAL/MOL
REMARK 922        TOTAL FREE ENERGY PREDICTED BY IDOCK:   18.18 KCAL/MOL
REMARK 923 INTER-LIGAND FREE ENERGY PREDICTED BY IDOCK:    7.90 KCAL/MOL
REMARK 924 INTRA-LIGAND FREE ENERGY PREDICTED BY IDOCK:   10.29 KCAL/MOL
REMARK 927      BINDING AFFINITY PREDICTED BY RF-SCORE:    0.00 PKD
ROOT
HETATM    1  C   UNL     1      -8.520   8.737  67.961  1.00  0.00    -0.126 C  
HETATM    2  C   UNL     1      -9.862  10.043  67.459  1.00  0.00    -0.175 C  
HETATM    3  C   UNL     1     -11.603  12.329  69.752  1.00  0.00    -0.314 C  
HETATM    4  C   UNL     1      -9.804  11.238  68.465  1.00  0.00    -0.197 C  
HETATM    5  C   UNL     1      -8.579   7.433  67.105  1.00  0.00    -0.118 C  
HETATM    6  O   UNL     1      -8.638  10.617  68.891  1.00  0.00    -0.145 OA 
HETATM    7  C   UNL     1      -9.602  12.700  67.811  1.00  0.00    -0.197 C  
HETATM    8  C   UNL     1      -9.140  13.905  68.710  1.00  0.00    -0.002 C  
HETATM    9  C   UNL     1      -7.351   9.576  70.681  1.00  0.00    -0.120 C  
HETATM   10  H   UNL     1      -8.603  11.343  69.503  1.00  0.00     0.000 HD 
HETATM   11  C   UNL     1      -6.668   7.286  69.542  1.00  0.00    -0.045 C  
HETATM   12  C   UNL     1      -6.431   6.510  68.249  1.00  0.00    -0.049 C  
HETATM   13  C   UNL     1      -5.643   9.339  68.811  1.00  0.00    -0.040 C  
HETATM   14  C   UNL     1      -8.117  13.129  69.414  1.00  0.00     0.860 C  
HETATM   15  C   UNL     1      -7.717   6.193  67.529  1.00  0.00    -0.097 C  
HETATM   16  C   UNL     1      -6.965  12.871  68.286  1.00  0.00    -0.099 C  
HETATM   17  O   UNL     1      -8.801   5.646  68.312  1.00  0.00    -0.109 OA 
HETATM   18  C   UNL     1      -8.581  12.202  70.376  1.00  0.00     5.268 C  
HETATM   19  C   UNL     1     -10.252  11.502  69.937  1.00  0.00     0.924 C  
HETATM   20  C   UNL     1      -7.091   8.785  69.185  1.00  0.00    -0.063 C  
HETATM   21  O   UNL     1      -7.589   8.974  71.728  1.00  0.00    -0.321 OA 
HETATM   22  C   UNL     1      -7.270  11.204  70.678  1.00  0.00     1.781 C  
HETATM   23  C   UNL     1      -9.737   6.545  67.676  1.00  0.00    -0.123 C  
HETATM   24  C   UNL     1     -10.903  10.183  70.576  1.00  0.00    -0.340 C  
ENDROOT
BRANCH   2  25
HETATM   25  O   UNL     1      -9.915  10.848  66.085  1.00  0.00    -0.216 OA 
BRANCH  25  26
HETATM   26  C   UNL     1      -8.749  11.260  65.328  1.00  0.00     0.050 C  
HETATM   27  O   UNL     1      -8.831  12.304  64.679  1.00  0.00     0.801 OA 
BRANCH  26  28
HETATM   28  C   UNL     1      -7.425  10.322  64.979  1.00  0.00    -0.120 A  
HETATM   29  C   UNL     1      -5.889   8.900  63.527  1.00  0.00    -0.076 A  
HETATM   30  C   UNL     1      -6.706   9.754  66.049  1.00  0.00    -0.087 A  
HETATM   31  C   UNL     1      -7.029   9.737  63.726  1.00  0.00    -0.119 A  
HETATM   32  C   UNL     1      -5.604   8.851  65.873  1.00  0.00    -0.045 A  
HETATM   33  C   UNL     1      -5.162   8.461  64.614  1.00  0.00    -0.036 A  
ENDBRANCH  26  28
ENDBRANCH  25  26
ENDBRANCH   2  25
BRANCH   8  34
HETATM   34  O   UNL     1      -8.478  15.076  68.098  1.00  0.00    -0.143 OA 
BRANCH  34  35
HETATM   35  C   UNL     1      -8.531  15.172  66.728  1.00  0.00    -0.237 C  
HETATM   36  O   UNL     1      -7.727  15.870  66.106  1.00  0.00     0.086 OA 
BRANCH  35  37
HETATM   37  C   UNL     1      -9.769  14.569  65.971  1.00  0.00    -0.303 C  
HETATM   38  H   UNL     1     -10.780  15.031  64.342  1.00  0.00     0.000 HD 
HETATM   39  O   UNL     1     -10.031  15.395  64.799  1.00  0.00    -0.222 OA 
BRANCH  37  40
HETATM   40  C   UNL     1     -11.165  14.058  66.613  1.00  0.00    -0.323 C  
BRANCH  40  41
HETATM   41  C   UNL     1     -12.107  13.624  65.433  1.00  0.00    -0.429 A  
HETATM   42  C   UNL     1     -12.359  14.502  64.373  1.00  0.00    -0.437 A  
HETATM   43  C   UNL     1     -12.571  12.293  65.305  1.00  0.00     0.068 A  
HETATM   44  C   UNL     1     -13.283  11.843  64.165  1.00  0.00     0.272 A  
HETATM   45  C   UNL     1     -13.087  14.045  63.237  1.00  0.00     2.029 A  
HETATM   46  C   UNL     1     -13.541  12.765  63.137  1.00  0.00     2.462 A  
ENDBRANCH  40  41
BRANCH  40  47
HETATM   47  N   UNL     1     -11.920  14.781  67.780  1.00  0.00    -0.535 N  
HETATM   48  C   UNL     1     -11.785  16.104  68.287  1.00  0.00    -0.074 C  
HETATM   49  H   UNL     1     -12.621  14.211  68.254  1.00  0.00     0.000 HD 
HETATM   50  O   UNL     1     -11.145  16.970  67.706  1.00  0.00    -0.263 OA 
BRANCH  48  51
HETATM   51  O   UNL     1     -12.438  16.330  69.519  1.00  0.00     0.048 OA 
HETATM   52  C   UNL     1     -12.293  15.532  70.828  1.00  0.00    -0.414 C  
HETATM   53  C   UNL     1     -12.464  14.007  70.707  1.00  0.00    -0.442 C  
HETATM   54  C   UNL     1     -13.382  15.947  71.880  1.00  0.00    -0.306 C  
HETATM   55  C   UNL     1     -10.937  15.826  71.499  1.00  0.00    -0.017 C  
ENDBRANCH  48  51
ENDBRANCH  40  47
ENDBRANCH  37  40
ENDBRANCH  35  37
ENDBRANCH  34  35
ENDBRANCH   8  34
BRANCH  22  56
HETATM   56  O   UNL     1      -6.285  11.845  71.521  1.00  0.00     0.561 OA 
HETATM   57  C   UNL     1      -5.435  12.791  70.834  1.00  0.00    -0.173 C  
ENDBRANCH  22  56
BRANCH  11  58
HETATM   58  O   UNL     1      -7.536   6.584  70.427  1.00  0.00    -0.089 OA 
HETATM   59  C   UNL     1      -6.818   5.722  71.326  1.00  0.00    -0.062 C  
ENDBRANCH  11  58
BRANCH   5  60
HETATM   60  O   UNL     1      -8.671   7.803  65.717  1.00  0.00    -0.156 OA 
BRANCH  60  61
HETATM   61  C   UNL     1      -8.731   6.865  64.768  1.00  0.00     0.342 C  
HETATM   62  C   UNL     1      -8.578   7.519  63.420  1.00  0.00     0.446 C  
HETATM   63  O   UNL     1      -8.816   5.636  64.880  1.00  0.00    -0.095 OA 
ENDBRANCH  60  61
ENDBRANCH   5  60
TORSDOF 14
ENDMDL
MODEL       52
REMARK 921   NORMALIZED FREE ENERGY PREDICTED BY IDOCK:   12.24 KCAL/MOL
REMARK 922        TOTAL FREE ENERGY PREDICTED BY IDOCK:   18.93 KCAL/MOL
REMARK 923 INTER-LIGAND FREE ENERGY PREDICTED BY IDOCK:    8.79 KCAL/MOL
REMARK 924 INTRA-LIGAND FREE ENERGY PREDICTED BY IDOCK:   10.14 KCAL/MOL
REMARK 927      BINDING AFFINITY PREDICTED BY RF-SCORE:    0.00 PKD
ROOT
HETATM    1  C   UNL     1      -9.758  10.060  66.657  1.00  0.00    -0.246 C  
HETATM    2  C   UNL     1     -10.771   8.808  67.735  1.00  0.00    -0.125 C  
HETATM    3  C   UNL     1     -10.555   5.143  67.547  1.00  0.00    -0.085 C  
HETATM    4  C   UNL     1      -9.932   7.501  67.912  1.00  0.00    -0.165 C  
HETATM    5  C   UNL     1     -10.557  11.352  66.299  1.00  0.00    -0.263 C  
HETATM    6  O   UNL     1      -8.918   8.265  67.350  1.00  0.00    -0.132 OA 
HETATM    7  C   UNL     1      -9.673   7.031  69.434  1.00  0.00    -0.159 C  
HETATM    8  C   UNL     1      -8.541   5.988  69.751  1.00  0.00    -0.130 C  
HETATM    9  C   UNL     1      -7.280   8.593  65.575  1.00  0.00    -0.084 C  
HETATM   10  H   UNL     1      -8.408   7.470  67.457  1.00  0.00     0.000 HD 
HETATM   11  C   UNL     1      -7.851  11.064  64.815  1.00  0.00     0.459 C  
HETATM   12  C   UNL     1      -8.462  12.414  65.177  1.00  0.00     1.780 C  
HETATM   13  C   UNL     1      -6.775  10.682  66.936  1.00  0.00    -0.091 C  
HETATM   14  C   UNL     1      -7.559   6.620  68.868  1.00  0.00    -0.101 C  
HETATM   15  C   UNL     1      -9.967  12.359  65.251  1.00  0.00    -0.215 C  
HETATM   16  C   UNL     1      -7.183   8.017  69.625  1.00  0.00    -0.066 C  
HETATM   17  O   UNL     1     -10.663  11.710  64.163  1.00  0.00    -0.307 OA 
HETATM   18  C   UNL     1      -7.751   6.436  67.479  1.00  0.00    -0.101 C  
HETATM   19  C   UNL     1      -9.553   6.270  67.029  1.00  0.00    -0.162 C  
HETATM   20  C   UNL     1      -7.970  10.080  66.068  1.00  0.00    -0.118 C  
HETATM   21  O   UNL     1      -7.154   8.268  64.394  1.00  0.00    -0.074 OA 
HETATM   22  C   UNL     1      -6.774   7.587  66.754  1.00  0.00    -0.062 C  
HETATM   23  C   UNL     1     -11.506  11.005  65.102  1.00  0.00     0.455 C  
HETATM   24  C   UNL     1     -10.158   6.424  65.552  1.00  0.00     1.155 C  
ENDROOT
BRANCH   2  25
HETATM   25  O   UNL     1     -11.240   9.035  69.241  1.00  0.00    -0.019 OA 
BRANCH  25  26
HETATM   26  C   UNL     1     -12.622   9.155  69.662  1.00  0.00     1.858 C  
HETATM   27  O   UNL     1     -13.262  10.123  69.246  1.00  0.00     0.875 OA 
BRANCH  26  28
HETATM   28  C   UNL     1     -13.348   8.315  70.895  1.00  0.00     0.248 A  
HETATM   29  C   UNL     1     -14.381   7.977  73.199  1.00  0.00     0.933 A  
HETATM   30  C   UNL     1     -13.288   6.907  70.873  1.00  0.00     0.148 A  
HETATM   31  C   UNL     1     -13.805   8.788  72.174  1.00  0.00    -0.513 A  
HETATM   32  C   UNL     1     -13.794   6.074  71.927  1.00  0.00     0.912 A  
HETATM   33  C   UNL     1     -14.385   6.605  73.067  1.00  0.00     1.783 A  
ENDBRANCH  26  28
ENDBRANCH  25  26
ENDBRANCH   2  25
BRANCH   8  34
HETATM   34  O   UNL     1      -7.952   5.919  71.106  1.00  0.00    -0.108 OA 
BRANCH  34  35
HETATM   35  C   UNL     1      -7.467   7.095  71.630  1.00  0.00    -0.086 C  
HETATM   36  O   UNL     1      -6.275   7.219  71.919  1.00  0.00    -0.040 OA 
BRANCH  35  37
HETATM   37  C   UNL     1      -8.485   8.205  72.077  1.00  0.00    -0.155 C  
HETATM   38  H   UNL     1      -8.341  10.015  72.845  1.00  0.00     0.000 HD 
HETATM   39  O   UNL     1      -7.725   9.344  72.574  1.00  0.00     0.258 OA 
BRANCH  37  40
HETATM   40  C   UNL     1      -9.833   8.012  72.954  1.00  0.00    -0.287 C  
BRANCH  40  41
HETATM   41  C   UNL     1     -10.124   6.473  73.059  1.00  0.00    -0.206 A  
HETATM   42  C   UNL     1     -10.105   5.836  74.306  1.00  0.00    -0.283 A  
HETATM   43  C   UNL     1     -10.591   5.728  71.951  1.00  0.00    -0.285 A  
HETATM   44  C   UNL     1     -11.015   4.380  72.064  1.00  0.00     0.261 A  
HETATM   45  C   UNL     1     -10.519   4.477  74.409  1.00  0.00    -0.318 A  
HETATM   46  C   UNL     1     -10.951   3.769  73.328  1.00  0.00    -0.282 A  
ENDBRANCH  40  41
BRANCH  40  47
HETATM   47  N   UNL     1     -11.127   8.882  72.791  1.00  0.00     0.322 N  
HETATM   48  C   UNL     1     -11.362  10.048  72.009  1.00  0.00     0.980 C  
HETATM   49  H   UNL     1     -11.929   8.561  73.332  1.00  0.00     0.000 HD 
HETATM   50  O   UNL     1     -10.578  10.438  71.155  1.00  0.00     0.375 OA 
BRANCH  48  51
HETATM   51  O   UNL     1     -12.567  10.723  72.310  1.00  0.00    -0.030 OA 
HETATM   52  C   UNL     1     -12.963  12.164  71.940  1.00  0.00    -0.314 C  
HETATM   53  C   UNL     1     -11.941  13.256  72.309  1.00  0.00     1.579 C  
HETATM   54  C   UNL     1     -14.272  12.612  72.683  1.00  0.00     0.497 C  
HETATM   55  C   UNL     1     -13.283  12.273  70.437  1.00  0.00     0.825 C  
ENDBRANCH  48  51
ENDBRANCH  40  47
ENDBRANCH  37  40
ENDBRANCH  35  37
ENDBRANCH  34  35
ENDBRANCH   8  34
BRANCH  22  56
HETATM   56  O   UNL     1      -5.379   7.208  66.784  1.00  0.00    -0.021 OA 
HETATM   57  C   UNL     1      -5.142   5.788  66.666  1.00  0.00    -0.005 C  
ENDBRANCH  22  56
BRANCH  11  58
HETATM   58  O   UNL     1      -8.358  10.568  63.579  1.00  0.00    -0.164 OA 
HETATM   59  C   UNL     1      -7.405  10.688  62.511  1.00  0.00    -0.088 C  
ENDBRANCH  11  58
BRANCH   5  60
HETATM   60  O   UNL     1     -11.182  11.848  67.497  1.00  0.00    -0.257 OA 
BRANCH  60  61
HETATM   61  C   UNL     1     -11.055  13.131  67.848  1.00  0.00    -0.262 C  
HETATM   62  C   UNL     1      -9.709  13.332  68.494  1.00  0.00    -0.146 C  
HETATM   63  O   UNL     1     -11.820  14.082  67.648  1.00  0.00    -0.357 OA 
ENDBRANCH  60  61
ENDBRANCH   5  60
TORSDOF 14
ENDMDL
MODEL       53
REMARK 921   NORMALIZED FREE ENERGY PREDICTED BY IDOCK:   15.15 KCAL/MOL
REMARK 922        TOTAL FREE ENERGY PREDICTED BY IDOCK:   24.22 KCAL/MOL
REMARK 923 INTER-LIGAND FREE ENERGY PREDICTED BY IDOCK:   13.34 KCAL/MOL
REMARK 924 INTRA-LIGAND FREE ENERGY PREDICTED BY IDOCK:   10.88 KCAL/MOL
REMARK 927      BINDING AFFINITY PREDICTED BY RF-SCORE:    0.00 PKD
ROOT
HETATM    1  C   UNL     1      -8.624   8.230  69.663  1.00  0.00    -0.129 C  
HETATM    2  C   UNL     1      -7.759   9.687  68.722  1.00  0.00    -0.080 C  
HETATM    3  C   UNL     1      -5.174   9.340  66.132  1.00  0.00    -0.036 C  
HETATM    4  C   UNL     1      -7.341   9.191  67.300  1.00  0.00    -0.087 C  
HETATM    5  C   UNL     1      -8.963   8.570  71.148  1.00  0.00    -0.186 C  
HETATM    6  O   UNL     1      -8.114   8.087  67.631  1.00  0.00    -0.120 OA 
HETATM    7  C   UNL     1      -7.890  10.065  66.059  1.00  0.00    -0.119 C  
HETATM    8  C   UNL     1      -7.874   9.463  64.607  1.00  0.00    -0.120 C  
HETATM    9  C   UNL     1      -8.293   5.679  67.974  1.00  0.00    -0.100 C  
HETATM   10  H   UNL     1      -7.860   7.785  66.767  1.00  0.00     0.000 HD 
HETATM   11  C   UNL     1      -9.384   5.595  70.384  1.00  0.00    -0.160 C  
HETATM   12  C   UNL     1     -10.215   6.308  71.448  1.00  0.00    -0.237 C  
HETATM   13  C   UNL     1     -10.701   6.308  68.498  1.00  0.00    -0.354 C  
HETATM   14  C   UNL     1      -8.380   8.154  65.027  1.00  0.00    -0.146 C  
HETATM   15  C   UNL     1      -9.456   7.431  72.107  1.00  0.00    -0.139 C  
HETATM   16  C   UNL     1      -9.934   8.440  65.438  1.00  0.00     1.081 C  
HETATM   17  O   UNL     1      -8.109   7.155  72.550  1.00  0.00    -0.102 OA 
HETATM   18  C   UNL     1      -7.466   7.314  65.706  1.00  0.00    -0.084 C  
HETATM   19  C   UNL     1      -6.221   8.282  66.702  1.00  0.00    -0.054 C  
HETATM   20  C   UNL     1      -9.245   6.542  69.105  1.00  0.00    -0.135 C  
HETATM   21  O   UNL     1      -7.542   4.757  68.291  1.00  0.00    -0.076 OA 
HETATM   22  C   UNL     1      -8.415   6.129  66.412  1.00  0.00    -0.123 C  
HETATM   23  C   UNL     1      -7.649   8.402  71.983  1.00  0.00    -0.117 C  
HETATM   24  C   UNL     1      -5.297   7.681  67.866  1.00  0.00    -0.031 C  
ENDROOT
BRANCH   2  25
HETATM   25  O   UNL     1      -8.429  11.080  68.337  1.00  0.00    -0.130 OA 
BRANCH  25  26
HETATM   26  C   UNL     1      -8.011  12.366  68.860  1.00  0.00     0.150 C  
HETATM   27  O   UNL     1      -6.840  12.477  69.228  1.00  0.00    -0.091 OA 
BRANCH  26  28
HETATM   28  C   UNL     1      -9.009  13.609  69.320  1.00  0.00     0.669 A  
HETATM   29  C   UNL     1      -9.626  16.004  69.932  1.00  0.00     0.140 A  
HETATM   30  C   UNL     1     -10.249  13.290  69.908  1.00  0.00     1.477 A  
HETATM   31  C   UNL     1      -8.707  15.006  69.485  1.00  0.00    -0.062 A  
HETATM   32  C   UNL     1     -11.155  14.273  70.431  1.00  0.00     0.113 A  
HETATM   33  C   UNL     1     -10.869  15.633  70.400  1.00  0.00    -0.358 A  
ENDBRANCH  26  28
ENDBRANCH  25  26
ENDBRANCH   2  25
BRANCH   8  34
HETATM   34  O   UNL     1      -8.791   9.991  63.574  1.00  0.00    -0.194 OA 
BRANCH  34  35
HETATM   35  C   UNL     1      -9.496  11.127  63.896  1.00  0.00    -0.227 C  
HETATM   36  O   UNL     1      -9.273  12.198  63.326  1.00  0.00    -0.086 OA 
BRANCH  35  37
HETATM   37  C   UNL     1     -10.432  11.110  65.158  1.00  0.00    -0.277 C  
HETATM   38  H   UNL     1     -12.380  11.085  65.462  1.00  0.00     0.000 HD 
HETATM   39  O   UNL     1     -11.814  11.096  64.698  1.00  0.00     0.253 OA 
BRANCH  37  40
HETATM   40  C   UNL     1     -10.301  12.013  66.496  1.00  0.00    -0.210 C  
BRANCH  40  41
HETATM   41  C   UNL     1     -11.365  11.499  67.530  1.00  0.00    -0.366 A  
HETATM   42  C   UNL     1     -11.262  10.208  68.063  1.00  0.00    -0.247 A  
HETATM   43  C   UNL     1     -12.332  12.364  68.092  1.00  0.00     0.443 A  
HETATM   44  C   UNL     1     -13.192  11.962  69.145  1.00  0.00     2.767 A  
HETATM   45  C   UNL     1     -12.140   9.808  69.112  1.00  0.00     0.777 A  
HETATM   46  C   UNL     1     -13.077  10.648  69.630  1.00  0.00     0.696 A  
ENDBRANCH  40  41
BRANCH  40  47
HETATM   47  N   UNL     1     -10.129  13.571  66.499  1.00  0.00    -0.275 N  
HETATM   48  C   UNL     1     -10.988  14.593  66.991  1.00  0.00    -0.317 C  
HETATM   49  H   UNL     1      -9.262  13.906  66.080  1.00  0.00     0.000 HD 
HETATM   50  O   UNL     1     -11.958  14.355  67.698  1.00  0.00    -0.377 OA 
BRANCH  48  51
HETATM   51  O   UNL     1     -10.637  15.901  66.586  1.00  0.00    -0.314 OA 
HETATM   52  C   UNL     1     -10.946  16.591  65.245  1.00  0.00    -0.162 C  
HETATM   53  C   UNL     1     -10.560  15.802  63.979  1.00  0.00     1.848 C  
HETATM   54  C   UNL     1     -10.159  17.942  65.096  1.00  0.00     1.183 C  
HETATM   55  C   UNL     1     -12.437  16.969  65.156  1.00  0.00     4.762 C  
ENDBRANCH  48  51
ENDBRANCH  40  47
ENDBRANCH  37  40
ENDBRANCH  35  37
ENDBRANCH  34  35
ENDBRANCH   8  34
BRANCH  22  56
HETATM   56  O   UNL     1      -8.862   5.149  65.447  1.00  0.00    -0.148 OA 
HETATM   57  C   UNL     1      -9.541   4.010  66.022  1.00  0.00    -0.194 C  
ENDBRANCH  22  56
BRANCH  11  58
HETATM   58  O   UNL     1      -8.167   5.083  70.920  1.00  0.00    -0.103 OA 
HETATM   59  C   UNL     1      -8.383   4.269  72.084  1.00  0.00    -0.103 C  
ENDBRANCH  11  58
BRANCH   5  60
HETATM   60  O   UNL     1      -9.593   9.864  71.187  1.00  0.00     0.078 OA 
BRANCH  60  61
HETATM   61  C   UNL     1     -10.706  10.055  71.901  1.00  0.00     1.559 C  
HETATM   62  C   UNL     1     -11.473  11.212  71.315  1.00  0.00     0.946 C  
HETATM   63  O   UNL     1     -11.156   9.400  72.848  1.00  0.00     1.379 OA 
ENDBRANCH  60  61
ENDBRANCH   5  60
TORSDOF 14
ENDMDL
MODEL       54
REMARK 921   NORMALIZED FREE ENERGY PREDICTED BY IDOCK:   16.05 KCAL/MOL
REMARK 922        TOTAL FREE ENERGY PREDICTED BY IDOCK:   25.86 KCAL/MOL
REMARK 923 INTER-LIGAND FREE ENERGY PREDICTED BY IDOCK:   20.71 KCAL/MOL
REMARK 924 INTRA-LIGAND FREE ENERGY PREDICTED BY IDOCK:    5.15 KCAL/MOL
REMARK 927      BINDING AFFINITY PREDICTED BY RF-SCORE:    0.00 PKD
ROOT
HETATM    1  C   UNL     1      -8.423   7.362  68.207  1.00  0.00    -0.125 C  
HETATM    2  C   UNL     1      -8.714   8.729  66.864  1.00  0.00    -0.127 C  
HETATM    3  C   UNL     1     -11.950  10.247  66.007  1.00  0.00     3.729 C  
HETATM    4  C   UNL     1      -9.944   9.596  67.286  1.00  0.00    -0.197 C  
HETATM    5  C   UNL     1      -7.300   6.348  67.821  1.00  0.00    -0.088 C  
HETATM    6  O   UNL     1      -9.821   8.904  68.483  1.00  0.00    -0.159 OA 
HETATM    7  C   UNL     1      -9.685  11.186  67.384  1.00  0.00    -0.191 C  
HETATM    8  C   UNL     1     -10.701  12.100  68.161  1.00  0.00    -0.211 C  
HETATM    9  C   UNL     1     -10.798   7.430  70.161  1.00  0.00    -0.256 C  
HETATM   10  H   UNL     1     -10.570   9.431  68.739  1.00  0.00     0.000 HD 
HETATM   11  C   UNL     1      -8.929   5.564  70.340  1.00  0.00    -0.139 C  
HETATM   12  C   UNL     1      -7.464   5.185  70.144  1.00  0.00    -0.063 C  
HETATM   13  C   UNL     1      -8.518   7.760  71.240  1.00  0.00    -0.125 C  
HETATM   14  C   UNL     1     -10.833  11.179  69.292  1.00  0.00    -0.277 C  
HETATM   15  C   UNL     1      -7.096   5.057  68.688  1.00  0.00    -0.057 C  
HETATM   16  C   UNL     1      -9.390  11.270  70.051  1.00  0.00     1.687 C  
HETATM   17  O   UNL     1      -7.984   4.290  67.843  1.00  0.00    -0.086 OA 
HETATM   18  C   UNL     1     -11.598  10.011  69.066  1.00  0.00     0.006 C  
HETATM   19  C   UNL     1     -11.496   9.429  67.298  1.00  0.00     1.313 C  
HETATM   20  C   UNL     1      -9.136   7.094  69.929  1.00  0.00    -0.141 C  
HETATM   21  O   UNL     1     -11.663   6.555  70.197  1.00  0.00    -0.418 OA 
HETATM   22  C   UNL     1     -11.216   8.995  70.342  1.00  0.00    -0.241 C  
HETATM   23  C   UNL     1      -7.922   5.313  66.823  1.00  0.00    -0.104 C  
HETATM   24  C   UNL     1     -11.913   7.971  66.777  1.00  0.00     5.233 C  
ENDROOT
BRANCH   2  25
HETATM   25  O   UNL     1      -7.691   9.885  66.469  1.00  0.00    -0.104 OA 
BRANCH  25  26
HETATM   26  C   UNL     1      -8.065  11.127  65.822  1.00  0.00     0.029 C  
HETATM   27  O   UNL     1      -7.585  12.170  66.271  1.00  0.00     0.293 OA 
BRANCH  26  28
HETATM   28  C   UNL     1      -9.315  11.338  64.751  1.00  0.00    -0.166 A  
HETATM   29  C   UNL     1     -10.736  10.846  62.695  1.00  0.00     0.776 A  
HETATM   30  C   UNL     1      -9.999  12.570  64.753  1.00  0.00    -0.177 A  
HETATM   31  C   UNL     1      -9.660  10.561  63.591  1.00  0.00    -0.370 A  
HETATM   32  C   UNL     1     -11.032  12.906  63.815  1.00  0.00    -0.392 A  
HETATM   33  C   UNL     1     -11.436  12.027  62.817  1.00  0.00     0.512 A  
ENDBRANCH  26  28
ENDBRANCH  25  26
ENDBRANCH   2  25
BRANCH   8  34
HETATM   34  O   UNL     1     -10.265  13.409  68.693  1.00  0.00    -0.235 OA 
BRANCH  34  35
HETATM   35  C   UNL     1     -11.062  13.982  69.656  1.00  0.00    -0.104 C  
HETATM   36  O   UNL     1     -12.215  13.587  69.847  1.00  0.00    -0.322 OA 
BRANCH  35  37
HETATM   37  C   UNL     1     -10.578  15.302  70.358  1.00  0.00    -0.197 C  
HETATM   38  H   UNL     1     -11.249  16.442  71.820  1.00  0.00     0.000 HD 
HETATM   39  O   UNL     1     -11.542  15.644  71.396  1.00  0.00    -0.356 OA 
BRANCH  37  40
HETATM   40  C   UNL     1     -10.022  16.649  69.651  1.00  0.00    -0.005 C  
BRANCH  40  41
HETATM   41  C   UNL     1      -9.481  16.259  68.229  1.00  0.00    -0.214 A  
HETATM   42  C   UNL     1     -10.359  16.160  67.144  1.00  0.00    -0.291 A  
HETATM   43  C   UNL     1      -8.094  16.182  67.959  1.00  0.00    -0.149 A  
HETATM   44  C   UNL     1      -7.584  15.994  66.649  1.00  0.00    -0.200 A  
HETATM   45  C   UNL     1      -9.839  15.957  65.833  1.00  0.00    -0.383 A  
HETATM   46  C   UNL     1      -8.502  15.869  65.592  1.00  0.00     0.948 A  
ENDBRANCH  40  41
BRANCH  40  47
HETATM   47  N   UNL     1      -9.152  17.733  70.375  1.00  0.00     2.956 N  
HETATM   48  C   UNL     1      -9.539  18.909  71.078  1.00  0.00     3.548 C  
HETATM   49  H   UNL     1      -8.146  17.571  70.335  1.00  0.00     0.000 HD 
HETATM   50  O   UNL     1     -10.699  19.137  71.391  1.00  0.00     2.077 OA 
BRANCH  48  51
HETATM   51  O   UNL     1      -8.477  19.793  71.372  1.00  0.00     2.156 OA 
HETATM   52  C   UNL     1      -7.077  19.836  70.734  1.00  0.00     0.659 C  
HETATM   53  C   UNL     1      -6.313  18.499  70.699  1.00  0.00     0.624 C  
HETATM   54  C   UNL     1      -6.113  20.795  71.520  1.00  0.00     0.327 C  
HETATM   55  C   UNL     1      -7.146  20.403  69.303  1.00  0.00     0.125 C  
ENDBRANCH  48  51
ENDBRANCH  40  47
ENDBRANCH  37  40
ENDBRANCH  35  37
ENDBRANCH  34  35
ENDBRANCH   8  34
BRANCH  22  56
HETATM   56  O   UNL     1     -11.873   9.395  71.567  1.00  0.00    -0.333 OA 
HETATM   57  C   UNL     1     -11.079   9.209  72.760  1.00  0.00     1.203 C  
ENDBRANCH  22  56
BRANCH  11  58
HETATM   58  O   UNL     1      -9.804   4.625  69.721  1.00  0.00    -0.196 OA 
HETATM   59  C   UNL     1      -9.441   3.266  70.013  1.00  0.00    -0.161 C  
ENDBRANCH  11  58
BRANCH   5  60
HETATM   60  O   UNL     1      -6.157   7.089  67.357  1.00  0.00    -0.036 OA 
BRANCH  60  61
HETATM   61  C   UNL     1      -5.711   8.147  68.041  1.00  0.00    -0.035 C  
HETATM   62  C   UNL     1      -5.417   7.727  69.457  1.00  0.00    -0.023 C  
HETATM   63  O   UNL     1      -5.472   9.295  67.648  1.00  0.00    -0.037 OA 
ENDBRANCH  60  61
ENDBRANCH   5  60
TORSDOF 14
ENDMDL
MODEL       55
REMARK 921   NORMALIZED FREE ENERGY PREDICTED BY IDOCK:   16.77 KCAL/MOL
REMARK 922        TOTAL FREE ENERGY PREDICTED BY IDOCK:   27.17 KCAL/MOL
REMARK 923 INTER-LIGAND FREE ENERGY PREDICTED BY IDOCK:   21.88 KCAL/MOL
REMARK 924 INTRA-LIGAND FREE ENERGY PREDICTED BY IDOCK:    5.29 KCAL/MOL
REMARK 927      BINDING AFFINITY PREDICTED BY RF-SCORE:    0.00 PKD
ROOT
HETATM    1  C   UNL     1      -8.484  16.906  68.399  1.00  0.00    -0.239 C  
HETATM    2  C   UNL     1      -8.667  15.492  67.086  1.00  0.00    -0.211 C  
HETATM    3  C   UNL     1      -6.102  12.998  66.241  1.00  0.00     3.198 C  
HETATM    4  C   UNL     1      -7.773  14.284  67.519  1.00  0.00    -0.191 C  
HETATM    5  C   UNL     1      -9.228  18.219  67.998  1.00  0.00    -0.290 C  
HETATM    6  O   UNL     1      -7.650  15.003  68.700  1.00  0.00    -0.115 OA 
HETATM    7  C   UNL     1      -8.528  12.864  67.656  1.00  0.00    -0.183 C  
HETATM    8  C   UNL     1      -7.847  11.687  68.446  1.00  0.00    -0.137 C  
HETATM    9  C   UNL     1      -6.227  16.118  70.336  1.00  0.00     0.167 C  
HETATM   10  H   UNL     1      -7.107  14.269  68.963  1.00  0.00     0.000 HD 
HETATM   11  C   UNL     1      -7.396  18.488  70.485  1.00  0.00     2.232 C  
HETATM   12  C   UNL     1      -8.665  19.314  70.292  1.00  0.00     1.617 C  
HETATM   13  C   UNL     1      -8.476  16.559  71.439  1.00  0.00     7.493 C  
HETATM   14  C   UNL     1      -7.410  12.539  69.555  1.00  0.00     0.469 C  
HETATM   15  C   UNL     1      -8.994  19.524  68.836  1.00  0.00    -0.267 C  
HETATM   16  C   UNL     1      -8.794  12.931  70.326  1.00  0.00     4.862 C  
HETATM   17  O   UNL     1      -7.920  19.948  67.966  1.00  0.00    -0.299 OA 
HETATM   18  C   UNL     1      -6.314  13.396  69.296  1.00  0.00    -0.110 C  
HETATM   19  C   UNL     1      -6.250  13.944  67.515  1.00  0.00    -0.016 C  
HETATM   20  C   UNL     1      -7.697  16.965  70.108  1.00  0.00     1.848 C  
HETATM   21  O   UNL     1      -5.127  16.669  70.344  1.00  0.00    -0.178 OA 
HETATM   22  C   UNL     1      -6.331  14.505  70.550  1.00  0.00    -0.125 C  
HETATM   23  C   UNL     1      -8.322  18.980  66.971  1.00  0.00    -0.276 C  
HETATM   24  C   UNL     1      -5.395  15.181  66.956  1.00  0.00     0.947 C  
ENDROOT
BRANCH   2  25
HETATM   25  O   UNL     1     -10.012  14.718  66.726  1.00  0.00    -0.241 OA 
BRANCH  25  26
HETATM   26  C   UNL     1     -11.009  14.307  67.696  1.00  0.00    -0.277 C  
HETATM   27  O   UNL     1     -11.942  13.611  67.294  1.00  0.00    -0.376 OA 
BRANCH  26  28
HETATM   28  C   UNL     1     -11.210  14.933  69.220  1.00  0.00    -0.300 A  
HETATM   29  C   UNL     1     -11.416  14.877  71.759  1.00  0.00    -0.275 A  
HETATM   30  C   UNL     1     -11.753  16.227  69.346  1.00  0.00    -0.109 A  
HETATM   31  C   UNL     1     -11.186  14.260  70.491  1.00  0.00     0.059 A  
HETATM   32  C   UNL     1     -12.062  16.838  70.608  1.00  0.00     1.554 A  
HETATM   33  C   UNL     1     -11.848  16.185  71.817  1.00  0.00    -0.581 A  
ENDBRANCH  26  28
ENDBRANCH  25  26
ENDBRANCH   2  25
BRANCH   8  34
HETATM   34  O   UNL     1      -8.672  10.598  69.012  1.00  0.00    -0.153 OA 
BRANCH  34  35
HETATM   35  C   UNL     1      -9.990  10.891  69.272  1.00  0.00    -0.113 C  
HETATM   36  O   UNL     1     -10.353  11.254  70.394  1.00  0.00     0.949 OA 
BRANCH  35  37
HETATM   37  C   UNL     1     -11.075  10.538  68.192  1.00  0.00    -0.287 C  
HETATM   38  H   UNL     1     -12.836   9.651  68.209  1.00  0.00     0.000 HD 
HETATM   39  O   UNL     1     -12.180   9.864  68.862  1.00  0.00     0.440 OA 
BRANCH  37  40
HETATM   40  C   UNL     1     -10.836   9.889  66.727  1.00  0.00    -0.015 C  
BRANCH  40  41
HETATM   41  C   UNL     1      -9.526   9.025  66.792  1.00  0.00    -0.238 A  
HETATM   42  C   UNL     1      -8.419   9.364  66.005  1.00  0.00    -0.132 A  
HETATM   43  C   UNL     1      -9.352   8.011  67.764  1.00  0.00    -0.151 A  
HETATM   44  C   UNL     1      -8.120   7.334  67.945  1.00  0.00    -0.119 A  
HETATM   45  C   UNL     1      -7.188   8.669  66.184  1.00  0.00    -0.085 A  
HETATM   46  C   UNL     1      -7.043   7.684  67.113  1.00  0.00    -0.085 A  
ENDBRANCH  40  41
BRANCH  40  47
HETATM   47  N   UNL     1     -11.006  10.665  65.377  1.00  0.00     0.085 N  
HETATM   48  C   UNL     1     -10.067  11.424  64.624  1.00  0.00    -0.280 C  
HETATM   49  H   UNL     1     -11.941  10.619  64.972  1.00  0.00     0.000 HD 
HETATM   50  O   UNL     1      -8.866  11.408  64.859  1.00  0.00     0.006 OA 
BRANCH  48  51
HETATM   51  O   UNL     1     -10.635  12.206  63.593  1.00  0.00    -0.386 OA 
HETATM   52  C   UNL     1     -11.605  13.394  63.732  1.00  0.00    -0.313 C  
HETATM   53  C   UNL     1     -12.851  13.146  64.603  1.00  0.00    -0.235 C  
HETATM   54  C   UNL     1     -12.200  13.819  62.342  1.00  0.00     3.129 C  
HETATM   55  C   UNL     1     -10.870  14.639  64.264  1.00  0.00     0.196 C  
ENDBRANCH  48  51
ENDBRANCH  40  47
ENDBRANCH  37  40
ENDBRANCH  35  37
ENDBRANCH  34  35
ENDBRANCH   8  34
BRANCH  22  56
HETATM   56  O   UNL     1      -5.819  13.940  71.779  1.00  0.00    -0.330 OA 
HETATM   57  C   UNL     1      -5.173  14.893  72.652  1.00  0.00    -0.041 C  
ENDBRANCH  22  56
BRANCH  11  58
HETATM   58  O   UNL     1      -6.275  19.084  69.838  1.00  0.00    -0.256 OA 
HETATM   59  C   UNL     1      -5.498  19.897  70.731  1.00  0.00    -0.265 C  
ENDBRANCH  11  58
BRANCH   5  60
HETATM   60  O   UNL     1     -10.555  17.875  67.560  1.00  0.00    -0.388 OA 
BRANCH  60  61
HETATM   61  C   UNL     1     -11.107  18.499  66.515  1.00  0.00     0.400 C  
HETATM   62  C   UNL     1     -11.213  19.970  66.821  1.00  0.00     0.350 C  
HETATM   63  O   UNL     1     -11.435  18.047  65.411  1.00  0.00     0.548 OA 
ENDBRANCH  60  61
ENDBRANCH   5  60
TORSDOF 14
ENDMDL
MODEL       56
REMARK 921   NORMALIZED FREE ENERGY PREDICTED BY IDOCK:   17.65 KCAL/MOL
REMARK 922        TOTAL FREE ENERGY PREDICTED BY IDOCK:   28.77 KCAL/MOL
REMARK 923 INTER-LIGAND FREE ENERGY PREDICTED BY IDOCK:   26.86 KCAL/MOL
REMARK 924 INTRA-LIGAND FREE ENERGY PREDICTED BY IDOCK:    1.90 KCAL/MOL
REMARK 927      BINDING AFFINITY PREDICTED BY RF-SCORE:    0.00 PKD
ROOT
HETATM    1  C   UNL     1      -9.061   8.947  66.742  1.00  0.00    -0.177 C  
HETATM    2  C   UNL     1     -10.851   9.237  67.428  1.00  0.00    -0.095 C  
HETATM    3  C   UNL     1     -13.589   6.785  67.400  1.00  0.00    17.686 C  
HETATM    4  C   UNL     1     -11.434   7.869  67.911  1.00  0.00     1.211 C  
HETATM    5  C   UNL     1      -8.431  10.224  66.105  1.00  0.00    -0.141 C  
HETATM    6  O   UNL     1     -10.132   7.427  67.719  1.00  0.00    -0.164 OA 
HETATM    7  C   UNL     1     -11.955   7.825  69.438  1.00  0.00     1.274 C  
HETATM    8  C   UNL     1     -12.188   6.442  70.148  1.00  0.00     0.406 C  
HETATM    9  C   UNL     1      -8.575   5.911  66.613  1.00  0.00    -0.119 C  
HETATM   10  H   UNL     1     -10.487   6.595  68.012  1.00  0.00     0.000 HD 
HETATM   11  C   UNL     1      -6.801   7.626  65.654  1.00  0.00    -0.049 C  
HETATM   12  C   UNL     1      -6.157   9.005  65.755  1.00  0.00    -0.052 C  
HETATM   13  C   UNL     1      -6.897   7.202  68.023  1.00  0.00    -0.070 C  
HETATM   14  C   UNL     1     -10.945   5.851  69.646  1.00  0.00    -0.447 C  
HETATM   15  C   UNL     1      -7.087  10.104  65.305  1.00  0.00    -0.137 C  
HETATM   16  C   UNL     1      -9.771   6.643  70.458  1.00  0.00    -0.187 C  
HETATM   17  O   UNL     1      -7.789   9.911  64.057  1.00  0.00    -0.134 OA 
HETATM   18  C   UNL     1     -10.929   5.485  68.280  1.00  0.00     0.108 C  
HETATM   19  C   UNL     1     -12.015   6.586  67.238  1.00  0.00     2.167 C  
HETATM   20  C   UNL     1      -7.895   7.470  66.808  1.00  0.00    -0.110 C  
HETATM   21  O   UNL     1      -8.528   5.283  65.556  1.00  0.00    -0.129 OA 
HETATM   22  C   UNL     1      -9.310   5.260  67.914  1.00  0.00    -0.116 C  
HETATM   23  C   UNL     1      -9.020  10.371  64.660  1.00  0.00    -0.209 C  
HETATM   24  C   UNL     1     -11.954   6.706  65.641  1.00  0.00     6.058 C  
ENDROOT
BRANCH   2  25
HETATM   25  O   UNL     1     -11.238  10.151  68.675  1.00  0.00    -0.230 OA 
BRANCH  25  26
HETATM   26  C   UNL     1     -11.894  11.440  68.575  1.00  0.00    -0.294 C  
HETATM   27  O   UNL     1     -12.175  11.851  67.448  1.00  0.00    -0.502 OA 
BRANCH  26  28
HETATM   28  C   UNL     1     -12.022  12.571  69.783  1.00  0.00    -0.359 A  
HETATM   29  C   UNL     1     -13.090  13.757  71.769  1.00  0.00    -0.463 A  
HETATM   30  C   UNL     1     -11.224  13.730  69.702  1.00  0.00    -0.175 A  
HETATM   31  C   UNL     1     -13.038  12.717  70.791  1.00  0.00     0.140 A  
HETATM   32  C   UNL     1     -11.312  14.821  70.632  1.00  0.00    -0.234 A  
HETATM   33  C   UNL     1     -12.208  14.815  71.694  1.00  0.00    -0.413 A  
ENDBRANCH  26  28
ENDBRANCH  25  26
ENDBRANCH   2  25
BRANCH   8  34
HETATM   34  O   UNL     1     -12.167   6.351  71.623  1.00  0.00    -0.327 OA 
BRANCH  34  35
HETATM   35  C   UNL     1     -11.451   5.312  72.170  1.00  0.00     0.063 C  
HETATM   36  O   UNL     1     -11.524   4.174  71.702  1.00  0.00     1.372 OA 
BRANCH  35  37
HETATM   37  C   UNL     1     -10.715   5.534  73.540  1.00  0.00    -0.283 C  
HETATM   38  H   UNL     1     -11.213   6.276  75.298  1.00  0.00     0.000 HD 
HETATM   39  O   UNL     1     -11.658   6.142  74.469  1.00  0.00     2.011 OA 
BRANCH  37  40
HETATM   40  C   UNL     1      -9.232   6.140  73.778  1.00  0.00    -0.129 C  
BRANCH  40  41
HETATM   41  C   UNL     1      -9.069   7.392  72.844  1.00  0.00    -0.192 A  
HETATM   42  C   UNL     1     -10.135   8.282  72.665  1.00  0.00    -0.365 A  
HETATM   43  C   UNL     1      -7.811   7.763  72.313  1.00  0.00    -0.127 A  
HETATM   44  C   UNL     1      -7.611   8.976  71.607  1.00  0.00     0.016 A  
HETATM   45  C   UNL     1      -9.929   9.492  71.942  1.00  0.00     0.677 A  
HETATM   46  C   UNL     1      -8.715   9.826  71.423  1.00  0.00     1.255 A  
ENDBRANCH  40  41
BRANCH  40  47
HETATM   47  N   UNL     1      -7.931   5.275  73.897  1.00  0.00    -0.104 N  
HETATM   48  C   UNL     1      -7.142   4.652  72.889  1.00  0.00    -0.077 C  
HETATM   49  H   UNL     1      -7.595   5.137  74.850  1.00  0.00     0.000 HD 
HETATM   50  O   UNL     1      -7.287   4.890  71.698  1.00  0.00    -0.069 OA 
BRANCH  48  51
HETATM   51  O   UNL     1      -6.189   3.730  73.377  1.00  0.00    -0.017 OA 
HETATM   52  C   UNL     1      -6.326   2.201  73.495  1.00  0.00    -0.013 C  
HETATM   53  C   UNL     1      -7.589   1.694  74.217  1.00  0.00    -0.032 C  
HETATM   54  C   UNL     1      -5.147   1.578  74.324  1.00  0.00     0.000 C  
HETATM   55  C   UNL     1      -6.250   1.537  72.107  1.00  0.00    -0.013 C  
ENDBRANCH  48  51
ENDBRANCH  40  47
ENDBRANCH  37  40
ENDBRANCH  35  37
ENDBRANCH  34  35
ENDBRANCH   8  34
BRANCH  22  56
HETATM   56  O   UNL     1      -8.809   4.006  68.433  1.00  0.00    -0.096 OA 
HETATM   57  C   UNL     1      -9.577   2.847  68.042  1.00  0.00    -0.052 C  
ENDBRANCH  22  56
BRANCH  11  58
HETATM   58  O   UNL     1      -7.244   7.345  64.329  1.00  0.00    -0.069 OA 
HETATM   59  C   UNL     1      -6.166   6.950  63.465  1.00  0.00    -0.043 C  
ENDBRANCH  11  58
BRANCH   5  60
HETATM   60  O   UNL     1      -8.636  11.330  67.003  1.00  0.00    -0.139 OA 
BRANCH  60  61
HETATM   61  C   UNL     1      -8.896  12.551  66.526  1.00  0.00    -0.087 C  
HETATM   62  C   UNL     1      -7.996  13.547  67.208  1.00  0.00    -0.125 C  
HETATM   63  O   UNL     1      -9.669  12.896  65.624  1.00  0.00    -0.214 OA 
ENDBRANCH  60  61
ENDBRANCH   5  60
TORSDOF 14
ENDMDL
MODEL       57
REMARK 921   NORMALIZED FREE ENERGY PREDICTED BY IDOCK:   18.12 KCAL/MOL
REMARK 922        TOTAL FREE ENERGY PREDICTED BY IDOCK:   29.62 KCAL/MOL
REMARK 923 INTER-LIGAND FREE ENERGY PREDICTED BY IDOCK:   26.65 KCAL/MOL
REMARK 924 INTRA-LIGAND FREE ENERGY PREDICTED BY IDOCK:    2.97 KCAL/MOL
REMARK 927      BINDING AFFINITY PREDICTED BY RF-SCORE:    0.00 PKD
ROOT
HETATM    1  C   UNL     1     -10.149  16.109  67.753  1.00  0.00    -0.250 C  
HETATM    2  C   UNL     1     -10.227  14.530  68.874  1.00  0.00    -0.229 C  
HETATM    3  C   UNL     1     -11.876  11.360  68.009  1.00  0.00    -0.273 C  
HETATM    4  C   UNL     1     -10.312  13.266  67.958  1.00  0.00    -0.241 C  
HETATM    5  C   UNL     1     -10.201  17.443  68.563  1.00  0.00    -0.369 C  
HETATM    6  O   UNL     1     -10.028  14.174  66.947  1.00  0.00    -0.250 OA 
HETATM    7  C   UNL     1      -9.181  12.140  68.205  1.00  0.00    -0.192 C  
HETATM    8  C   UNL     1      -8.921  11.037  67.116  1.00  0.00    -0.143 C  
HETATM    9  C   UNL     1     -10.660  15.238  64.847  1.00  0.00    -0.351 C  
HETATM   10  H   UNL     1     -10.079  13.405  66.390  1.00  0.00     0.000 HD 
HETATM   11  C   UNL     1     -10.435  17.795  65.492  1.00  0.00    -0.017 C  
HETATM   12  C   UNL     1      -9.805  18.843  66.405  1.00  0.00    -0.412 C  
HETATM   13  C   UNL     1      -8.456  16.449  65.227  1.00  0.00     2.227 C  
HETATM   14  C   UNL     1      -8.966  11.978  65.995  1.00  0.00    -0.021 C  
HETATM   15  C   UNL     1     -10.375  18.802  67.800  1.00  0.00    -0.411 C  
HETATM   16  C   UNL     1      -7.600  12.857  66.158  1.00  0.00     1.929 C  
HETATM   17  O   UNL     1     -11.813  18.747  67.930  1.00  0.00     1.292 OA 
HETATM   18  C   UNL     1     -10.244  12.460  65.629  1.00  0.00    -0.285 C  
HETATM   19  C   UNL     1     -11.403  12.570  67.085  1.00  0.00    -0.381 C  
HETATM   20  C   UNL     1      -9.897  16.348  65.902  1.00  0.00    -0.344 C  
HETATM   21  O   UNL     1     -11.703  15.490  64.244  1.00  0.00    -0.370 OA 
HETATM   22  C   UNL     1      -9.939  13.788  64.655  1.00  0.00     0.003 C  
HETATM   23  C   UNL     1     -11.699  17.712  68.933  1.00  0.00     2.220 C  
HETATM   24  C   UNL     1     -12.772  13.404  67.120  1.00  0.00     0.626 C  
ENDROOT
BRANCH   2  25
HETATM   25  O   UNL     1      -9.102  14.050  69.895  1.00  0.00     1.066 OA 
BRANCH  25  26
HETATM   26  C   UNL     1      -7.740  14.547  69.909  1.00  0.00     0.330 C  
HETATM   27  O   UNL     1      -7.032  14.241  70.870  1.00  0.00     0.406 OA 
BRANCH  26  28
HETATM   28  C   UNL     1      -7.124  15.746  68.941  1.00  0.00    -0.139 A  
HETATM   29  C   UNL     1      -6.872  18.110  68.025  1.00  0.00    -0.208 A  
HETATM   30  C   UNL     1      -6.427  15.373  67.775  1.00  0.00    -0.183 A  
HETATM   31  C   UNL     1      -7.422  17.153  68.932  1.00  0.00    -0.241 A  
HETATM   32  C   UNL     1      -5.930  16.314  66.811  1.00  0.00     0.223 A  
HETATM   33  C   UNL     1      -6.108  17.685  66.959  1.00  0.00    -0.178 A  
ENDBRANCH  26  28
ENDBRANCH  25  26
ENDBRANCH   2  25
BRANCH   8  34
HETATM   34  O   UNL     1      -7.620  10.335  67.066  1.00  0.00    -0.097 OA 
BRANCH  34  35
HETATM   35  C   UNL     1      -7.363   9.436  68.073  1.00  0.00    -0.079 C  
HETATM   36  O   UNL     1      -6.996   9.815  69.188  1.00  0.00    -0.052 OA 
BRANCH  35  37
HETATM   37  C   UNL     1      -7.313   7.903  67.730  1.00  0.00    -0.096 C  
HETATM   38  H   UNL     1      -6.415   6.798  66.367  1.00  0.00     0.000 HD 
HETATM   39  O   UNL     1      -6.445   7.724  66.574  1.00  0.00    -0.045 OA 
BRANCH  37  40
HETATM   40  C   UNL     1      -8.556   6.867  67.656  1.00  0.00    -0.121 C  
BRANCH  40  41
HETATM   41  C   UNL     1      -9.100   6.662  69.115  1.00  0.00    -0.137 A  
HETATM   42  C   UNL     1      -8.219   6.677  70.203  1.00  0.00    -0.133 A  
HETATM   43  C   UNL     1     -10.487   6.646  69.395  1.00  0.00    -0.254 A  
HETATM   44  C   UNL     1     -10.995   6.628  70.718  1.00  0.00    -0.318 A  
HETATM   45  C   UNL     1      -8.738   6.644  71.530  1.00  0.00    -0.131 A  
HETATM   46  C   UNL     1     -10.076   6.612  71.782  1.00  0.00    -0.198 A  
ENDBRANCH  40  41
BRANCH  40  47
HETATM   47  N   UNL     1      -8.567   5.558  66.796  1.00  0.00    -0.111 N  
HETATM   48  C   UNL     1      -9.652   4.845  66.212  1.00  0.00    -0.174 C  
HETATM   49  H   UNL     1      -7.647   5.150  66.626  1.00  0.00     0.000 HD 
HETATM   50  O   UNL     1     -10.783   5.306  66.146  1.00  0.00    -0.266 OA 
BRANCH  48  51
HETATM   51  O   UNL     1      -9.317   3.560  65.729  1.00  0.00    -0.155 OA 
HETATM   52  C   UNL     1      -8.393   3.203  64.550  1.00  0.00    -0.090 C  
HETATM   53  C   UNL     1      -8.690   3.923  63.222  1.00  0.00    -0.102 C  
HETATM   54  C   UNL     1      -8.493   1.680  64.179  1.00  0.00    -0.078 C  
HETATM   55  C   UNL     1      -6.917   3.441  64.923  1.00  0.00    -0.056 C  
ENDBRANCH  48  51
ENDBRANCH  40  47
ENDBRANCH  37  40
ENDBRANCH  35  37
ENDBRANCH  34  35
ENDBRANCH   8  34
BRANCH  22  56
HETATM   56  O   UNL     1      -9.517  13.399  63.328  1.00  0.00     2.448 OA 
HETATM   57  C   UNL     1     -10.130  12.186  62.837  1.00  0.00     0.382 C  
ENDBRANCH  22  56
BRANCH  11  58
HETATM   58  O   UNL     1     -11.851  17.940  65.420  1.00  0.00     1.840 OA 
HETATM   59  C   UNL     1     -12.243  19.125  64.709  1.00  0.00     7.622 C  
ENDBRANCH  11  58
BRANCH   5  60
HETATM   60  O   UNL     1      -9.271  17.347  69.658  1.00  0.00     0.381 OA 
BRANCH  60  61
HETATM   61  C   UNL     1      -9.667  17.605  70.907  1.00  0.00     4.163 C  
HETATM   62  C   UNL     1     -10.104  16.319  71.559  1.00  0.00     3.004 C  
HETATM   63  O   UNL     1      -9.642  18.669  71.538  1.00  0.00     4.674 OA 
ENDBRANCH  60  61
ENDBRANCH   5  60
TORSDOF 14
ENDMDL
MODEL       58
REMARK 921   NORMALIZED FREE ENERGY PREDICTED BY IDOCK:   27.35 KCAL/MOL
REMARK 922        TOTAL FREE ENERGY PREDICTED BY IDOCK:   46.41 KCAL/MOL
REMARK 923 INTER-LIGAND FREE ENERGY PREDICTED BY IDOCK:   22.07 KCAL/MOL
REMARK 924 INTRA-LIGAND FREE ENERGY PREDICTED BY IDOCK:   24.34 KCAL/MOL
REMARK 927      BINDING AFFINITY PREDICTED BY RF-SCORE:    0.00 PKD
ROOT
HETATM    1  C   UNL     1     -10.769  16.208  69.525  1.00  0.00    -0.313 C  
HETATM    2  C   UNL     1     -11.913  14.656  69.317  1.00  0.00    -0.302 C  
HETATM    3  C   UNL     1     -12.514  12.831  66.184  1.00  0.00     0.010 C  
HETATM    4  C   UNL     1     -11.362  13.777  68.149  1.00  0.00    -0.284 C  
HETATM    5  C   UNL     1     -11.302  17.230  70.576  1.00  0.00     1.448 C  
HETATM    6  O   UNL     1     -10.270  14.630  68.232  1.00  0.00    -0.218 OA 
HETATM    7  C   UNL     1     -11.055  12.234  68.512  1.00  0.00    -0.290 C  
HETATM    8  C   UNL     1     -10.149  11.369  67.563  1.00  0.00    -0.183 C  
HETATM    9  C   UNL     1      -8.791  16.250  67.169  1.00  0.00    -0.193 C  
HETATM   10  H   UNL     1      -9.935  14.095  67.521  1.00  0.00     0.000 HD 
HETATM   11  C   UNL     1      -8.890  18.240  68.912  1.00  0.00    -0.121 C  
HETATM   12  C   UNL     1      -9.154  18.682  70.348  1.00  0.00     2.671 C  
HETATM   13  C   UNL     1      -7.709  16.216  69.471  1.00  0.00    -0.022 C  
HETATM   14  C   UNL     1      -9.150  12.423  67.376  1.00  0.00    -0.183 C  
HETATM   15  C   UNL     1     -10.620  18.637  70.699  1.00  0.00     2.335 C  
HETATM   16  C   UNL     1      -8.405  12.528  68.825  1.00  0.00     0.134 C  
HETATM   17  O   UNL     1     -11.547  19.224  69.759  1.00  0.00     4.214 OA 
HETATM   18  C   UNL     1      -9.519  13.499  66.535  1.00  0.00    -0.265 C  
HETATM   19  C   UNL     1     -11.351  13.843  66.589  1.00  0.00    -0.342 C  
HETATM   20  C   UNL     1      -9.089  16.658  68.804  1.00  0.00    -0.256 C  
HETATM   21  O   UNL     1      -8.861  17.064  66.248  1.00  0.00    -0.305 OA 
HETATM   22  C   UNL     1      -8.396  14.700  66.855  1.00  0.00    -0.126 C  
HETATM   23  C   UNL     1     -12.422  18.080  69.883  1.00  0.00    10.764 C  
HETATM   24  C   UNL     1     -12.057  15.188  66.075  1.00  0.00     0.291 C  
ENDROOT
BRANCH   2  25
HETATM   25  O   UNL     1     -12.164  13.526  70.412  1.00  0.00    -0.339 OA 
BRANCH  25  26
HETATM   26  C   UNL     1     -11.673  12.165  70.316  1.00  0.00    -0.153 C  
HETATM   27  O   UNL     1     -10.625  11.981  69.695  1.00  0.00     0.157 OA 
BRANCH  26  28
HETATM   28  C   UNL     1     -12.527  10.787  70.670  1.00  0.00    -0.461 A  
HETATM   29  C   UNL     1     -13.923   8.714  70.178  1.00  0.00     2.158 A  
HETATM   30  C   UNL     1     -12.961  10.591  71.996  1.00  0.00    -0.490 A  
HETATM   31  C   UNL     1     -13.166   9.857  69.778  1.00  0.00     1.268 A  
HETATM   32  C   UNL     1     -13.786   9.489  72.407  1.00  0.00    -0.408 A  
HETATM   33  C   UNL     1     -14.227   8.523  71.510  1.00  0.00    -0.448 A  
ENDBRANCH  26  28
ENDBRANCH  25  26
ENDBRANCH   2  25
BRANCH   8  34
HETATM   34  O   UNL     1      -9.453  10.174  68.086  1.00  0.00    -0.141 OA 
BRANCH  34  35
HETATM   35  C   UNL     1      -9.091  10.200  69.412  1.00  0.00    -0.203 C  
HETATM   36  O   UNL     1      -9.871  10.606  70.277  1.00  0.00     0.316 OA 
BRANCH  35  37
HETATM   37  C   UNL     1      -7.592   9.927  69.798  1.00  0.00    -0.150 C  
HETATM   38  H   UNL     1      -6.516  10.073  71.443  1.00  0.00     0.000 HD 
HETATM   39  O   UNL     1      -7.423  10.239  71.211  1.00  0.00     0.518 OA 
BRANCH  37  40
HETATM   40  C   UNL     1      -6.267  10.356  68.972  1.00  0.00    -0.044 C  
BRANCH  40  41
HETATM   41  C   UNL     1      -5.828  11.779  69.471  1.00  0.00    -0.083 A  
HETATM   42  C   UNL     1      -5.410  12.749  68.553  1.00  0.00    -0.060 A  
HETATM   43  C   UNL     1      -6.015  12.185  70.813  1.00  0.00     0.147 A  
HETATM   44  C   UNL     1      -5.780  13.514  71.246  1.00  0.00    -0.148 A  
HETATM   45  C   UNL     1      -5.162  14.080  68.998  1.00  0.00    -0.074 A  
HETATM   46  C   UNL     1      -5.332  14.450  70.298  1.00  0.00    -0.104 A  
ENDBRANCH  40  41
BRANCH  40  47
HETATM   47  N   UNL     1      -6.080  10.150  67.429  1.00  0.00    -0.057 N  
HETATM   48  C   UNL     1      -6.863   9.417  66.494  1.00  0.00    -0.083 C  
HETATM   49  H   UNL     1      -5.265  10.617  67.031  1.00  0.00     0.000 HD 
HETATM   50  O   UNL     1      -7.972   8.977  66.766  1.00  0.00    -0.105 OA 
BRANCH  48  51
HETATM   51  O   UNL     1      -6.251   9.229  65.235  1.00  0.00    -0.062 OA 
HETATM   52  C   UNL     1      -6.555   8.143  64.187  1.00  0.00    -0.066 C  
HETATM   53  C   UNL     1      -6.559   6.693  64.705  1.00  0.00    -0.042 C  
HETATM   54  C   UNL     1      -5.480   8.128  63.043  1.00  0.00    -0.060 C  
HETATM   55  C   UNL     1      -7.899   8.422  63.486  1.00  0.00    -0.152 C  
ENDBRANCH  48  51
ENDBRANCH  40  47
ENDBRANCH  37  40
ENDBRANCH  35  37
ENDBRANCH  34  35
ENDBRANCH   8  34
BRANCH  22  56
HETATM   56  O   UNL     1      -7.120  14.427  66.232  1.00  0.00     1.701 OA 
HETATM   57  C   UNL     1      -6.239  15.569  66.148  1.00  0.00     3.674 C  
ENDBRANCH  22  56
BRANCH  11  58
HETATM   58  O   UNL     1      -9.616  19.028  67.974  1.00  0.00    -0.304 OA 
HETATM   59  C   UNL     1      -8.820  20.088  67.418  1.00  0.00    -0.346 C  
ENDBRANCH  11  58
BRANCH   5  60
HETATM   60  O   UNL     1     -11.679  16.509  71.763  1.00  0.00    -0.435 OA 
BRANCH  60  61
HETATM   61  C   UNL     1     -12.935  16.084  71.928  1.00  0.00    -0.212 C  
HETATM   62  C   UNL     1     -13.274  16.110  73.396  1.00  0.00    -0.563 C  
HETATM   63  O   UNL     1     -13.780  15.776  71.079  1.00  0.00    -0.539 OA 
ENDBRANCH  60  61
ENDBRANCH   5  60
TORSDOF 14
ENDMDL
MODEL       59
REMARK 921   NORMALIZED FREE ENERGY PREDICTED BY IDOCK:   29.77 KCAL/MOL
REMARK 922        TOTAL FREE ENERGY PREDICTED BY IDOCK:   50.80 KCAL/MOL
REMARK 923 INTER-LIGAND FREE ENERGY PREDICTED BY IDOCK:   43.83 KCAL/MOL
REMARK 924 INTRA-LIGAND FREE ENERGY PREDICTED BY IDOCK:    6.97 KCAL/MOL
REMARK 927      BINDING AFFINITY PREDICTED BY RF-SCORE:    0.00 PKD
ROOT
HETATM    1  C   UNL     1     -10.242  14.585  70.233  1.00  0.00     0.635 C  
HETATM    2  C   UNL     1      -9.791  12.701  70.165  1.00  0.00     3.366 C  
HETATM    3  C   UNL     1     -11.658  10.107  68.349  1.00  0.00     0.043 C  
HETATM    4  C   UNL     1     -10.296  12.110  68.808  1.00  0.00    -0.147 C  
HETATM    5  C   UNL     1      -9.907  15.249  71.605  1.00  0.00     2.626 C  
HETATM    6  O   UNL     1     -10.515  13.444  68.491  1.00  0.00    -0.247 OA 
HETATM    7  C   UNL     1      -9.183  11.365  67.907  1.00  0.00    -0.164 C  
HETATM    8  C   UNL     1      -9.464  11.087  66.386  1.00  0.00    -0.193 C  
HETATM    9  C   UNL     1     -12.054  15.215  67.827  1.00  0.00     0.129 C  
HETATM   10  H   UNL     1     -10.822  13.085  67.666  1.00  0.00     0.000 HD 
HETATM   11  C   UNL     1     -11.549  17.039  69.678  1.00  0.00     1.095 C  
HETATM   12  C   UNL     1     -10.563  17.600  70.699  1.00  0.00     1.639 C  
HETATM   13  C   UNL     1      -9.925  16.601  67.953  1.00  0.00    -0.254 C  
HETATM   14  C   UNL     1     -10.026  12.416  66.133  1.00  0.00    -0.267 C  
HETATM   15  C   UNL     1     -10.415  16.703  71.902  1.00  0.00     3.203 C  
HETATM   16  C   UNL     1      -8.740  13.417  66.234  1.00  0.00     0.358 C  
HETATM   17  O   UNL     1     -11.625  16.208  72.516  1.00  0.00    -0.430 OA 
HETATM   18  C   UNL     1     -11.326  12.655  66.636  1.00  0.00    -0.379 C  
HETATM   19  C   UNL     1     -11.670  11.693  68.196  1.00  0.00    -0.365 C  
HETATM   20  C   UNL     1     -10.883  15.790  68.936  1.00  0.00    -0.260 C  
HETATM   21  O   UNL     1     -13.257  15.449  67.936  1.00  0.00     2.531 OA 
HETATM   22  C   UNL     1     -11.509  14.319  66.579  1.00  0.00    -0.360 C  
HETATM   23  C   UNL     1     -11.058  14.881  72.602  1.00  0.00     0.784 C  
HETATM   24  C   UNL     1     -12.863  11.993  69.225  1.00  0.00     1.138 C  
ENDROOT
BRANCH   2  25
HETATM   25  O   UNL     1      -8.320  12.090  70.196  1.00  0.00     2.248 OA 
BRANCH  25  26
HETATM   26  C   UNL     1      -7.930  10.926  70.968  1.00  0.00     4.060 C  
HETATM   27  O   UNL     1      -6.804  10.464  70.773  1.00  0.00    -0.337 OA 
BRANCH  26  28
HETATM   28  C   UNL     1      -8.942   9.952  71.853  1.00  0.00     3.025 A  
HETATM   29  C   UNL     1     -11.170   9.094  72.740  1.00  0.00     1.080 A  
HETATM   30  C   UNL     1      -8.393   9.204  72.913  1.00  0.00     1.158 A  
HETATM   31  C   UNL     1     -10.379   9.945  71.910  1.00  0.00     1.627 A  
HETATM   32  C   UNL     1      -9.179   8.400  73.807  1.00  0.00     0.283 A  
HETATM   33  C   UNL     1     -10.560   8.305  73.692  1.00  0.00     1.318 A  
ENDBRANCH  26  28
ENDBRANCH  25  26
ENDBRANCH   2  25
BRANCH   8  34
HETATM   34  O   UNL     1      -8.339  10.887  65.447  1.00  0.00    -0.144 OA 
BRANCH  34  35
HETATM   35  C   UNL     1      -7.147  10.466  65.990  1.00  0.00    -0.133 C  
HETATM   36  O   UNL     1      -6.100  11.084  65.784  1.00  0.00    -0.117 OA 
BRANCH  35  37
HETATM   37  C   UNL     1      -7.084   9.059  66.687  1.00  0.00    -0.081 C  
HETATM   38  H   UNL     1      -5.649   7.796  67.173  1.00  0.00     0.000 HD 
HETATM   39  O   UNL     1      -5.688   8.647  66.752  1.00  0.00    -0.045 OA 
BRANCH  37  40
HETATM   40  C   UNL     1      -8.029   7.774  66.406  1.00  0.00    -0.099 C  
BRANCH  40  41
HETATM   41  C   UNL     1      -8.681   7.957  64.989  1.00  0.00     0.070 A  
HETATM   42  C   UNL     1      -9.472   9.080  64.717  1.00  0.00     0.283 A  
HETATM   43  C   UNL     1      -8.345   7.115  63.903  1.00  0.00     0.190 A  
HETATM   44  C   UNL     1      -8.794   7.362  62.581  1.00  0.00     0.611 A  
HETATM   45  C   UNL     1      -9.931   9.314  63.389  1.00  0.00     2.278 A  
HETATM   46  C   UNL     1      -9.612   8.483  62.358  1.00  0.00     1.841 A  
ENDBRANCH  40  41
BRANCH  40  47
HETATM   47  N   UNL     1      -8.997   7.140  67.462  1.00  0.00    -0.122 N  
HETATM   48  C   UNL     1     -10.394   6.873  67.391  1.00  0.00    -0.231 C  
HETATM   49  H   UNL     1      -8.556   6.875  68.342  1.00  0.00     0.000 HD 
HETATM   50  O   UNL     1     -11.024   6.938  66.345  1.00  0.00     0.107 OA 
BRANCH  48  51
HETATM   51  O   UNL     1     -10.991   6.541  68.627  1.00  0.00    -0.278 OA 
HETATM   52  C   UNL     1     -10.595   5.413  69.597  1.00  0.00    -0.258 C  
HETATM   53  C   UNL     1     -10.460   4.010  68.977  1.00  0.00     1.189 C  
HETATM   54  C   UNL     1     -11.669   5.219  70.726  1.00  0.00     1.631 C  
HETATM   55  C   UNL     1      -9.284   5.758  70.330  1.00  0.00    -0.174 C  
ENDBRANCH  48  51
ENDBRANCH  40  47
ENDBRANCH  37  40
ENDBRANCH  35  37
ENDBRANCH  34  35
ENDBRANCH   8  34
BRANCH  22  56
HETATM   56  O   UNL     1     -11.757  14.789  65.234  1.00  0.00    -0.351 OA 
HETATM   57  C   UNL     1     -12.331  13.800  64.351  1.00  0.00    -0.344 C  
ENDBRANCH  22  56
BRANCH  11  58
HETATM   58  O   UNL     1     -12.833  16.815  70.251  1.00  0.00     2.044 OA 
HETATM   59  C   UNL     1     -13.254  15.446  70.130  1.00  0.00     0.168 C  
ENDBRANCH  11  58
BRANCH   5  60
HETATM   60  O   UNL     1      -8.574  14.863  71.985  1.00  0.00     4.125 OA 
BRANCH  60  61
HETATM   61  C   UNL     1      -7.641  14.642  71.054  1.00  0.00     2.098 C  
HETATM   62  C   UNL     1      -6.397  14.117  71.721  1.00  0.00     0.723 C  
HETATM   63  O   UNL     1      -7.716  14.744  69.824  1.00  0.00    -0.090 OA 
ENDBRANCH  60  61
ENDBRANCH   5  60
TORSDOF 14
ENDMDL
MODEL       60
REMARK 921   NORMALIZED FREE ENERGY PREDICTED BY IDOCK:   39.13 KCAL/MOL
REMARK 922        TOTAL FREE ENERGY PREDICTED BY IDOCK:   67.84 KCAL/MOL
REMARK 923 INTER-LIGAND FREE ENERGY PREDICTED BY IDOCK:   64.36 KCAL/MOL
REMARK 924 INTRA-LIGAND FREE ENERGY PREDICTED BY IDOCK:    3.47 KCAL/MOL
REMARK 927      BINDING AFFINITY PREDICTED BY RF-SCORE:    0.00 PKD
ROOT
HETATM    1  C   UNL     1      -9.107  10.384  66.191  1.00  0.00    -0.183 C  
HETATM    2  C   UNL     1     -10.941  10.640  66.762  1.00  0.00    -0.115 C  
HETATM    3  C   UNL     1     -13.667   8.200  66.398  1.00  0.00    23.158 C  
HETATM    4  C   UNL     1     -11.556   9.248  67.123  1.00  0.00     2.239 C  
HETATM    5  C   UNL     1      -8.434  11.695  65.674  1.00  0.00     0.290 C  
HETATM    6  O   UNL     1     -10.243   8.814  67.000  1.00  0.00    -0.234 OA 
HETATM    7  C   UNL     1     -12.185   9.118  68.604  1.00  0.00     2.979 C  
HETATM    8  C   UNL     1     -12.466   7.698  69.215  1.00  0.00     2.804 C  
HETATM    9  C   UNL     1      -8.608   7.360  65.925  1.00  0.00    -0.153 C  
HETATM   10  H   UNL     1     -10.616   7.968  67.219  1.00  0.00     0.000 HD 
HETATM   11  C   UNL     1      -6.772   9.122  65.194  1.00  0.00    -0.073 C  
HETATM   12  C   UNL     1      -6.140  10.492  65.420  1.00  0.00    -0.122 C  
HETATM   13  C   UNL     1      -7.038   8.565  67.523  1.00  0.00    -0.080 C  
HETATM   14  C   UNL     1     -11.189   7.133  68.771  1.00  0.00     0.073 C  
HETATM   15  C   UNL     1      -7.036  11.617  64.968  1.00  0.00     2.103 C  
HETATM   16  C   UNL     1     -10.078   7.875  69.709  1.00  0.00    -0.199 C  
HETATM   17  O   UNL     1      -7.647  11.497  63.664  1.00  0.00     1.227 OA 
HETATM   18  C   UNL     1     -11.075   6.845  67.391  1.00  0.00    -0.322 C  
HETATM   19  C   UNL     1     -12.085   8.006  66.339  1.00  0.00     7.468 C  
HETATM   20  C   UNL     1      -7.946   8.903  66.256  1.00  0.00    -0.103 C  
HETATM   21  O   UNL     1      -8.484   6.793  64.839  1.00  0.00    -0.074 OA 
HETATM   22  C   UNL     1      -9.433   6.637  67.131  1.00  0.00    -0.136 C  
HETATM   23  C   UNL     1      -8.919  11.925  64.202  1.00  0.00     0.648 C  
HETATM   24  C   UNL     1     -11.909   8.217  64.759  1.00  0.00    15.704 C  
ENDROOT
BRANCH   2  25
HETATM   25  O   UNL     1     -11.419  11.483  68.027  1.00  0.00    -0.276 OA 
BRANCH  25  26
HETATM   26  C   UNL     1     -12.231  12.681  67.957  1.00  0.00     0.119 C  
HETATM   27  O   UNL     1     -13.267  12.708  68.625  1.00  0.00     2.057 OA 
BRANCH  26  28
HETATM   28  C   UNL     1     -12.094  13.894  66.832  1.00  0.00    -0.467 A  
HETATM   29  C   UNL     1     -12.176  14.950  64.515  1.00  0.00    -0.396 A  
HETATM   30  C   UNL     1     -11.359  15.046  67.176  1.00  0.00    -0.323 A  
HETATM   31  C   UNL     1     -12.368  13.862  65.420  1.00  0.00    -0.494 A  
HETATM   32  C   UNL     1     -11.091  16.118  66.260  1.00  0.00     0.092 A  
HETATM   33  C   UNL     1     -11.540  16.096  64.944  1.00  0.00     0.048 A  
ENDBRANCH  26  28
ENDBRANCH  25  26
ENDBRANCH   2  25
BRANCH   8  34
HETATM   34  O   UNL     1     -12.551   7.524  70.681  1.00  0.00    -0.062 OA 
BRANCH  34  35
HETATM   35  C   UNL     1     -11.883   6.447  71.216  1.00  0.00    -0.273 C  
HETATM   36  O   UNL     1     -11.972   5.326  70.709  1.00  0.00     1.488 OA 
BRANCH  35  37
HETATM   37  C   UNL     1     -11.188   6.603  72.616  1.00  0.00    -0.249 C  
HETATM   38  H   UNL     1     -11.792   7.025  74.445  1.00  0.00     0.000 HD 
HETATM   39  O   UNL     1     -12.213   6.931  73.598  1.00  0.00     1.669 OA 
BRANCH  37  40
HETATM   40  C   UNL     1      -9.819   7.399  72.956  1.00  0.00    -0.230 C  
BRANCH  40  41
HETATM   41  C   UNL     1      -9.748   8.657  72.018  1.00  0.00    -0.391 A  
HETATM   42  C   UNL     1     -10.782   9.601  72.026  1.00  0.00     0.700 A  
HETATM   43  C   UNL     1      -8.578   8.973  71.288  1.00  0.00    -0.221 A  
HETATM   44  C   UNL     1      -8.436  10.186  70.568  1.00  0.00     0.608 A  
HETATM   45  C   UNL     1     -10.637  10.811  71.288  1.00  0.00     2.379 A  
HETATM   46  C   UNL     1      -9.510  11.092  70.577  1.00  0.00     3.111 A  
ENDBRANCH  40  41
BRANCH  40  47
HETATM   47  N   UNL     1      -8.429   6.712  73.186  1.00  0.00    -0.116 N  
HETATM   48  C   UNL     1      -7.466   6.241  72.250  1.00  0.00    -0.094 C  
HETATM   49  H   UNL     1      -8.173   6.582  74.164  1.00  0.00     0.000 HD 
HETATM   50  O   UNL     1      -7.524   6.505  71.056  1.00  0.00    -0.082 OA 
BRANCH  48  51
HETATM   51  O   UNL     1      -6.449   5.436  72.809  1.00  0.00    -0.059 OA 
HETATM   52  C   UNL     1      -6.522   3.945  73.185  1.00  0.00    -0.036 C  
HETATM   53  C   UNL     1      -7.712   3.533  74.072  1.00  0.00    -0.066 C  
HETATM   54  C   UNL     1      -5.266   3.497  74.014  1.00  0.00     0.000 C  
HETATM   55  C   UNL     1      -6.519   3.062  71.922  1.00  0.00    -0.015 C  
ENDBRANCH  48  51
ENDBRANCH  40  47
ENDBRANCH  37  40
ENDBRANCH  35  37
ENDBRANCH  34  35
ENDBRANCH   8  34
BRANCH  22  56
HETATM   56  O   UNL     1      -8.968   5.355  67.611  1.00  0.00    -0.110 OA 
HETATM   57  C   UNL     1      -7.648   4.989  67.154  1.00  0.00    -0.088 C  
ENDBRANCH  22  56
BRANCH  11  58
HETATM   58  O   UNL     1      -7.119   8.919  63.827  1.00  0.00    -0.091 OA 
HETATM   59  C   UNL     1      -5.986   9.052  62.952  1.00  0.00    -0.089 C  
ENDBRANCH  11  58
BRANCH   5  60
HETATM   60  O   UNL     1      -8.705  12.748  66.616  1.00  0.00    -0.167 OA 
BRANCH  60  61
HETATM   61  C   UNL     1      -7.774  13.126  67.497  1.00  0.00    -0.166 C  
HETATM   62  C   UNL     1      -7.953  14.590  67.803  1.00  0.00    -0.168 C  
HETATM   63  O   UNL     1      -6.919  12.447  68.079  1.00  0.00    -0.079 OA 
ENDBRANCH  60  61
ENDBRANCH   5  60
TORSDOF 14
ENDMDL
MODEL       61
REMARK 921   NORMALIZED FREE ENERGY PREDICTED BY IDOCK:   44.44 KCAL/MOL
REMARK 922        TOTAL FREE ENERGY PREDICTED BY IDOCK:   77.49 KCAL/MOL
REMARK 923 INTER-LIGAND FREE ENERGY PREDICTED BY IDOCK:   66.99 KCAL/MOL
REMARK 924 INTRA-LIGAND FREE ENERGY PREDICTED BY IDOCK:   10.50 KCAL/MOL
REMARK 927      BINDING AFFINITY PREDICTED BY RF-SCORE:    0.00 PKD
ROOT
HETATM    1  C   UNL     1     -11.361   7.359  70.298  1.00  0.00    -0.244 C  
HETATM    2  C   UNL     1     -12.045   8.123  68.654  1.00  0.00     3.110 C  
HETATM    3  C   UNL     1     -12.229  11.708  67.862  1.00  0.00     0.338 C  
HETATM    4  C   UNL     1     -11.315   9.479  68.385  1.00  0.00     0.260 C  
HETATM    5  C   UNL     1     -12.118   6.067  70.739  1.00  0.00     0.543 C  
HETATM    6  O   UNL     1     -10.494   9.060  69.423  1.00  0.00    -0.215 OA 
HETATM    7  C   UNL     1     -10.588   9.615  66.950  1.00  0.00    -0.241 C  
HETATM    8  C   UNL     1      -9.512  10.737  66.718  1.00  0.00    -0.173 C  
HETATM    9  C   UNL     1      -9.547   9.454  71.635  1.00  0.00     0.249 C  
HETATM   10  H   UNL     1     -10.050   9.884  69.260  1.00  0.00     0.000 HD 
HETATM   11  C   UNL     1     -10.126   7.171  72.843  1.00  0.00    -0.210 C  
HETATM   12  C   UNL     1     -10.454   5.687  72.705  1.00  0.00    -0.249 C  
HETATM   13  C   UNL     1      -8.422   7.226  71.141  1.00  0.00    -0.116 C  
HETATM   14  C   UNL     1      -8.844  10.514  68.002  1.00  0.00    -0.131 C  
HETATM   15  C   UNL     1     -11.839   5.457  72.157  1.00  0.00     0.230 C  
HETATM   16  C   UNL     1      -8.110   9.068  67.823  1.00  0.00    -0.109 C  
HETATM   17  O   UNL     1     -12.922   6.210  72.748  1.00  0.00     0.403 OA 
HETATM   18  C   UNL     1      -9.520  10.984  69.153  1.00  0.00    -0.064 C  
HETATM   19  C   UNL     1     -11.373  10.930  68.958  1.00  0.00    -0.348 C  
HETATM   20  C   UNL     1      -9.891   7.795  71.391  1.00  0.00    -0.195 C  
HETATM   21  O   UNL     1      -9.865  10.064  72.655  1.00  0.00     3.477 OA 
HETATM   22  C   UNL     1      -8.756  10.227  70.437  1.00  0.00     0.712 C  
HETATM   23  C   UNL     1     -13.448   6.514  71.436  1.00  0.00     0.370 C  
HETATM   24  C   UNL     1     -12.435  11.023  70.156  1.00  0.00    -0.344 C  
ENDROOT
BRANCH   2  25
HETATM   25  O   UNL     1     -11.944   7.469  67.204  1.00  0.00     2.043 OA 
BRANCH  25  26
HETATM   26  C   UNL     1     -10.741   7.448  66.395  1.00  0.00     0.605 C  
HETATM   27  O   UNL     1     -10.590   8.357  65.576  1.00  0.00     1.794 OA 
BRANCH  26  28
HETATM   28  C   UNL     1      -9.700   6.168  66.217  1.00  0.00    -0.106 A  
HETATM   29  C   UNL     1      -7.467   5.014  65.803  1.00  0.00    -0.082 A  
HETATM   30  C   UNL     1     -10.244   4.893  65.966  1.00  0.00    -0.287 A  
HETATM   31  C   UNL     1      -8.280   6.174  65.990  1.00  0.00    -0.127 A  
HETATM   32  C   UNL     1      -9.447   3.728  65.701  1.00  0.00    -0.170 A  
HETATM   33  C   UNL     1      -8.058   3.776  65.668  1.00  0.00    -0.093 A  
ENDBRANCH  26  28
ENDBRANCH  25  26
ENDBRANCH   2  25
BRANCH   8  34
HETATM   34  O   UNL     1      -8.501  10.588  65.651  1.00  0.00    -0.165 OA 
BRANCH  34  35
HETATM   35  C   UNL     1      -7.871  11.735  65.230  1.00  0.00     1.401 C  
HETATM   36  O   UNL     1      -6.641  11.821  65.222  1.00  0.00     1.219 OA 
BRANCH  35  37
HETATM   37  C   UNL     1      -8.731  13.026  64.976  1.00  0.00     2.270 C  
HETATM   38  H   UNL     1      -8.345  14.941  64.707  1.00  0.00     0.000 HD 
HETATM   39  O   UNL     1      -7.824  14.160  64.861  1.00  0.00     6.822 OA 
BRANCH  37  40
HETATM   40  C   UNL     1     -10.087  13.474  65.740  1.00  0.00    -0.287 C  
BRANCH  40  41
HETATM   41  C   UNL     1     -10.783  14.584  64.873  1.00  0.00    -0.448 A  
HETATM   42  C   UNL     1     -10.021  15.599  64.285  1.00  0.00     2.565 A  
HETATM   43  C   UNL     1     -12.147  14.492  64.507  1.00  0.00    -0.501 A  
HETATM   44  C   UNL     1     -12.751  15.392  63.593  1.00  0.00     1.165 A  
HETATM   45  C   UNL     1     -10.639  16.508  63.378  1.00  0.00     6.268 A  
HETATM   46  C   UNL     1     -11.957  16.416  63.049  1.00  0.00     5.905 A  
ENDBRANCH  40  41
BRANCH  40  47
HETATM   47  N   UNL     1     -10.190  13.730  67.282  1.00  0.00    -0.251 N  
HETATM   48  C   UNL     1     -11.280  14.196  68.070  1.00  0.00    -0.281 C  
HETATM   49  H   UNL     1      -9.339  13.530  67.807  1.00  0.00     0.000 HD 
HETATM   50  O   UNL     1     -12.419  14.283  67.633  1.00  0.00    -0.141 OA 
BRANCH  48  51
HETATM   51  O   UNL     1     -10.936  14.562  69.391  1.00  0.00    -0.252 OA 
HETATM   52  C   UNL     1      -9.614  15.174  69.890  1.00  0.00     0.026 C  
HETATM   53  C   UNL     1      -8.331  14.433  69.471  1.00  0.00     0.356 C  
HETATM   54  C   UNL     1      -9.541  15.189  71.458  1.00  0.00     2.944 C  
HETATM   55  C   UNL     1      -9.498  16.648  69.457  1.00  0.00     0.102 C  
ENDBRANCH  48  51
ENDBRANCH  40  47
ENDBRANCH  37  40
ENDBRANCH  35  37
ENDBRANCH  34  35
ENDBRANCH   8  34
BRANCH  22  56
HETATM   56  O   UNL     1      -7.475  10.828  70.735  1.00  0.00     0.489 OA 
HETATM   57  C   UNL     1      -6.607  10.013  71.553  1.00  0.00     0.589 C  
ENDBRANCH  22  56
BRANCH  11  58
HETATM   58  O   UNL     1     -11.070   7.845  73.670  1.00  0.00    -0.101 OA 
HETATM   59  C   UNL     1     -10.448   8.813  74.531  1.00  0.00     8.037 C  
ENDBRANCH  11  58
BRANCH   5  60
HETATM   60  O   UNL     1     -12.245   5.201  69.597  1.00  0.00     4.799 OA 
BRANCH  60  61
HETATM   61  C   UNL     1     -11.421   4.161  69.439  1.00  0.00     6.975 C  
HETATM   62  C   UNL     1     -10.963   3.688  70.794  1.00  0.00     2.729 C  
HETATM   63  O   UNL     1     -11.093   3.566  68.406  1.00  0.00     4.123 OA 
ENDBRANCH  60  61
ENDBRANCH   5  60
TORSDOF 14
ENDMDL
MODEL       62
REMARK 921   NORMALIZED FREE ENERGY PREDICTED BY IDOCK:   50.58 KCAL/MOL
REMARK 922        TOTAL FREE ENERGY PREDICTED BY IDOCK:   88.65 KCAL/MOL
REMARK 923 INTER-LIGAND FREE ENERGY PREDICTED BY IDOCK:   24.97 KCAL/MOL
REMARK 924 INTRA-LIGAND FREE ENERGY PREDICTED BY IDOCK:   63.69 KCAL/MOL
REMARK 927      BINDING AFFINITY PREDICTED BY RF-SCORE:    0.00 PKD
ROOT
HETATM    1  C   UNL     1      -9.390   9.170  69.911  1.00  0.00    -0.198 C  
HETATM    2  C   UNL     1      -8.271  10.647  69.344  1.00  0.00    -0.078 C  
HETATM    3  C   UNL     1      -5.136  10.365  67.445  1.00  0.00    -0.040 C  
HETATM    4  C   UNL     1      -7.529  10.242  68.029  1.00  0.00    -0.087 C  
HETATM    5  C   UNL     1     -10.076   9.412  71.292  1.00  0.00    -0.238 C  
HETATM    6  O   UNL     1      -8.396   9.159  68.061  1.00  0.00    -0.119 OA 
HETATM    7  C   UNL     1      -7.723  11.239  66.774  1.00  0.00    -0.155 C  
HETATM    8  C   UNL     1      -7.367  10.751  65.323  1.00  0.00     0.105 C  
HETATM    9  C   UNL     1      -8.733   6.745  68.135  1.00  0.00    -0.122 C  
HETATM   10  H   UNL     1      -7.945   8.912  67.262  1.00  0.00     0.000 HD 
HETATM   11  C   UNL     1     -10.392   6.533  70.187  1.00  0.00    -0.201 C  
HETATM   12  C   UNL     1     -11.437   7.203  71.074  1.00  0.00    -0.331 C  
HETATM   13  C   UNL     1     -11.174   7.460  68.106  1.00  0.00     0.268 C  
HETATM   14  C   UNL     1      -8.003   9.443  65.488  1.00  0.00    -0.111 C  
HETATM   15  C   UNL     1     -10.829   8.230  71.996  1.00  0.00    -0.301 C  
HETATM   16  C   UNL     1      -9.600   9.779  65.529  1.00  0.00    -0.348 C  
HETATM   17  O   UNL     1      -9.644   7.847  72.729  1.00  0.00    -0.196 OA 
HETATM   18  C   UNL     1      -7.315   8.505  66.293  1.00  0.00    -0.079 C  
HETATM   19  C   UNL     1      -6.326   9.323  67.645  1.00  0.00    -0.059 C  
HETATM   20  C   UNL     1      -9.908   7.567  69.070  1.00  0.00    -0.170 C  
HETATM   21  O   UNL     1      -8.116   5.762  68.543  1.00  0.00    -0.106 OA 
HETATM   22  C   UNL     1      -8.449   7.321  66.636  1.00  0.00    -0.124 C  
HETATM   23  C   UNL     1      -9.017   9.108  72.405  1.00  0.00     0.817 C  
HETATM   24  C   UNL     1      -5.741   8.584  68.942  1.00  0.00    -0.040 C  
ENDROOT
BRANCH   2  25
HETATM   25  O   UNL     1      -8.778  12.101  68.931  1.00  0.00     0.051 OA 
BRANCH  25  26
HETATM   26  C   UNL     1      -7.917  13.257  68.772  1.00  0.00     0.034 C  
HETATM   27  O   UNL     1      -6.740  13.142  69.118  1.00  0.00    -0.105 OA 
BRANCH  26  28
HETATM   28  C   UNL     1      -8.410  14.814  68.479  1.00  0.00    -0.160 A  
HETATM   29  C   UNL     1      -8.202  17.211  67.643  1.00  0.00    -0.194 A  
HETATM   30  C   UNL     1      -9.523  15.308  69.188  1.00  0.00    -0.236 A  
HETATM   31  C   UNL     1      -7.713  15.880  67.810  1.00  0.00    -0.156 A  
HETATM   32  C   UNL     1      -9.987  16.664  69.091  1.00  0.00    -0.263 A  
HETATM   33  C   UNL     1      -9.359  17.603  68.282  1.00  0.00    -0.290 A  
ENDBRANCH  26  28
ENDBRANCH  25  26
ENDBRANCH   2  25
BRANCH   8  34
HETATM   34  O   UNL     1      -7.980  11.407  64.148  1.00  0.00     0.753 OA 
BRANCH  34  35
HETATM   35  C   UNL     1      -9.212  11.988  64.336  1.00  0.00     0.419 C  
HETATM   36  O   UNL     1      -9.436  13.141  63.962  1.00  0.00     0.299 OA 
BRANCH  35  37
HETATM   37  C   UNL     1     -10.267  11.256  65.241  1.00  0.00    -0.274 C  
HETATM   38  H   UNL     1     -12.218  10.978  65.179  1.00  0.00     0.000 HD 
HETATM   39  O   UNL     1     -11.580  11.420  64.632  1.00  0.00    -0.123 OA 
BRANCH  37  40
HETATM   40  C   UNL     1     -10.394  11.314  66.855  1.00  0.00    -0.234 C  
BRANCH  40  41
HETATM   41  C   UNL     1     -11.258  10.087  67.315  1.00  0.00     0.058 A  
HETATM   42  C   UNL     1     -10.971   8.804  66.834  1.00  0.00     0.250 A  
HETATM   43  C   UNL     1     -12.213  10.198  68.353  1.00  0.00     1.547 A  
HETATM   44  C   UNL     1     -12.883   9.072  68.895  1.00  0.00     5.398 A  
HETATM   45  C   UNL     1     -11.659   7.679  67.373  1.00  0.00     1.496 A  
HETATM   46  C   UNL     1     -12.588   7.806  68.362  1.00  0.00     6.284 A  
ENDBRANCH  40  41
BRANCH  40  47
HETATM   47  N   UNL     1     -10.679  12.620  67.673  1.00  0.00    -0.215 N  
HETATM   48  C   UNL     1     -11.582  12.858  68.747  1.00  0.00    -0.311 C  
HETATM   49  H   UNL     1     -10.128  13.431  67.391  1.00  0.00     0.000 HD 
HETATM   50  O   UNL     1     -12.159  11.954  69.336  1.00  0.00    -0.280 OA 
BRANCH  48  51
HETATM   51  O   UNL     1     -11.767  14.222  69.068  1.00  0.00    -0.278 OA 
HETATM   52  C   UNL     1     -12.579  15.275  68.292  1.00  0.00     0.876 C  
HETATM   53  C   UNL     1     -12.265  15.390  66.788  1.00  0.00     0.782 C  
HETATM   54  C   UNL     1     -12.317  16.723  68.839  1.00  0.00     1.882 C  
HETATM   55  C   UNL     1     -14.091  15.035  68.465  1.00  0.00     8.852 C  
ENDBRANCH  48  51
ENDBRANCH  40  47
ENDBRANCH  37  40
ENDBRANCH  35  37
ENDBRANCH  34  35
ENDBRANCH   8  34
BRANCH  22  56
HETATM   56  O   UNL     1      -8.674   6.445  65.508  1.00  0.00    -0.141 OA 
HETATM   57  C   UNL     1      -9.556   5.333  65.781  1.00  0.00    -0.089 C  
ENDBRANCH  22  56
BRANCH  11  58
HETATM   58  O   UNL     1      -9.364   5.915  70.956  1.00  0.00    -0.158 OA 
HETATM   59  C   UNL     1      -8.509   6.877  71.596  1.00  0.00    -0.117 C  
ENDBRANCH  11  58
BRANCH   5  60
HETATM   60  O   UNL     1     -10.653  10.731  71.290  1.00  0.00     1.433 OA 
BRANCH  60  61
HETATM   61  C   UNL     1     -11.965  10.897  71.480  1.00  0.00     0.141 C  
HETATM   62  C   UNL     1     -12.576  11.458  70.223  1.00  0.00    -0.225 C  
HETATM   63  O   UNL     1     -12.663  10.599  72.457  1.00  0.00     0.170 OA 
ENDBRANCH  60  61
ENDBRANCH   5  60
TORSDOF 14
ENDMDL
MODEL       63
REMARK 921   NORMALIZED FREE ENERGY PREDICTED BY IDOCK:   51.98 KCAL/MOL
REMARK 922        TOTAL FREE ENERGY PREDICTED BY IDOCK:   91.20 KCAL/MOL
REMARK 923 INTER-LIGAND FREE ENERGY PREDICTED BY IDOCK:   17.67 KCAL/MOL
REMARK 924 INTRA-LIGAND FREE ENERGY PREDICTED BY IDOCK:   73.54 KCAL/MOL
REMARK 927      BINDING AFFINITY PREDICTED BY RF-SCORE:    0.00 PKD
ROOT
HETATM    1  C   UNL     1      -8.922  14.372  68.148  1.00  0.00    -0.185 C  
HETATM    2  C   UNL     1      -8.345  12.685  67.386  1.00  0.00    -0.184 C  
HETATM    3  C   UNL     1      -5.157  10.991  68.078  1.00  0.00    -0.036 C  
HETATM    4  C   UNL     1      -7.397  11.970  68.403  1.00  0.00    -0.096 C  
HETATM    5  C   UNL     1      -9.766  15.237  67.162  1.00  0.00    -0.217 C  
HETATM    6  O   UNL     1      -7.830  12.968  69.265  1.00  0.00    -0.297 OA 
HETATM    7  C   UNL     1      -7.818  10.470  68.824  1.00  0.00    -0.116 C  
HETATM    8  C   UNL     1      -7.189   9.809  70.104  1.00  0.00    -0.145 C  
HETATM    9  C   UNL     1      -7.307  14.851  70.723  1.00  0.00     1.079 C  
HETATM   10  H   UNL     1      -7.253  12.534  69.884  1.00  0.00     0.000 HD 
HETATM   11  C   UNL     1      -8.957  16.692  69.777  1.00  0.00     0.753 C  
HETATM   12  C   UNL     1     -10.244  17.000  69.016  1.00  0.00    -0.313 C  
HETATM   13  C   UNL     1      -9.831  14.832  71.034  1.00  0.00     1.880 C  
HETATM   14  C   UNL     1      -7.340  11.008  70.931  1.00  0.00     2.533 C  
HETATM   15  C   UNL     1     -10.116  16.718  67.540  1.00  0.00    -0.276 C  
HETATM   16  C   UNL     1      -8.951  11.130  71.166  1.00  0.00     6.976 C  
HETATM   17  O   UNL     1      -8.940  17.220  66.867  1.00  0.00    -0.225 OA 
HETATM   18  C   UNL     1      -6.440  12.068  70.673  1.00  0.00     0.842 C  
HETATM   19  C   UNL     1      -5.921  12.135  68.883  1.00  0.00    -0.064 C  
HETATM   20  C   UNL     1      -8.771  15.108  69.875  1.00  0.00     0.196 C  
HETATM   21  O   UNL     1      -6.422  15.702  70.811  1.00  0.00     0.282 OA 
HETATM   22  C   UNL     1      -7.113  13.398  71.436  1.00  0.00     3.952 C  
HETATM   23  C   UNL     1      -8.768  15.954  66.190  1.00  0.00    -0.293 C  
HETATM   24  C   UNL     1      -5.229  13.391  68.165  1.00  0.00    -0.104 C  
ENDROOT
BRANCH   2  25
HETATM   25  O   UNL     1      -9.291  11.464  66.993  1.00  0.00    -0.170 OA 
BRANCH  25  26
HETATM   26  C   UNL     1     -10.729  11.557  66.834  1.00  0.00    -0.263 C  
HETATM   27  O   UNL     1     -11.409  10.614  67.240  1.00  0.00    -0.380 OA 
BRANCH  26  28
HETATM   28  C   UNL     1     -11.541  12.643  65.876  1.00  0.00    -0.443 A  
HETATM   29  C   UNL     1     -12.284  14.940  65.064  1.00  0.00    -0.169 A  
HETATM   30  C   UNL     1     -12.625  12.177  65.106  1.00  0.00     0.153 A  
HETATM   31  C   UNL     1     -11.511  14.081  65.903  1.00  0.00    -0.330 A  
HETATM   32  C   UNL     1     -13.461  13.034  64.314  1.00  0.00     1.233 A  
HETATM   33  C   UNL     1     -13.263  14.408  64.252  1.00  0.00     1.279 A  
ENDBRANCH  26  28
ENDBRANCH  25  26
ENDBRANCH   2  25
BRANCH   8  34
HETATM   34  O   UNL     1      -7.889   8.699  70.786  1.00  0.00    -0.084 OA 
BRANCH  34  35
HETATM   35  C   UNL     1      -8.426   7.720  69.984  1.00  0.00    -0.135 C  
HETATM   36  O   UNL     1      -9.645   7.553  69.912  1.00  0.00    -0.161 OA 
BRANCH  35  37
HETATM   37  C   UNL     1      -7.467   6.659  69.333  1.00  0.00    -0.094 C  
HETATM   38  H   UNL     1      -5.515   6.388  69.259  1.00  0.00     0.000 HD 
HETATM   39  O   UNL     1      -6.095   7.030  69.653  1.00  0.00    -0.028 OA 
BRANCH  37  40
HETATM   40  C   UNL     1      -7.541   6.048  67.835  1.00  0.00    -0.097 C  
BRANCH  40  41
HETATM   41  C   UNL     1      -6.697   4.724  67.812  1.00  0.00    -0.051 A  
HETATM   42  C   UNL     1      -5.963   4.337  68.939  1.00  0.00    -0.023 A  
HETATM   43  C   UNL     1      -6.797   3.798  66.747  1.00  0.00    -0.054 A  
HETATM   44  C   UNL     1      -6.174   2.526  66.783  1.00  0.00    -0.024 A  
HETATM   45  C   UNL     1      -5.327   3.062  68.962  1.00  0.00    -0.013 A  
HETATM   46  C   UNL     1      -5.420   2.189  67.921  1.00  0.00    -0.017 A  
ENDBRANCH  40  41
BRANCH  40  47
HETATM   47  N   UNL     1      -7.405   6.898  66.525  1.00  0.00    -0.072 N  
HETATM   48  C   UNL     1      -7.718   6.570  65.176  1.00  0.00    -0.097 C  
HETATM   49  H   UNL     1      -7.033   7.837  66.662  1.00  0.00     0.000 HD 
HETATM   50  O   UNL     1      -8.357   5.573  64.871  1.00  0.00    -0.135 OA 
BRANCH  48  51
HETATM   51  O   UNL     1      -7.218   7.483  64.219  1.00  0.00    -0.069 OA 
HETATM   52  C   UNL     1      -7.547   8.981  64.078  1.00  0.00    -0.118 C  
HETATM   53  C   UNL     1      -9.044   9.338  64.037  1.00  0.00    -0.014 C  
HETATM   54  C   UNL     1      -6.986   9.570  62.736  1.00  0.00    -0.097 C  
HETATM   55  C   UNL     1      -6.874   9.795  65.200  1.00  0.00    -0.109 C  
ENDBRANCH  48  51
ENDBRANCH  40  47
ENDBRANCH  37  40
ENDBRANCH  35  37
ENDBRANCH  34  35
ENDBRANCH   8  34
BRANCH  22  56
HETATM   56  O   UNL     1      -6.918  13.355  72.868  1.00  0.00     3.438 OA 
HETATM   57  C   UNL     1      -6.020  14.364  73.380  1.00  0.00     0.309 C  
ENDBRANCH  22  56
BRANCH  11  58
HETATM   58  O   UNL     1      -7.849  17.422  69.259  1.00  0.00    -0.094 OA 
HETATM   59  C   UNL     1      -7.893  17.537  67.827  1.00  0.00    -0.207 C  
ENDBRANCH  11  58
BRANCH   5  60
HETATM   60  O   UNL     1     -10.765  14.395  66.557  1.00  0.00    -0.298 OA 
BRANCH  60  61
HETATM   61  C   UNL     1     -10.442  13.184  66.096  1.00  0.00    -0.281 C  
HETATM   62  C   UNL     1     -11.247  12.899  64.856  1.00  0.00    -0.331 C  
HETATM   63  O   UNL     1      -9.584  12.390  66.502  1.00  0.00    -0.229 OA 
ENDBRANCH  60  61
ENDBRANCH   5  60
TORSDOF 14
ENDMDL
MODEL       64
REMARK 921   NORMALIZED FREE ENERGY PREDICTED BY IDOCK:   54.24 KCAL/MOL
REMARK 922        TOTAL FREE ENERGY PREDICTED BY IDOCK:   95.31 KCAL/MOL
REMARK 923 INTER-LIGAND FREE ENERGY PREDICTED BY IDOCK:   90.97 KCAL/MOL
REMARK 924 INTRA-LIGAND FREE ENERGY PREDICTED BY IDOCK:    4.34 KCAL/MOL
REMARK 927      BINDING AFFINITY PREDICTED BY RF-SCORE:    0.00 PKD
ROOT
HETATM    1  C   UNL     1     -10.060  15.643  66.964  1.00  0.00    -0.253 C  
HETATM    2  C   UNL     1     -10.575  13.777  66.856  1.00  0.00    -0.276 C  
HETATM    3  C   UNL     1     -10.529  11.706  63.820  1.00  0.00    -0.454 C  
HETATM    4  C   UNL     1      -9.763  13.095  65.707  1.00  0.00    -0.138 C  
HETATM    5  C   UNL     1     -10.909  16.458  67.989  1.00  0.00    -0.342 C  
HETATM    6  O   UNL     1      -9.049  14.285  65.721  1.00  0.00    -0.468 OA 
HETATM    7  C   UNL     1      -8.919  11.784  66.123  1.00  0.00    -0.145 C  
HETATM    8  C   UNL     1      -7.778  11.254  65.182  1.00  0.00     0.665 C  
HETATM    9  C   UNL     1      -8.264  16.272  64.547  1.00  0.00     8.357 C  
HETATM   10  H   UNL     1      -8.555  13.871  65.022  1.00  0.00     0.000 HD 
HETATM   11  C   UNL     1      -9.042  18.179  66.210  1.00  0.00    -0.182 C  
HETATM   12  C   UNL     1      -9.426  18.568  67.635  1.00  0.00    -0.295 C  
HETATM   13  C   UNL     1      -7.207  16.740  66.813  1.00  0.00    -0.270 C  
HETATM   14  C   UNL     1      -7.225  12.585  64.921  1.00  0.00     6.334 C  
HETATM   15  C   UNL     1     -10.773  18.020  68.033  1.00  0.00    -0.285 C  
HETATM   16  C   UNL     1      -6.546  13.020  66.340  1.00  0.00     2.430 C  
HETATM   17  O   UNL     1     -11.863  18.190  67.100  1.00  0.00     1.519 OA 
HETATM   18  C   UNL     1      -7.968  13.415  64.049  1.00  0.00    10.969 C  
HETATM   19  C   UNL     1      -9.800  13.085  64.146  1.00  0.00     0.187 C  
HETATM   20  C   UNL     1      -8.664  16.627  66.173  1.00  0.00    -0.322 C  
HETATM   21  O   UNL     1      -8.634  16.962  63.597  1.00  0.00    11.429 OA 
HETATM   22  C   UNL     1      -7.345  14.952  64.285  1.00  0.00    18.392 C  
HETATM   23  C   UNL     1     -12.268  16.816  67.298  1.00  0.00     2.353 C  
HETATM   24  C   UNL     1     -10.949  14.062  63.600  1.00  0.00     1.027 C  
ENDROOT
BRANCH   2  25
HETATM   25  O   UNL     1     -10.388  12.687  68.003  1.00  0.00    -0.215 OA 
BRANCH  25  26
HETATM   26  C   UNL     1      -9.490  12.829  69.133  1.00  0.00     0.630 C  
HETATM   27  O   UNL     1      -9.839  12.330  70.204  1.00  0.00     2.311 OA 
BRANCH  26  28
HETATM   28  C   UNL     1      -8.195  13.862  69.232  1.00  0.00     0.404 A  
HETATM   29  C   UNL     1      -7.010  16.106  69.450  1.00  0.00    -0.220 A  
HETATM   30  C   UNL     1      -6.935  13.399  68.805  1.00  0.00    -0.103 A  
HETATM   31  C   UNL     1      -8.180  15.288  69.423  1.00  0.00    -0.233 A  
HETATM   32  C   UNL     1      -5.762  14.225  68.754  1.00  0.00    -0.085 A  
HETATM   33  C   UNL     1      -5.785  15.564  69.123  1.00  0.00    -0.105 A  
ENDBRANCH  26  28
ENDBRANCH  25  26
ENDBRANCH   2  25
BRANCH   8  34
HETATM   34  O   UNL     1      -6.692  10.414  65.731  1.00  0.00    -0.113 OA 
BRANCH  34  35
HETATM   35  C   UNL     1      -7.042   9.158  66.167  1.00  0.00    -0.087 C  
HETATM   36  O   UNL     1      -7.598   8.354  65.415  1.00  0.00    -0.086 OA 
BRANCH  35  37
HETATM   37  C   UNL     1      -6.941   8.829  67.700  1.00  0.00    -0.075 C  
HETATM   38  H   UNL     1      -5.481   8.728  69.022  1.00  0.00     0.000 HD 
HETATM   39  O   UNL     1      -5.542   8.927  68.094  1.00  0.00    -0.038 OA 
BRANCH  37  40
HETATM   40  C   UNL     1      -7.659   7.617  68.500  1.00  0.00    -0.110 C  
BRANCH  40  41
HETATM   41  C   UNL     1      -7.698   6.369  67.548  1.00  0.00    -0.101 A  
HETATM   42  C   UNL     1      -8.678   5.384  67.718  1.00  0.00    -0.106 A  
HETATM   43  C   UNL     1      -6.884   6.290  66.394  1.00  0.00    -0.062 A  
HETATM   44  C   UNL     1      -7.020   5.254  65.436  1.00  0.00    -0.065 A  
HETATM   45  C   UNL     1      -8.799   4.338  66.759  1.00  0.00    -0.116 A  
HETATM   46  C   UNL     1      -7.996   4.268  65.661  1.00  0.00    -0.094 A  
ENDBRANCH  40  41
BRANCH  40  47
HETATM   47  N   UNL     1      -8.950   7.777  69.374  1.00  0.00    -0.142 N  
HETATM   48  C   UNL     1      -9.199   8.594  70.512  1.00  0.00    -0.175 C  
HETATM   49  H   UNL     1      -9.740   7.202  69.080  1.00  0.00     0.000 HD 
HETATM   50  O   UNL     1      -8.437   9.484  70.864  1.00  0.00    -0.269 OA 
BRANCH  48  51
HETATM   51  O   UNL     1     -10.390   8.285  71.208  1.00  0.00    -0.195 OA 
HETATM   52  C   UNL     1     -11.789   8.028  70.620  1.00  0.00    -0.093 C  
HETATM   53  C   UNL     1     -12.315   9.098  69.645  1.00  0.00     1.328 C  
HETATM   54  C   UNL     1     -12.886   7.976  71.743  1.00  0.00    -0.353 C  
HETATM   55  C   UNL     1     -11.845   6.654  69.925  1.00  0.00    -0.238 C  
ENDBRANCH  48  51
ENDBRANCH  40  47
ENDBRANCH  37  40
ENDBRANCH  35  37
ENDBRANCH  34  35
ENDBRANCH   8  34
BRANCH  22  56
HETATM   56  O   UNL     1      -6.065  15.122  63.633  1.00  0.00    18.843 OA 
HETATM   57  C   UNL     1      -5.613  16.492  63.550  1.00  0.00    10.183 C  
ENDBRANCH  22  56
BRANCH  11  58
HETATM   58  O   UNL     1     -10.017  18.609  65.264  1.00  0.00     0.076 OA 
HETATM   59  C   UNL     1     -10.027  20.037  65.101  1.00  0.00     0.807 C  
ENDBRANCH  11  58
BRANCH   5  60
HETATM   60  O   UNL     1     -10.984  15.709  69.216  1.00  0.00    -0.232 OA 
BRANCH  60  61
HETATM   61  C   UNL     1     -12.170  15.380  69.737  1.00  0.00    -0.306 C  
HETATM   62  C   UNL     1     -12.694  14.157  69.033  1.00  0.00     0.569 C  
HETATM   63  O   UNL     1     -12.778  15.885  70.689  1.00  0.00    -0.392 OA 
ENDBRANCH  60  61
ENDBRANCH   5  60
TORSDOF 14
ENDMDL
MODEL       65
REMARK 921   NORMALIZED FREE ENERGY PREDICTED BY IDOCK:   61.47 KCAL/MOL
REMARK 922        TOTAL FREE ENERGY PREDICTED BY IDOCK:  108.46 KCAL/MOL
REMARK 923 INTER-LIGAND FREE ENERGY PREDICTED BY IDOCK:   63.52 KCAL/MOL
REMARK 924 INTRA-LIGAND FREE ENERGY PREDICTED BY IDOCK:   44.94 KCAL/MOL
REMARK 927      BINDING AFFINITY PREDICTED BY RF-SCORE:    0.00 PKD
ROOT
HETATM    1  C   UNL     1      -9.545   9.528  68.233  1.00  0.00    -0.151 C  
HETATM    2  C   UNL     1     -10.564  11.099  67.733  1.00  0.00    -0.209 C  
HETATM    3  C   UNL     1     -11.507  13.855  69.975  1.00  0.00    -0.208 C  
HETATM    4  C   UNL     1     -10.137  12.291  68.650  1.00  0.00    -0.144 C  
HETATM    5  C   UNL     1      -9.987   8.239  67.473  1.00  0.00    -0.193 C  
HETATM    6  O   UNL     1      -9.127  11.422  69.039  1.00  0.00    -0.377 OA 
HETATM    7  C   UNL     1      -9.638  13.623  67.887  1.00  0.00    -0.223 C  
HETATM    8  C   UNL     1      -8.827  14.719  68.670  1.00  0.00    -0.180 C  
HETATM    9  C   UNL     1      -7.993  10.184  70.808  1.00  0.00     0.945 C  
HETATM   10  H   UNL     1      -8.867  12.146  69.597  1.00  0.00     0.000 HD 
HETATM   11  C   UNL     1      -7.980   7.743  69.784  1.00  0.00    -0.115 C  
HETATM   12  C   UNL     1      -8.044   6.870  68.534  1.00  0.00    -0.120 C  
HETATM   13  C   UNL     1      -6.549   9.441  68.850  1.00  0.00    -0.047 C  
HETATM   14  C   UNL     1      -7.970  13.749  69.357  1.00  0.00     0.503 C  
HETATM   15  C   UNL     1      -9.421   6.847  67.922  1.00  0.00    -0.120 C  
HETATM   16  C   UNL     1      -7.010  13.159  68.175  1.00  0.00    -0.108 C  
HETATM   17  O   UNL     1     -10.539   6.624  68.810  1.00  0.00    -0.199 OA 
HETATM   18  C   UNL     1      -8.567  13.015  70.407  1.00  0.00     5.274 C  
HETATM   19  C   UNL     1     -10.388  12.730  70.127  1.00  0.00     2.234 C  
HETATM   20  C   UNL     1      -8.053   9.281  69.355  1.00  0.00    -0.108 C  
HETATM   21  O   UNL     1      -8.285   9.713  71.906  1.00  0.00     0.401 OA 
HETATM   22  C   UNL     1      -7.518  11.740  70.689  1.00  0.00     3.496 C  
HETATM   23  C   UNL     1     -11.276   7.694  68.177  1.00  0.00     0.477 C  
HETATM   24  C   UNL     1     -11.286  11.646  70.895  1.00  0.00     1.145 C  
ENDROOT
BRANCH   2  25
HETATM   25  O   UNL     1     -10.530  11.824  66.314  1.00  0.00    -0.229 OA 
BRANCH  25  26
HETATM   26  C   UNL     1      -9.322  12.281  65.654  1.00  0.00     0.010 C  
HETATM   27  O   UNL     1      -9.330  12.331  64.422  1.00  0.00     0.185 OA 
BRANCH  26  28
HETATM   28  C   UNL     1      -7.824  12.438  66.349  1.00  0.00     0.504 A  
HETATM   29  C   UNL     1      -5.444  13.312  66.596  1.00  0.00     1.947 A  
HETATM   30  C   UNL     1      -7.407  11.457  67.271  1.00  0.00    -0.130 A  
HETATM   31  C   UNL     1      -6.722  13.276  65.959  1.00  0.00     4.688 A  
HETATM   32  C   UNL     1      -6.101  11.432  67.867  1.00  0.00    -0.050 A  
HETATM   33  C   UNL     1      -5.135  12.386  67.569  1.00  0.00    -0.096 A  
ENDBRANCH  26  28
ENDBRANCH  25  26
ENDBRANCH   2  25
BRANCH   8  34
HETATM   34  O   UNL     1      -7.950  15.658  67.939  1.00  0.00    -0.135 OA 
BRANCH  34  35
HETATM   35  C   UNL     1      -7.749  15.404  66.602  1.00  0.00     0.133 C  
HETATM   36  O   UNL     1      -7.392  14.290  66.212  1.00  0.00     1.449 OA 
BRANCH  35  37
HETATM   37  C   UNL     1      -7.752  16.607  65.591  1.00  0.00     1.173 C  
HETATM   38  H   UNL     1      -6.774  17.054  63.938  1.00  0.00     0.000 HD 
HETATM   39  O   UNL     1      -6.772  16.327  64.550  1.00  0.00     7.460 OA 
BRANCH  37  40
HETATM   40  C   UNL     1      -7.757  18.189  65.938  1.00  0.00    -0.087 C  
BRANCH  40  41
HETATM   41  C   UNL     1      -6.967  18.933  64.803  1.00  0.00     0.838 A  
HETATM   42  C   UNL     1      -6.638  20.286  64.944  1.00  0.00    -0.323 A  
HETATM   43  C   UNL     1      -6.405  18.234  63.708  1.00  0.00     3.177 A  
HETATM   44  C   UNL     1      -5.552  18.858  62.764  1.00  0.00     0.286 A  
HETATM   45  C   UNL     1      -5.792  20.910  63.983  1.00  0.00    -0.326 A  
HETATM   46  C   UNL     1      -5.273  20.226  62.925  1.00  0.00    -0.241 A  
ENDBRANCH  40  41
BRANCH  40  47
HETATM   47  N   UNL     1      -7.505  18.782  67.366  1.00  0.00    -0.222 N  
HETATM   48  C   UNL     1      -6.906  18.196  68.517  1.00  0.00    -0.238 C  
HETATM   49  H   UNL     1      -7.821  19.743  67.492  1.00  0.00     0.000 HD 
HETATM   50  O   UNL     1      -6.296  17.137  68.474  1.00  0.00    -0.149 OA 
BRANCH  48  51
HETATM   51  O   UNL     1      -7.086  18.930  69.710  1.00  0.00    -0.021 OA 
HETATM   52  C   UNL     1      -8.340  18.995  70.602  1.00  0.00     3.066 C  
HETATM   53  C   UNL     1      -9.660  19.323  69.881  1.00  0.00     0.494 C  
HETATM   54  C   UNL     1      -8.218  20.123  71.688  1.00  0.00     2.190 C  
HETATM   55  C   UNL     1      -8.518  17.682  71.389  1.00  0.00     9.772 C  
ENDBRANCH  48  51
ENDBRANCH  40  47
ENDBRANCH  37  40
ENDBRANCH  35  37
ENDBRANCH  34  35
ENDBRANCH   8  34
BRANCH  22  56
HETATM   56  O   UNL     1      -6.343  12.158  71.421  1.00  0.00     0.729 OA 
HETATM   57  C   UNL     1      -5.766  13.401  70.964  1.00  0.00    -0.165 C  
ENDBRANCH  22  56
BRANCH  11  58
HETATM   58  O   UNL     1      -8.919   7.323  70.770  1.00  0.00    -0.150 OA 
HETATM   59  C   UNL     1      -8.352   6.383  71.697  1.00  0.00    -0.125 C  
ENDBRANCH  11  58
BRANCH   5  60
HETATM   60  O   UNL     1     -10.097   8.551  66.072  1.00  0.00    -0.154 OA 
BRANCH  60  61
HETATM   61  C   UNL     1     -11.130   9.266  65.617  1.00  0.00     2.883 C  
HETATM   62  C   UNL     1     -12.392   8.457  65.769  1.00  0.00    13.061 C  
HETATM   63  O   UNL     1     -11.159  10.429  65.196  1.00  0.00     0.341 OA 
ENDBRANCH  60  61
ENDBRANCH   5  60
TORSDOF 14
ENDMDL
MODEL       66
REMARK 921   NORMALIZED FREE ENERGY PREDICTED BY IDOCK:   98.70 KCAL/MOL
REMARK 922        TOTAL FREE ENERGY PREDICTED BY IDOCK:  176.16 KCAL/MOL
REMARK 923 INTER-LIGAND FREE ENERGY PREDICTED BY IDOCK:   92.78 KCAL/MOL
REMARK 924 INTRA-LIGAND FREE ENERGY PREDICTED BY IDOCK:   83.38 KCAL/MOL
REMARK 927      BINDING AFFINITY PREDICTED BY RF-SCORE:    0.00 PKD
ROOT
HETATM    1  C   UNL     1      -8.713  16.957  69.033  1.00  0.00    -0.150 C  
HETATM    2  C   UNL     1      -8.765  15.268  68.083  1.00  0.00    -0.162 C  
HETATM    3  C   UNL     1      -6.712  12.313  68.836  1.00  0.00    -0.094 C  
HETATM    4  C   UNL     1      -8.372  14.121  69.071  1.00  0.00     0.083 C  
HETATM    5  C   UNL     1      -8.956  18.191  68.109  1.00  0.00    -0.290 C  
HETATM    6  O   UNL     1      -8.491  15.120  70.027  1.00  0.00    -0.351 OA 
HETATM    7  C   UNL     1      -9.434  12.913  69.206  1.00  0.00     0.843 C  
HETATM    8  C   UNL     1      -9.349  11.927  70.426  1.00  0.00     4.795 C  
HETATM    9  C   UNL     1      -7.484  16.447  71.808  1.00  0.00     7.473 C  
HETATM   10  H   UNL     1      -8.252  14.423  70.628  1.00  0.00     0.000 HD 
HETATM   11  C   UNL     1      -8.056  18.899  70.991  1.00  0.00     4.528 C  
HETATM   12  C   UNL     1      -8.960  19.801  70.155  1.00  0.00     1.118 C  
HETATM   13  C   UNL     1      -9.808  17.482  71.842  1.00  0.00     7.491 C  
HETATM   14  C   UNL     1      -9.126  12.989  71.410  1.00  0.00    14.381 C  
HETATM   15  C   UNL     1      -8.723  19.635  68.675  1.00  0.00    -0.272 C  
HETATM   16  C   UNL     1     -10.559  13.766  71.489  1.00  0.00     4.505 C  
HETATM   17  O   UNL     1      -7.353  19.647  68.216  1.00  0.00    -0.296 OA 
HETATM   18  C   UNL     1      -7.841  13.580  71.416  1.00  0.00     7.037 C  
HETATM   19  C   UNL     1      -7.058  13.591  69.724  1.00  0.00     0.376 C  
HETATM   20  C   UNL     1      -8.555  17.387  70.859  1.00  0.00     6.262 C  
HETATM   21  O   UNL     1      -6.355  16.824  72.121  1.00  0.00     2.878 OA 
HETATM   22  C   UNL     1      -8.023  14.990  72.302  1.00  0.00     6.145 C  
HETATM   23  C   UNL     1      -7.608  18.501  67.373  1.00  0.00    -0.219 C  
HETATM   24  C   UNL     1      -5.805  14.491  69.289  1.00  0.00    -0.101 C  
ENDROOT
BRANCH   2  25
HETATM   25  O   UNL     1     -10.051  14.614  67.407  1.00  0.00    -0.231 OA 
BRANCH  25  26
HETATM   26  C   UNL     1     -11.348  14.502  68.045  1.00  0.00    -0.306 C  
HETATM   27  O   UNL     1     -12.344  14.728  67.356  1.00  0.00    -0.114 OA 
BRANCH  26  28
HETATM   28  C   UNL     1     -11.632  14.417  69.678  1.00  0.00    -0.343 A  
HETATM   29  C   UNL     1     -11.317  13.578  72.063  1.00  0.00     3.247 A  
HETATM   30  C   UNL     1     -12.837  14.952  70.177  1.00  0.00    -0.195 A  
HETATM   31  C   UNL     1     -10.972  13.620  70.678  1.00  0.00     1.297 A  
HETATM   32  C   UNL     1     -13.239  14.855  71.552  1.00  0.00    -0.448 A  
HETATM   33  C   UNL     1     -12.458  14.213  72.506  1.00  0.00    -0.192 A  
ENDBRANCH  26  28
ENDBRANCH  25  26
ENDBRANCH   2  25
BRANCH   8  34
HETATM   34  O   UNL     1     -10.543  11.163  70.849  1.00  0.00     1.440 OA 
BRANCH  34  35
HETATM   35  C   UNL     1     -11.765  11.756  70.632  1.00  0.00     0.089 C  
HETATM   36  O   UNL     1     -12.307  12.436  71.506  1.00  0.00    -0.102 OA 
BRANCH  35  37
HETATM   37  C   UNL     1     -12.579  11.371  69.344  1.00  0.00     0.212 C  
HETATM   38  H   UNL     1     -14.437  10.831  68.967  1.00  0.00     0.000 HD 
HETATM   39  O   UNL     1     -13.945  11.063  69.746  1.00  0.00     2.013 OA 
BRANCH  37  40
HETATM   40  C   UNL     1     -12.119  10.387  68.142  1.00  0.00     1.151 C  
BRANCH  40  41
HETATM   41  C   UNL     1     -10.957   9.479  68.682  1.00  0.00    -0.113 A  
HETATM   42  C   UNL     1      -9.770   9.345  67.951  1.00  0.00    -0.177 A  
HETATM   43  C   UNL     1     -10.988   8.930  69.985  1.00  0.00    -0.217 A  
HETATM   44  C   UNL     1      -9.882   8.247  70.550  1.00  0.00    -0.197 A  
HETATM   45  C   UNL     1      -8.668   8.645  68.520  1.00  0.00    -0.139 A  
HETATM   46  C   UNL     1      -8.721   8.108  69.770  1.00  0.00    -0.135 A  
ENDBRANCH  40  41
BRANCH  40  47
HETATM   47  N   UNL     1     -11.919  10.840  66.656  1.00  0.00     1.436 N  
HETATM   48  C   UNL     1     -10.740  11.234  65.961  1.00  0.00    -0.242 C  
HETATM   49  H   UNL     1     -12.770  10.856  66.095  1.00  0.00     0.000 HD 
HETATM   50  O   UNL     1      -9.619  11.074  66.423  1.00  0.00    -0.189 OA 
BRANCH  48  51
HETATM   51  O   UNL     1     -10.973  11.834  64.703  1.00  0.00    -0.296 OA 
HETATM   52  C   UNL     1     -11.683  13.167  64.407  1.00  0.00    -0.380 C  
HETATM   53  C   UNL     1     -13.070  13.347  65.054  1.00  0.00    -0.060 C  
HETATM   54  C   UNL     1     -11.962  13.344  62.872  1.00  0.00     0.579 C  
HETATM   55  C   UNL     1     -10.793  14.360  64.806  1.00  0.00    -0.415 C  
ENDBRANCH  48  51
ENDBRANCH  40  47
ENDBRANCH  37  40
ENDBRANCH  35  37
ENDBRANCH  34  35
ENDBRANCH   8  34
BRANCH  22  56
HETATM   56  O   UNL     1      -8.098  14.730  73.723  1.00  0.00     6.195 OA 
HETATM   57  C   UNL     1      -9.304  15.211  74.356  1.00  0.00    12.964 C  
ENDBRANCH  22  56
BRANCH  11  58
HETATM   58  O   UNL     1      -6.678  19.130  70.713  1.00  0.00     0.472 OA 
HETATM   59  C   UNL     1      -5.859  17.993  71.033  1.00  0.00     0.458 C  
ENDBRANCH  11  58
BRANCH   5  60
HETATM   60  O   UNL     1     -10.100  17.921  67.279  1.00  0.00    -0.316 OA 
BRANCH  60  61
HETATM   61  C   UNL     1     -10.759  16.764  67.389  1.00  0.00    -0.244 C  
HETATM   62  C   UNL     1      -9.774  15.628  67.301  1.00  0.00    -0.219 C  
HETATM   63  O   UNL     1     -11.959  16.559  67.606  1.00  0.00     0.512 OA 
ENDBRANCH  60  61
ENDBRANCH   5  60
TORSDOF 14
ENDMDL
