MODEL        1
REMARK 921   NORMALIZED FREE ENERGY PREDICTED BY IDOCK:   -6.83 KCAL/MOL
REMARK 922        TOTAL FREE ENERGY PREDICTED BY IDOCK:  -11.14 KCAL/MOL
REMARK 923 INTER-LIGAND FREE ENERGY PREDICTED BY IDOCK:  -10.43 KCAL/MOL
REMARK 924 INTRA-LIGAND FREE ENERGY PREDICTED BY IDOCK:   -0.71 KCAL/MOL
REMARK 927      BINDING AFFINITY PREDICTED BY RF-SCORE:    0.00 PKD
ROOT
HETATM    1  C   UNL     1      -9.614  14.686  67.109  1.00  0.00    -0.233 C  
HETATM    2  C   UNL     1      -8.126  14.393  67.300  1.00  0.00    -0.209 C  
HETATM    3  C   UNL     1      -8.019  12.916  67.351  1.00  0.00    -0.178 A  
HETATM    4  C   UNL     1      -7.309  12.027  68.107  1.00  0.00    -0.094 A  
HETATM    5  N   UNL     1      -7.504  10.784  67.547  1.00  0.00    -0.091 NA 
HETATM    6  H   UNL     1      -7.081   9.919  67.883  1.00  0.00     0.000 HD 
HETATM    7  C   UNL     1      -8.352  10.878  66.466  1.00  0.00    -0.155 A  
HETATM    8  C   UNL     1      -8.705  10.011  65.441  1.00  0.00    -0.176 A  
HETATM    9  C   UNL     1      -9.619  10.506  64.491  1.00  0.00    -0.359 A  
HETATM   10  C   UNL     1     -10.263  11.753  64.640  1.00  0.00    -0.326 A  
HETATM   11  C   UNL     1      -9.929  12.598  65.701  1.00  0.00    -0.253 A  
HETATM   12  C   UNL     1     -10.439  14.019  65.920  1.00  0.00    -0.314 C  
HETATM   13  C   UNL     1      -8.869  12.156  66.511  1.00  0.00    -0.151 A  
HETATM   14  C   UNL     1     -11.959  14.285  66.252  1.00  0.00    -0.428 C  
HETATM   15  C   UNL     1     -12.148  14.644  67.779  1.00  0.00    -0.211 C  
HETATM   16  N   UNL     1      -9.977  16.091  67.286  1.00  0.00    -0.238 NA 
HETATM   17  C   UNL     1     -11.303  16.008  67.973  1.00  0.00    -0.266 C  
ENDROOT
BRANCH  15  18
HETATM   18  C   UNL     1     -12.016  13.194  68.549  1.00  0.00    -0.289 C  
HETATM   19  N   UNL     1     -12.060  12.955  69.933  1.00  0.00    -0.296 N  
HETATM   20  O   UNL     1     -11.978  12.205  67.817  1.00  0.00    -0.506 OA 
BRANCH  19  21
HETATM   21  C   UNL     1     -12.138  11.517  70.390  1.00  0.00    -0.382 C  
BRANCH  21  22
HETATM   22  C   UNL     1     -12.869  11.132  71.700  1.00  0.00    -0.524 C  
HETATM   23  C   UNL     1     -13.650   9.801  71.905  1.00  0.00    -0.335 C  
BRANCH  23  24
HETATM   24  N   UNL     1     -13.119   8.459  71.583  1.00  0.00    -0.335 NA 
HETATM   25  C   UNL     1     -14.209   7.462  71.729  1.00  0.00    -0.403 C  
HETATM   26  C   UNL     1     -12.030   8.012  72.471  1.00  0.00    -0.327 C  
ENDBRANCH  23  24
ENDBRANCH  21  22
ENDBRANCH  19  21
BRANCH  19  27
HETATM   27  C   UNL     1     -12.483  13.931  70.826  1.00  0.00    -0.375 C  
HETATM   28  O   UNL     1     -13.658  14.145  71.105  1.00  0.00    -0.301 OA 
BRANCH  27  29
HETATM   29  N   UNL     1     -11.465  14.626  71.447  1.00  0.00    -0.517 N  
HETATM   30  H   UNL     1     -10.576  14.166  71.640  1.00  0.00     0.000 HD 
BRANCH  29  31
HETATM   31  C   UNL     1     -11.661  16.005  71.822  1.00  0.00    -0.509 C  
HETATM   32  C   UNL     1     -12.111  16.123  73.260  1.00  0.00    -0.604 C  
ENDBRANCH  29  31
ENDBRANCH  27  29
ENDBRANCH  19  27
ENDBRANCH  15  18
BRANCH  16  33
HETATM   33  C   UNL     1      -9.893  16.813  65.998  1.00  0.00    -0.287 C  
BRANCH  33  34
HETATM   34  C   UNL     1     -10.580  18.149  65.903  1.00  0.00    -0.247 C  
HETATM   35  C   UNL     1     -10.151  19.321  66.390  1.00  0.00    -0.507 C  
ENDBRANCH  33  34
ENDBRANCH  16  33
TORSDOF 9
ENDMDL
MODEL        2
REMARK 921   NORMALIZED FREE ENERGY PREDICTED BY IDOCK:   -6.72 KCAL/MOL
REMARK 922        TOTAL FREE ENERGY PREDICTED BY IDOCK:  -10.96 KCAL/MOL
REMARK 923 INTER-LIGAND FREE ENERGY PREDICTED BY IDOCK:  -10.68 KCAL/MOL
REMARK 924 INTRA-LIGAND FREE ENERGY PREDICTED BY IDOCK:   -0.28 KCAL/MOL
REMARK 927      BINDING AFFINITY PREDICTED BY RF-SCORE:    0.00 PKD
ROOT
HETATM    1  C   UNL     1     -10.612  14.099  65.708  1.00  0.00    -0.300 C  
HETATM    2  C   UNL     1     -10.428  15.566  65.318  1.00  0.00    -0.437 C  
HETATM    3  C   UNL     1     -10.054  16.262  66.572  1.00  0.00    -0.301 A  
HETATM    4  C   UNL     1     -10.390  17.454  67.150  1.00  0.00    -0.325 A  
HETATM    5  N   UNL     1      -9.560  17.615  68.237  1.00  0.00    -0.293 NA 
HETATM    6  H   UNL     1      -9.561  18.425  68.857  1.00  0.00     0.000 HD 
HETATM    7  C   UNL     1      -8.729  16.525  68.367  1.00  0.00    -0.218 A  
HETATM    8  C   UNL     1      -7.594  16.265  69.123  1.00  0.00    -0.227 A  
HETATM    9  C   UNL     1      -7.007  14.997  68.953  1.00  0.00    -0.114 A  
HETATM   10  C   UNL     1      -7.610  13.983  68.176  1.00  0.00    -0.141 A  
HETATM   11  C   UNL     1      -8.776  14.246  67.454  1.00  0.00    -0.217 A  
HETATM   12  C   UNL     1      -9.467  13.301  66.477  1.00  0.00    -0.251 C  
HETATM   13  C   UNL     1      -9.217  15.579  67.490  1.00  0.00    -0.200 A  
HETATM   14  C   UNL     1     -10.143  11.969  66.988  1.00  0.00    -0.221 C  
HETATM   15  C   UNL     1     -11.717  12.106  67.005  1.00  0.00    -0.373 C  
HETATM   16  N   UNL     1     -11.231  13.275  64.671  1.00  0.00    -0.332 NA 
HETATM   17  C   UNL     1     -12.109  12.355  65.457  1.00  0.00    -0.351 C  
ENDROOT
BRANCH  15  18
HETATM   18  C   UNL     1     -12.024  13.023  68.339  1.00  0.00    -0.271 C  
HETATM   19  N   UNL     1     -12.140  12.585  69.668  1.00  0.00    -0.251 N  
HETATM   20  O   UNL     1     -12.050  14.240  68.152  1.00  0.00    -0.323 OA 
BRANCH  19  21
HETATM   21  C   UNL     1     -12.205  13.640  70.747  1.00  0.00    -0.347 C  
BRANCH  21  22
HETATM   22  C   UNL     1     -13.489  14.476  70.972  1.00  0.00    -0.345 C  
HETATM   23  C   UNL     1     -13.865  15.152  72.323  1.00  0.00    -0.515 C  
BRANCH  23  24
HETATM   24  N   UNL     1     -12.949  15.993  73.123  1.00  0.00    -0.520 NA 
HETATM   25  C   UNL     1     -11.798  16.393  72.275  1.00  0.00    -0.445 C  
HETATM   26  C   UNL     1     -12.378  15.312  74.299  1.00  0.00    -0.612 C  
ENDBRANCH  23  24
ENDBRANCH  21  22
ENDBRANCH  19  21
BRANCH  19  27
HETATM   27  C   UNL     1     -11.749  11.307  70.048  1.00  0.00    -0.346 C  
HETATM   28  O   UNL     1     -10.585  10.920  70.066  1.00  0.00    -0.117 OA 
BRANCH  27  29
HETATM   29  N   UNL     1     -12.777  10.493  70.479  1.00  0.00    -0.420 N  
HETATM   30  H   UNL     1     -13.725  10.641  70.133  1.00  0.00     0.000 HD 
BRANCH  29  31
HETATM   31  C   UNL     1     -12.508   9.432  71.419  1.00  0.00    -0.352 C  
HETATM   32  C   UNL     1     -13.612   9.317  72.445  1.00  0.00    -0.527 C  
ENDBRANCH  29  31
ENDBRANCH  27  29
ENDBRANCH  19  27
ENDBRANCH  15  18
BRANCH  16  33
HETATM   33  C   UNL     1     -10.196  12.686  63.793  1.00  0.00    -0.254 C  
BRANCH  33  34
HETATM   34  C   UNL     1     -10.367  11.246  63.386  1.00  0.00    -0.449 C  
HETATM   35  C   UNL     1      -9.582  10.210  63.709  1.00  0.00    -0.285 C  
ENDBRANCH  33  34
ENDBRANCH  16  33
TORSDOF 9
ENDMDL
MODEL        3
REMARK 921   NORMALIZED FREE ENERGY PREDICTED BY IDOCK:   -6.62 KCAL/MOL
REMARK 922        TOTAL FREE ENERGY PREDICTED BY IDOCK:  -10.82 KCAL/MOL
REMARK 923 INTER-LIGAND FREE ENERGY PREDICTED BY IDOCK:   -9.36 KCAL/MOL
REMARK 924 INTRA-LIGAND FREE ENERGY PREDICTED BY IDOCK:   -1.46 KCAL/MOL
REMARK 927      BINDING AFFINITY PREDICTED BY RF-SCORE:    0.00 PKD
ROOT
HETATM    1  C   UNL     1      -9.775  12.500  65.852  1.00  0.00    -0.219 C  
HETATM    2  C   UNL     1      -8.323  12.050  66.007  1.00  0.00     0.347 C  
HETATM    3  C   UNL     1      -8.176  11.677  67.434  1.00  0.00    -0.153 A  
HETATM    4  C   UNL     1      -7.213  11.864  68.385  1.00  0.00    -0.091 A  
HETATM    5  N   UNL     1      -7.585  11.115  69.479  1.00  0.00    -0.363 NA 
HETATM    6  H   UNL     1      -7.049  11.038  70.343  1.00  0.00     0.000 HD 
HETATM    7  C   UNL     1      -8.785  10.484  69.237  1.00  0.00    -0.123 A  
HETATM    8  C   UNL     1      -9.487   9.473  69.880  1.00  0.00    -0.247 A  
HETATM    9  C   UNL     1     -10.705   9.086  69.289  1.00  0.00    -0.189 A  
HETATM   10  C   UNL     1     -11.266   9.776  68.193  1.00  0.00    -0.073 A  
HETATM   11  C   UNL     1     -10.567  10.819  67.582  1.00  0.00    -0.271 A  
HETATM   12  C   UNL     1     -10.981  11.568  66.319  1.00  0.00    -0.328 C  
HETATM   13  C   UNL     1      -9.270  11.042  68.073  1.00  0.00    -0.159 A  
HETATM   14  C   UNL     1     -12.262  12.490  66.315  1.00  0.00    -0.159 C  
HETATM   15  C   UNL     1     -11.857  14.017  66.341  1.00  0.00    -0.437 C  
HETATM   16  N   UNL     1     -10.070  13.153  64.578  1.00  0.00    -0.283 NA 
HETATM   17  C   UNL     1     -11.028  14.231  64.971  1.00  0.00    -0.387 C  
ENDROOT
BRANCH  15  18
HETATM   18  C   UNL     1     -11.411  14.285  67.905  1.00  0.00    -0.315 C  
HETATM   19  N   UNL     1     -10.384  15.123  68.368  1.00  0.00    -0.225 N  
HETATM   20  O   UNL     1     -12.132  13.768  68.758  1.00  0.00    -0.357 OA 
BRANCH  19  21
HETATM   21  C   UNL     1     -10.307  15.375  69.855  1.00  0.00    -0.285 C  
BRANCH  21  22
HETATM   22  C   UNL     1     -11.324  16.304  70.563  1.00  0.00    -0.318 C  
HETATM   23  C   UNL     1     -12.584  15.800  71.327  1.00  0.00    -0.446 C  
BRANCH  23  24
HETATM   24  N   UNL     1     -12.575  14.723  72.340  1.00  0.00    -0.334 NA 
HETATM   25  C   UNL     1     -13.885  14.025  72.313  1.00  0.00    -0.557 C  
HETATM   26  C   UNL     1     -12.390  15.199  73.724  1.00  0.00    -0.578 C  
ENDBRANCH  23  24
ENDBRANCH  21  22
ENDBRANCH  19  21
BRANCH  19  27
HETATM   27  C   UNL     1      -9.765  16.043  67.533  1.00  0.00    -0.228 C  
HETATM   28  O   UNL     1      -8.706  15.838  66.948  1.00  0.00    -0.203 OA 
BRANCH  27  29
HETATM   29  N   UNL     1     -10.466  17.217  67.345  1.00  0.00    -0.347 N  
HETATM   30  H   UNL     1     -11.382  17.339  67.778  1.00  0.00     0.000 HD 
BRANCH  29  31
HETATM   31  C   UNL     1      -9.902  18.271  66.537  1.00  0.00    -0.361 C  
HETATM   32  C   UNL     1     -10.623  19.580  66.763  1.00  0.00    -0.597 C  
ENDBRANCH  29  31
ENDBRANCH  27  29
ENDBRANCH  19  27
ENDBRANCH  15  18
BRANCH  16  33
HETATM   33  C   UNL     1     -10.501  12.156  63.574  1.00  0.00    -0.454 C  
BRANCH  33  34
HETATM   34  C   UNL     1      -9.438  11.289  62.954  1.00  0.00    -0.385 C  
HETATM   35  C   UNL     1      -9.402   9.950  62.911  1.00  0.00    -0.232 C  
ENDBRANCH  33  34
ENDBRANCH  16  33
TORSDOF 9
ENDMDL
MODEL        4
REMARK 921   NORMALIZED FREE ENERGY PREDICTED BY IDOCK:   -6.41 KCAL/MOL
REMARK 922        TOTAL FREE ENERGY PREDICTED BY IDOCK:  -10.49 KCAL/MOL
REMARK 923 INTER-LIGAND FREE ENERGY PREDICTED BY IDOCK:   -9.47 KCAL/MOL
REMARK 924 INTRA-LIGAND FREE ENERGY PREDICTED BY IDOCK:   -1.02 KCAL/MOL
REMARK 927      BINDING AFFINITY PREDICTED BY RF-SCORE:    0.00 PKD
ROOT
HETATM    1  C   UNL     1      -9.623  13.627  67.085  1.00  0.00    -0.241 C  
HETATM    2  C   UNL     1      -8.143  13.529  67.455  1.00  0.00    -0.184 C  
HETATM    3  C   UNL     1      -7.919  12.108  67.811  1.00  0.00    -0.151 A  
HETATM    4  C   UNL     1      -7.219  11.459  68.788  1.00  0.00    -0.107 A  
HETATM    5  N   UNL     1      -7.252  10.118  68.476  1.00  0.00    -0.078 NA 
HETATM    6  H   UNL     1      -6.795   9.382  69.013  1.00  0.00     0.000 HD 
HETATM    7  C   UNL     1      -7.991   9.915  67.332  1.00  0.00    -0.106 A  
HETATM    8  C   UNL     1      -8.164   8.835  66.477  1.00  0.00    -0.111 A  
HETATM    9  C   UNL     1      -9.015   9.041  65.374  1.00  0.00    -0.249 A  
HETATM   10  C   UNL     1      -9.772  10.222  65.215  1.00  0.00    -0.354 A  
HETATM   11  C   UNL     1      -9.619  11.285  66.106  1.00  0.00    -0.241 A  
HETATM   12  C   UNL     1     -10.265  12.662  65.991  1.00  0.00    -0.287 C  
HETATM   13  C   UNL     1      -8.614  11.118  67.074  1.00  0.00    -0.147 A  
HETATM   14  C   UNL     1     -11.828  12.831  66.135  1.00  0.00    -0.484 C  
HETATM   15  C   UNL     1     -12.200  13.458  67.537  1.00  0.00    -0.231 C  
HETATM   16  N   UNL     1     -10.118  14.995  66.944  1.00  0.00    -0.245 NA 
HETATM   17  C   UNL     1     -11.495  14.912  67.521  1.00  0.00    -0.348 C  
ENDROOT
BRANCH  15  18
HETATM   18  C   UNL     1     -12.027  12.205  68.593  1.00  0.00    -0.237 C  
HETATM   19  N   UNL     1     -12.012  12.266  69.996  1.00  0.00    -0.333 N  
HETATM   20  O   UNL     1     -12.014  11.082  68.088  1.00  0.00    -0.610 OA 
BRANCH  19  21
HETATM   21  C   UNL     1     -12.061  10.960  70.752  1.00  0.00    -0.368 C  
BRANCH  21  22
HETATM   22  C   UNL     1     -10.869   9.971  70.720  1.00  0.00    -0.330 C  
HETATM   23  C   UNL     1     -10.523   8.983  71.872  1.00  0.00    -0.303 C  
BRANCH  23  24
HETATM   24  N   UNL     1     -11.498   8.083  72.526  1.00  0.00    -0.387 NA 
HETATM   25  C   UNL     1     -10.759   7.007  73.235  1.00  0.00    -0.340 C  
HETATM   26  C   UNL     1     -12.415   7.406  71.591  1.00  0.00    -0.349 C  
ENDBRANCH  23  24
ENDBRANCH  21  22
ENDBRANCH  19  21
BRANCH  19  27
HETATM   27  C   UNL     1     -12.403  13.412  70.677  1.00  0.00    -0.348 C  
HETATM   28  O   UNL     1     -13.546  13.621  71.071  1.00  0.00    -0.081 OA 
BRANCH  27  29
HETATM   29  N   UNL     1     -11.383  14.300  70.948  1.00  0.00    -0.497 N  
HETATM   30  H   UNL     1     -10.423  13.966  71.034  1.00  0.00     0.000 HD 
BRANCH  29  31
HETATM   31  C   UNL     1     -11.675  15.704  71.109  1.00  0.00    -0.413 C  
HETATM   32  C   UNL     1     -11.903  16.053  72.562  1.00  0.00    -0.630 C  
ENDBRANCH  29  31
ENDBRANCH  27  29
ENDBRANCH  19  27
ENDBRANCH  15  18
BRANCH  16  33
HETATM   33  C   UNL     1      -9.964  15.460  65.548  1.00  0.00    -0.344 C  
BRANCH  33  34
HETATM   34  C   UNL     1     -11.116  16.209  64.934  1.00  0.00    -0.336 C  
HETATM   35  C   UNL     1     -12.101  15.709  64.177  1.00  0.00    -0.002 C  
ENDBRANCH  33  34
ENDBRANCH  16  33
TORSDOF 9
ENDMDL
MODEL        5
REMARK 921   NORMALIZED FREE ENERGY PREDICTED BY IDOCK:   -6.35 KCAL/MOL
REMARK 922        TOTAL FREE ENERGY PREDICTED BY IDOCK:  -10.40 KCAL/MOL
REMARK 923 INTER-LIGAND FREE ENERGY PREDICTED BY IDOCK:   -9.16 KCAL/MOL
REMARK 924 INTRA-LIGAND FREE ENERGY PREDICTED BY IDOCK:   -1.24 KCAL/MOL
REMARK 927      BINDING AFFINITY PREDICTED BY RF-SCORE:    0.00 PKD
ROOT
HETATM    1  C   UNL     1     -10.272   6.585  70.848  1.00  0.00    -0.190 C  
HETATM    2  C   UNL     1     -10.704   5.570  69.789  1.00  0.00    -0.355 C  
HETATM    3  C   UNL     1     -10.368   6.193  68.487  1.00  0.00    -0.248 A  
HETATM    4  C   UNL     1     -10.990   6.284  67.274  1.00  0.00    -0.366 A  
HETATM    5  N   UNL     1     -10.079   6.839  66.402  1.00  0.00    -0.430 NA 
HETATM    6  H   UNL     1     -10.249   7.012  65.412  1.00  0.00     0.000 HD 
HETATM    7  C   UNL     1      -8.905   7.126  67.061  1.00  0.00    -0.124 A  
HETATM    8  C   UNL     1      -7.628   7.477  66.644  1.00  0.00    -0.097 A  
HETATM    9  C   UNL     1      -6.671   7.674  67.658  1.00  0.00    -0.067 A  
HETATM   10  C   UNL     1      -7.010   7.665  69.028  1.00  0.00    -0.069 A  
HETATM   11  C   UNL     1      -8.309   7.350  69.433  1.00  0.00    -0.132 A  
HETATM   12  C   UNL     1      -8.791   7.174  70.869  1.00  0.00    -0.150 C  
HETATM   13  C   UNL     1      -9.182   6.964  68.402  1.00  0.00    -0.124 A  
HETATM   14  C   UNL     1      -8.834   8.403  71.860  1.00  0.00    -0.267 C  
HETATM   15  C   UNL     1     -10.317   8.900  72.078  1.00  0.00    -0.378 C  
HETATM   16  N   UNL     1     -10.743   6.282  72.198  1.00  0.00    -0.223 NA 
HETATM   17  C   UNL     1     -11.064   7.634  72.750  1.00  0.00    -0.383 C  
ENDROOT
BRANCH  15  18
HETATM   18  C   UNL     1     -10.667   9.730  70.699  1.00  0.00    -0.326 C  
HETATM   19  N   UNL     1     -11.922  10.202  70.281  1.00  0.00    -0.255 N  
HETATM   20  O   UNL     1      -9.697  10.059  70.016  1.00  0.00    -0.235 OA 
BRANCH  19  21
HETATM   21  C   UNL     1     -11.958  11.127  69.088  1.00  0.00    -0.343 C  
BRANCH  21  22
HETATM   22  C   UNL     1     -11.642  12.636  69.236  1.00  0.00    -0.376 C  
HETATM   23  C   UNL     1     -11.131  13.539  68.075  1.00  0.00    -0.258 C  
BRANCH  23  24
HETATM   24  N   UNL     1     -11.746  13.605  66.731  1.00  0.00    -0.370 NA 
HETATM   25  C   UNL     1     -11.356  12.396  65.963  1.00  0.00    -0.353 C  
HETATM   26  C   UNL     1     -11.313  14.762  65.927  1.00  0.00    -0.331 C  
ENDBRANCH  23  24
ENDBRANCH  21  22
ENDBRANCH  19  21
BRANCH  19  27
HETATM   27  C   UNL     1     -13.011  10.231  71.143  1.00  0.00    -0.409 C  
HETATM   28  O   UNL     1     -13.155  11.052  72.042  1.00  0.00    -0.496 OA 
BRANCH  27  29
HETATM   29  N   UNL     1     -13.983   9.287  70.879  1.00  0.00    -0.491 N  
HETATM   30  H   UNL     1     -14.401   9.230  69.950  1.00  0.00     0.000 HD 
BRANCH  29  31
HETATM   31  C   UNL     1     -14.406   8.381  71.918  1.00  0.00    -0.473 C  
HETATM   32  C   UNL     1     -14.283   6.941  71.474  1.00  0.00    -0.327 C  
ENDBRANCH  29  31
ENDBRANCH  27  29
ENDBRANCH  19  27
ENDBRANCH  15  18
BRANCH  16  33
HETATM   33  C   UNL     1      -9.757   5.443  72.914  1.00  0.00    -0.147 C  
BRANCH  33  34
HETATM   34  C   UNL     1      -9.954   3.951  72.874  1.00  0.00    -0.203 C  
HETATM   35  C   UNL     1      -9.224   3.052  72.201  1.00  0.00    -0.160 C  
ENDBRANCH  33  34
ENDBRANCH  16  33
TORSDOF 9
ENDMDL
MODEL        6
REMARK 921   NORMALIZED FREE ENERGY PREDICTED BY IDOCK:   -6.26 KCAL/MOL
REMARK 922        TOTAL FREE ENERGY PREDICTED BY IDOCK:  -10.27 KCAL/MOL
REMARK 923 INTER-LIGAND FREE ENERGY PREDICTED BY IDOCK:   -9.30 KCAL/MOL
REMARK 924 INTRA-LIGAND FREE ENERGY PREDICTED BY IDOCK:   -0.97 KCAL/MOL
REMARK 927      BINDING AFFINITY PREDICTED BY RF-SCORE:    0.00 PKD
ROOT
HETATM    1  C   UNL     1     -10.551   6.766  70.579  1.00  0.00    -0.225 C  
HETATM    2  C   UNL     1     -11.104   5.858  69.480  1.00  0.00    -0.403 C  
HETATM    3  C   UNL     1     -10.512   6.362  68.219  1.00  0.00    -0.270 A  
HETATM    4  C   UNL     1     -10.978   6.570  66.951  1.00  0.00    -0.338 A  
HETATM    5  N   UNL     1      -9.886   6.884  66.173  1.00  0.00    -0.409 NA 
HETATM    6  H   UNL     1      -9.917   7.073  65.172  1.00  0.00     0.000 HD 
HETATM    7  C   UNL     1      -8.745   6.905  66.943  1.00  0.00    -0.118 A  
HETATM    8  C   UNL     1      -7.388   6.944  66.652  1.00  0.00    -0.077 A  
HETATM    9  C   UNL     1      -6.512   6.934  67.753  1.00  0.00    -0.050 A  
HETATM   10  C   UNL     1      -6.971   7.029  69.085  1.00  0.00    -0.078 A  
HETATM   11  C   UNL     1      -8.340   7.031  69.362  1.00  0.00    -0.133 A  
HETATM   12  C   UNL     1      -8.983   6.998  70.744  1.00  0.00    -0.150 C  
HETATM   13  C   UNL     1      -9.177   6.836  68.251  1.00  0.00    -0.122 A  
HETATM   14  C   UNL     1      -8.833   8.222  71.730  1.00  0.00    -0.230 C  
HETATM   15  C   UNL     1     -10.175   9.052  71.807  1.00  0.00    -0.389 C  
HETATM   16  N   UNL     1     -11.205   6.605  71.876  1.00  0.00    -0.252 NA 
HETATM   17  C   UNL     1     -11.255   8.005  72.399  1.00  0.00    -0.369 C  
ENDROOT
BRANCH  15  18
HETATM   18  C   UNL     1     -10.191   9.914  70.403  1.00  0.00    -0.236 C  
HETATM   19  N   UNL     1     -11.262  10.645  69.863  1.00  0.00    -0.288 N  
HETATM   20  O   UNL     1      -9.109  10.007  69.824  1.00  0.00    -0.215 OA 
BRANCH  19  21
HETATM   21  C   UNL     1     -10.971  11.533  68.676  1.00  0.00    -0.223 C  
BRANCH  21  22
HETATM   22  C   UNL     1     -11.133  11.012  67.227  1.00  0.00    -0.359 C  
HETATM   23  C   UNL     1     -11.741  11.846  66.062  1.00  0.00    -0.135 C  
BRANCH  23  24
HETATM   24  N   UNL     1     -11.341  13.228  65.722  1.00  0.00    -0.303 NA 
HETATM   25  C   UNL     1     -12.555  14.012  65.382  1.00  0.00    -0.505 C  
HETATM   26  C   UNL     1     -10.446  13.327  64.553  1.00  0.00    -0.415 C  
ENDBRANCH  23  24
ENDBRANCH  21  22
ENDBRANCH  19  21
BRANCH  19  27
HETATM   27  C   UNL     1     -12.398  10.930  70.609  1.00  0.00    -0.376 C  
HETATM   28  O   UNL     1     -13.301  10.128  70.823  1.00  0.00    -0.361 OA 
BRANCH  27  29
HETATM   29  N   UNL     1     -12.420  12.192  71.168  1.00  0.00    -0.307 N  
HETATM   30  H   UNL     1     -11.717  12.882  70.901  1.00  0.00     0.000 HD 
BRANCH  29  31
HETATM   31  C   UNL     1     -13.440  12.536  72.129  1.00  0.00    -0.422 C  
HETATM   32  C   UNL     1     -13.344  13.989  72.534  1.00  0.00    -0.639 C  
ENDBRANCH  29  31
ENDBRANCH  27  29
ENDBRANCH  19  27
ENDBRANCH  15  18
BRANCH  16  33
HETATM   33  C   UNL     1     -10.512   5.575  72.681  1.00  0.00    -0.215 C  
BRANCH  33  34
HETATM   34  C   UNL     1     -11.355   4.491  73.298  1.00  0.00    -0.364 C  
HETATM   35  C   UNL     1     -11.025   3.204  73.472  1.00  0.00    -0.323 C  
ENDBRANCH  33  34
ENDBRANCH  16  33
TORSDOF 9
ENDMDL
MODEL        7
REMARK 921   NORMALIZED FREE ENERGY PREDICTED BY IDOCK:   -6.15 KCAL/MOL
REMARK 922        TOTAL FREE ENERGY PREDICTED BY IDOCK:  -10.09 KCAL/MOL
REMARK 923 INTER-LIGAND FREE ENERGY PREDICTED BY IDOCK:   -8.52 KCAL/MOL
REMARK 924 INTRA-LIGAND FREE ENERGY PREDICTED BY IDOCK:   -1.57 KCAL/MOL
REMARK 927      BINDING AFFINITY PREDICTED BY RF-SCORE:    0.00 PKD
ROOT
HETATM    1  C   UNL     1     -10.488  11.543  66.386  1.00  0.00    -0.250 C  
HETATM    2  C   UNL     1     -11.779  12.237  66.821  1.00  0.00    -0.411 C  
HETATM    3  C   UNL     1     -11.448  12.922  68.093  1.00  0.00    -0.354 A  
HETATM    4  C   UNL     1     -12.086  13.093  69.290  1.00  0.00    -0.220 A  
HETATM    5  N   UNL     1     -11.334  13.989  70.016  1.00  0.00    -0.469 NA 
HETATM    6  H   UNL     1     -11.570  14.330  70.947  1.00  0.00     0.000 HD 
HETATM    7  C   UNL     1     -10.216  14.359  69.302  1.00  0.00    -0.064 A  
HETATM    8  C   UNL     1      -9.266  15.361  69.452  1.00  0.00    -0.268 A  
HETATM    9  C   UNL     1      -8.259  15.419  68.470  1.00  0.00    -0.145 A  
HETATM   10  C   UNL     1      -8.123  14.434  67.468  1.00  0.00    -0.204 A  
HETATM   11  C   UNL     1      -9.063  13.407  67.354  1.00  0.00    -0.216 A  
HETATM   12  C   UNL     1      -9.122  12.353  66.253  1.00  0.00    -0.099 C  
HETATM   13  C   UNL     1     -10.161  13.499  68.225  1.00  0.00    -0.250 A  
HETATM   14  C   UNL     1      -7.988  11.262  66.123  1.00  0.00    -0.038 C  
HETATM   15  C   UNL     1      -8.496   9.858  66.639  1.00  0.00    -0.126 C  
HETATM   16  N   UNL     1     -10.656  10.598  65.284  1.00  0.00    -0.185 NA 
HETATM   17  C   UNL     1      -9.720   9.491  65.650  1.00  0.00    -0.290 C  
ENDROOT
BRANCH  15  18
HETATM   18  C   UNL     1      -8.462  10.000  68.280  1.00  0.00    -0.111 C  
HETATM   19  N   UNL     1      -8.940   9.079  69.227  1.00  0.00    -0.142 N  
HETATM   20  O   UNL     1      -7.855  10.978  68.717  1.00  0.00    -0.123 OA 
BRANCH  19  21
HETATM   21  C   UNL     1      -8.600   9.330  70.677  1.00  0.00    -0.225 C  
BRANCH  21  22
HETATM   22  C   UNL     1      -9.266   8.510  71.809  1.00  0.00    -0.316 C  
HETATM   23  C   UNL     1     -10.764   8.636  72.214  1.00  0.00    -0.313 C  
BRANCH  23  24
HETATM   24  N   UNL     1     -11.896   8.599  71.263  1.00  0.00    -0.288 NA 
HETATM   25  C   UNL     1     -12.596   9.908  71.297  1.00  0.00    -0.381 C  
HETATM   26  C   UNL     1     -12.913   7.579  71.576  1.00  0.00    -0.359 C  
ENDBRANCH  23  24
ENDBRANCH  21  22
ENDBRANCH  19  21
BRANCH  19  27
HETATM   27  C   UNL     1      -9.288   7.783  68.869  1.00  0.00    -0.146 C  
HETATM   28  O   UNL     1      -8.492   6.853  68.798  1.00  0.00    -0.121 OA 
BRANCH  27  29
HETATM   29  N   UNL     1     -10.636   7.586  68.651  1.00  0.00    -0.316 N  
HETATM   30  H   UNL     1     -11.282   8.374  68.696  1.00  0.00     0.000 HD 
BRANCH  29  31
HETATM   31  C   UNL     1     -11.131   6.262  68.361  1.00  0.00    -0.279 C  
HETATM   32  C   UNL     1     -10.854   5.876  66.926  1.00  0.00    -0.376 C  
ENDBRANCH  29  31
ENDBRANCH  27  29
ENDBRANCH  19  27
ENDBRANCH  15  18
BRANCH  16  33
HETATM   33  C   UNL     1     -10.469  11.280  63.985  1.00  0.00    -0.378 C  
BRANCH  33  34
HETATM   34  C   UNL     1     -11.681  11.904  63.346  1.00  0.00    -0.500 C  
HETATM   35  C   UNL     1     -12.084  13.178  63.436  1.00  0.00    -0.558 C  
ENDBRANCH  33  34
ENDBRANCH  16  33
TORSDOF 9
ENDMDL
MODEL        8
REMARK 921   NORMALIZED FREE ENERGY PREDICTED BY IDOCK:   -6.04 KCAL/MOL
REMARK 922        TOTAL FREE ENERGY PREDICTED BY IDOCK:   -9.93 KCAL/MOL
REMARK 923 INTER-LIGAND FREE ENERGY PREDICTED BY IDOCK:   -8.60 KCAL/MOL
REMARK 924 INTRA-LIGAND FREE ENERGY PREDICTED BY IDOCK:   -1.33 KCAL/MOL
REMARK 927      BINDING AFFINITY PREDICTED BY RF-SCORE:    0.00 PKD
ROOT
HETATM    1  C   UNL     1     -10.515   7.149  70.319  1.00  0.00    -0.217 C  
HETATM    2  C   UNL     1     -11.268   6.162  69.427  1.00  0.00    -0.466 C  
HETATM    3  C   UNL     1     -10.590   6.224  68.111  1.00  0.00    -0.318 A  
HETATM    4  C   UNL     1     -11.008   6.238  66.810  1.00  0.00    -0.255 A  
HETATM    5  N   UNL     1      -9.880   6.118  66.029  1.00  0.00    -0.387 NA 
HETATM    6  H   UNL     1      -9.878   6.078  65.010  1.00  0.00     0.000 HD 
HETATM    7  C   UNL     1      -8.757   6.059  66.822  1.00  0.00    -0.119 A  
HETATM    8  C   UNL     1      -7.429   5.730  66.587  1.00  0.00    -0.084 A  
HETATM    9  C   UNL     1      -6.567   5.776  67.700  1.00  0.00    -0.053 A  
HETATM   10  C   UNL     1      -6.981   6.269  68.956  1.00  0.00    -0.068 A  
HETATM   11  C   UNL     1      -8.312   6.636  69.167  1.00  0.00    -0.124 A  
HETATM   12  C   UNL     1      -8.934   7.059  70.494  1.00  0.00    -0.155 C  
HETATM   13  C   UNL     1      -9.182   6.386  68.093  1.00  0.00    -0.111 A  
HETATM   14  C   UNL     1      -8.503   8.410  71.189  1.00  0.00    -0.178 C  
HETATM   15  C   UNL     1      -9.622   9.512  71.022  1.00  0.00    -0.160 C  
HETATM   16  N   UNL     1     -11.176   7.435  71.590  1.00  0.00    -0.243 NA 
HETATM   17  C   UNL     1     -10.905   8.892  71.786  1.00  0.00    -0.365 C  
ENDROOT
BRANCH  15  18
HETATM   18  C   UNL     1      -9.457  10.016  69.463  1.00  0.00    -0.226 C  
HETATM   19  N   UNL     1     -10.385  10.740  68.697  1.00  0.00    -0.182 N  
HETATM   20  O   UNL     1      -8.352   9.822  68.956  1.00  0.00    -0.113 OA 
BRANCH  19  21
HETATM   21  C   UNL     1      -9.921  11.278  67.364  1.00  0.00    -0.182 C  
BRANCH  21  22
HETATM   22  C   UNL     1     -10.837  11.228  66.116  1.00  0.00    -0.281 C  
HETATM   23  C   UNL     1     -11.832  12.356  65.717  1.00  0.00    -0.406 C  
BRANCH  23  24
HETATM   24  N   UNL     1     -11.485  13.791  65.638  1.00  0.00    -0.306 NA 
HETATM   25  C   UNL     1     -11.910  14.460  66.893  1.00  0.00    -0.410 C  
HETATM   26  C   UNL     1     -12.152  14.513  64.539  1.00  0.00    -0.484 C  
ENDBRANCH  23  24
ENDBRANCH  21  22
ENDBRANCH  19  21
BRANCH  19  27
HETATM   27  C   UNL     1     -11.492  11.345  69.277  1.00  0.00    -0.303 C  
HETATM   28  O   UNL     1     -12.613  10.847  69.305  1.00  0.00    -0.356 OA 
BRANCH  27  29
HETATM   29  N   UNL     1     -11.234  12.552  69.895  1.00  0.00    -0.480 N  
HETATM   30  H   UNL     1     -10.322  12.997  69.787  1.00  0.00     0.000 HD 
BRANCH  29  31
HETATM   31  C   UNL     1     -12.255  13.184  70.695  1.00  0.00    -0.321 C  
HETATM   32  C   UNL     1     -12.013  14.671  70.818  1.00  0.00    -0.380 C  
ENDBRANCH  29  31
ENDBRANCH  27  29
ENDBRANCH  19  27
ENDBRANCH  15  18
BRANCH  16  33
HETATM   33  C   UNL     1     -10.726   6.486  72.633  1.00  0.00    -0.231 C  
BRANCH  33  34
HETATM   34  C   UNL     1     -11.552   5.247  72.849  1.00  0.00    -0.292 C  
HETATM   35  C   UNL     1     -11.191   4.131  73.496  1.00  0.00    -0.341 C  
ENDBRANCH  33  34
ENDBRANCH  16  33
TORSDOF 9
ENDMDL
MODEL        9
REMARK 921   NORMALIZED FREE ENERGY PREDICTED BY IDOCK:   -6.00 KCAL/MOL
REMARK 922        TOTAL FREE ENERGY PREDICTED BY IDOCK:   -9.87 KCAL/MOL
REMARK 923 INTER-LIGAND FREE ENERGY PREDICTED BY IDOCK:   -8.02 KCAL/MOL
REMARK 924 INTRA-LIGAND FREE ENERGY PREDICTED BY IDOCK:   -1.85 KCAL/MOL
REMARK 927      BINDING AFFINITY PREDICTED BY RF-SCORE:    0.00 PKD
ROOT
HETATM    1  C   UNL     1     -10.111  15.213  69.264  1.00  0.00    -0.246 C  
HETATM    2  C   UNL     1      -8.612  15.376  69.513  1.00  0.00    -0.212 C  
HETATM    3  C   UNL     1      -8.071  15.985  68.276  1.00  0.00    -0.150 A  
HETATM    4  C   UNL     1      -6.949  15.794  67.518  1.00  0.00    -0.186 A  
HETATM    5  N   UNL     1      -6.925  16.805  66.583  1.00  0.00    -0.232 NA 
HETATM    6  H   UNL     1      -6.193  16.938  65.886  1.00  0.00     0.000 HD 
HETATM    7  C   UNL     1      -8.034  17.609  66.724  1.00  0.00    -0.239 A  
HETATM    8  C   UNL     1      -8.395  18.849  66.214  1.00  0.00    -0.274 A  
HETATM    9  C   UNL     1      -9.642  19.355  66.626  1.00  0.00    -0.429 A  
HETATM   10  C   UNL     1     -10.551  18.592  67.392  1.00  0.00    -0.490 A  
HETATM   11  C   UNL     1     -10.191  17.328  67.863  1.00  0.00    -0.332 A  
HETATM   12  C   UNL     1     -11.008  16.447  68.803  1.00  0.00    -0.344 C  
HETATM   13  C   UNL     1      -8.865  16.945  67.601  1.00  0.00    -0.215 A  
HETATM   14  C   UNL     1     -12.381  15.826  68.332  1.00  0.00     0.552 C  
HETATM   15  C   UNL     1     -12.226  14.285  68.024  1.00  0.00    -0.168 C  
HETATM   16  N   UNL     1     -10.801  14.397  70.261  1.00  0.00     0.103 NA 
HETATM   17  C   UNL     1     -11.794  13.638  69.441  1.00  0.00    -0.339 C  
ENDROOT
BRANCH  15  18
HETATM   18  C   UNL     1     -11.466  14.245  66.562  1.00  0.00    -0.360 C  
HETATM   19  N   UNL     1     -10.732  13.182  66.011  1.00  0.00    -0.274 N  
HETATM   20  O   UNL     1     -11.656  15.221  65.838  1.00  0.00    -0.177 OA 
BRANCH  19  21
HETATM   21  C   UNL     1     -10.314  13.300  64.564  1.00  0.00    -0.374 C  
BRANCH  21  22
HETATM   22  C   UNL     1     -10.550  12.140  63.565  1.00  0.00    -0.501 C  
HETATM   23  C   UNL     1      -9.445  11.148  63.102  1.00  0.00    -0.357 C  
BRANCH  23  24
HETATM   24  N   UNL     1      -8.528  10.428  64.012  1.00  0.00    -0.171 NA 
HETATM   25  C   UNL     1      -7.240  10.193  63.312  1.00  0.00    -0.129 C  
HETATM   26  C   UNL     1      -9.015   9.103  64.435  1.00  0.00    -0.055 C  
ENDBRANCH  23  24
ENDBRANCH  21  22
ENDBRANCH  19  21
BRANCH  19  27
HETATM   27  C   UNL     1     -10.775  11.907  66.559  1.00  0.00    -0.258 C  
HETATM   28  O   UNL     1     -11.784  11.210  66.602  1.00  0.00    -0.289 OA 
BRANCH  27  29
HETATM   29  N   UNL     1      -9.562  11.430  67.012  1.00  0.00    -0.175 N  
HETATM   30  H   UNL     1      -9.478  10.464  67.328  1.00  0.00     0.000 HD 
BRANCH  29  31
HETATM   31  C   UNL     1      -8.412  12.301  67.039  1.00  0.00    -0.181 C  
HETATM   32  C   UNL     1      -7.602  12.101  68.299  1.00  0.00    -0.132 C  
ENDBRANCH  29  31
ENDBRANCH  27  29
ENDBRANCH  19  27
ENDBRANCH  15  18
BRANCH  16  33
HETATM   33  C   UNL     1     -11.299  15.244  71.368  1.00  0.00    -0.363 C  
BRANCH  33  34
HETATM   34  C   UNL     1     -12.712  15.019  71.834  1.00  0.00    -0.407 C  
HETATM   35  C   UNL     1     -13.221  15.279  73.045  1.00  0.00    -0.617 C  
ENDBRANCH  33  34
ENDBRANCH  16  33
TORSDOF 9
ENDMDL
MODEL       10
REMARK 921   NORMALIZED FREE ENERGY PREDICTED BY IDOCK:   -5.95 KCAL/MOL
REMARK 922        TOTAL FREE ENERGY PREDICTED BY IDOCK:   -9.80 KCAL/MOL
REMARK 923 INTER-LIGAND FREE ENERGY PREDICTED BY IDOCK:   -8.08 KCAL/MOL
REMARK 924 INTRA-LIGAND FREE ENERGY PREDICTED BY IDOCK:   -1.71 KCAL/MOL
REMARK 927      BINDING AFFINITY PREDICTED BY RF-SCORE:    0.00 PKD
ROOT
HETATM    1  C   UNL     1      -8.574   7.227  68.185  1.00  0.00    -0.122 C  
HETATM    2  C   UNL     1      -7.531   7.161  69.301  1.00  0.00    -0.093 C  
HETATM    3  C   UNL     1      -8.138   7.874  70.450  1.00  0.00    -0.114 A  
HETATM    4  C   UNL     1      -7.682   8.759  71.385  1.00  0.00    -0.114 A  
HETATM    5  N   UNL     1      -8.692   8.917  72.309  1.00  0.00    -0.375 NA 
HETATM    6  H   UNL     1      -8.636   9.505  73.139  1.00  0.00     0.000 HD 
HETATM    7  C   UNL     1      -9.788   8.166  71.947  1.00  0.00    -0.212 A  
HETATM    8  C   UNL     1     -10.955   7.792  72.598  1.00  0.00    -0.422 A  
HETATM    9  C   UNL     1     -11.844   6.979  71.869  1.00  0.00    -0.341 A  
HETATM   10  C   UNL     1     -11.645   6.676  70.504  1.00  0.00    -0.448 A  
HETATM   11  C   UNL     1     -10.485   7.094  69.850  1.00  0.00    -0.237 A  
HETATM   12  C   UNL     1     -10.070   6.737  68.426  1.00  0.00    -0.168 C  
HETATM   13  C   UNL     1      -9.531   7.729  70.664  1.00  0.00    -0.162 A  
HETATM   14  C   UNL     1     -10.899   7.267  67.191  1.00  0.00    -0.378 C  
HETATM   15  C   UNL     1     -10.132   8.438  66.459  1.00  0.00    -0.317 C  
HETATM   16  N   UNL     1      -8.080   6.805  66.876  1.00  0.00    -0.108 NA 
HETATM   17  C   UNL     1      -8.763   7.752  65.942  1.00  0.00    -0.149 C  
ENDROOT
BRANCH  15  18
HETATM   18  C   UNL     1     -10.362   9.741  67.440  1.00  0.00    -0.240 C  
HETATM   19  N   UNL     1      -9.574  10.901  67.517  1.00  0.00    -0.155 N  
HETATM   20  O   UNL     1     -11.401   9.732  68.101  1.00  0.00    -0.097 OA 
BRANCH  19  21
HETATM   21  C   UNL     1     -10.109  12.053  68.334  1.00  0.00    -0.210 C  
BRANCH  21  22
HETATM   22  C   UNL     1     -11.495  12.675  68.031  1.00  0.00    -0.366 C  
HETATM   23  C   UNL     1     -11.719  13.894  67.090  1.00  0.00    -0.388 C  
BRANCH  23  24
HETATM   24  N   UNL     1     -11.156  14.016  65.728  1.00  0.00    -0.301 NA 
HETATM   25  C   UNL     1     -10.132  15.092  65.725  1.00  0.00    -0.340 C  
HETATM   26  C   UNL     1     -12.144  14.384  64.698  1.00  0.00    -0.471 C  
ENDBRANCH  23  24
ENDBRANCH  21  22
ENDBRANCH  19  21
BRANCH  19  27
HETATM   27  C   UNL     1      -8.613  11.192  66.559  1.00  0.00    -0.169 C  
HETATM   28  O   UNL     1      -7.432  10.875  66.651  1.00  0.00    -0.126 OA 
BRANCH  27  29
HETATM   29  N   UNL     1      -9.094  11.825  65.430  1.00  0.00    -0.418 N  
HETATM   30  H   UNL     1      -9.314  12.821  65.458  1.00  0.00     0.000 HD 
BRANCH  29  31
HETATM   31  C   UNL     1      -9.286  11.076  64.212  1.00  0.00    -0.152 C  
HETATM   32  C   UNL     1     -10.733  11.097  63.778  1.00  0.00    -0.399 C  
ENDBRANCH  29  31
ENDBRANCH  27  29
ENDBRANCH  19  27
ENDBRANCH  15  18
BRANCH  16  33
HETATM   33  C   UNL     1      -8.289   5.353  66.687  1.00  0.00    -0.108 C  
BRANCH  33  34
HETATM   34  C   UNL     1      -8.908   4.902  65.391  1.00  0.00    -0.149 C  
HETATM   35  C   UNL     1     -10.072   4.261  65.225  1.00  0.00    -0.231 C  
ENDBRANCH  33  34
ENDBRANCH  16  33
TORSDOF 9
ENDMDL
MODEL       11
REMARK 921   NORMALIZED FREE ENERGY PREDICTED BY IDOCK:   -5.90 KCAL/MOL
REMARK 922        TOTAL FREE ENERGY PREDICTED BY IDOCK:   -9.72 KCAL/MOL
REMARK 923 INTER-LIGAND FREE ENERGY PREDICTED BY IDOCK:   -8.05 KCAL/MOL
REMARK 924 INTRA-LIGAND FREE ENERGY PREDICTED BY IDOCK:   -1.66 KCAL/MOL
REMARK 927      BINDING AFFINITY PREDICTED BY RF-SCORE:    0.00 PKD
ROOT
HETATM    1  C   UNL     1      -7.835  10.393  66.190  1.00  0.00    -0.135 C  
HETATM    2  C   UNL     1      -6.568  11.029  66.763  1.00  0.00    -0.124 C  
HETATM    3  C   UNL     1      -6.772  11.059  68.230  1.00  0.00    -0.059 A  
HETATM    4  C   UNL     1      -6.521  11.968  69.220  1.00  0.00    -0.111 A  
HETATM    5  N   UNL     1      -6.769  11.331  70.416  1.00  0.00    -0.489 NA 
HETATM    6  H   UNL     1      -6.649  11.752  71.336  1.00  0.00     0.000 HD 
HETATM    7  C   UNL     1      -7.201  10.044  70.188  1.00  0.00    -0.161 A  
HETATM    8  C   UNL     1      -7.376   8.930  70.998  1.00  0.00    -0.114 A  
HETATM    9  C   UNL     1      -7.832   7.760  70.361  1.00  0.00    -0.090 A  
HETATM   10  C   UNL     1      -8.235   7.744  69.008  1.00  0.00    -0.126 A  
HETATM   11  C   UNL     1      -8.092   8.884  68.215  1.00  0.00    -0.109 A  
HETATM   12  C   UNL     1      -8.359   8.983  66.717  1.00  0.00    -0.115 C  
HETATM   13  C   UNL     1      -7.447   9.969  68.833  1.00  0.00    -0.083 A  
HETATM   14  C   UNL     1      -9.825   8.833  66.149  1.00  0.00    -0.297 C  
HETATM   15  C   UNL     1     -10.409  10.235  65.717  1.00  0.00    -0.236 C  
HETATM   16  N   UNL     1      -7.955  10.496  64.737  1.00  0.00    -0.099 NA 
HETATM   17  C   UNL     1      -9.418  10.731  64.540  1.00  0.00    -0.252 C  
ENDROOT
BRANCH  15  18
HETATM   18  C   UNL     1     -10.809  10.958  67.143  1.00  0.00    -0.280 C  
HETATM   19  N   UNL     1     -10.896  12.334  67.408  1.00  0.00    -0.232 N  
HETATM   20  O   UNL     1     -11.170  10.197  68.041  1.00  0.00    -0.270 OA 
BRANCH  19  21
HETATM   21  C   UNL     1     -11.495  12.753  68.729  1.00  0.00    -0.304 C  
BRANCH  21  22
HETATM   22  C   UNL     1     -11.732  14.247  69.063  1.00  0.00    -0.352 C  
HETATM   23  C   UNL     1     -12.600  14.749  70.254  1.00  0.00    -0.315 C  
BRANCH  23  24
HETATM   24  N   UNL     1     -12.477  14.261  71.645  1.00  0.00    -0.347 NA 
HETATM   25  C   UNL     1     -13.809  13.804  72.115  1.00  0.00    -0.554 C  
HETATM   26  C   UNL     1     -12.031  15.287  72.606  1.00  0.00    -0.431 C  
ENDBRANCH  23  24
ENDBRANCH  21  22
ENDBRANCH  19  21
BRANCH  19  27
HETATM   27  C   UNL     1     -10.891  13.273  66.384  1.00  0.00    -0.288 C  
HETATM   28  O   UNL     1      -9.913  13.944  66.071  1.00  0.00    -0.298 OA 
BRANCH  27  29
HETATM   29  N   UNL     1     -12.073  13.364  65.677  1.00  0.00    -0.407 N  
HETATM   30  H   UNL     1     -12.964  13.226  66.153  1.00  0.00     0.000 HD 
BRANCH  29  31
HETATM   31  C   UNL     1     -12.045  13.654  64.265  1.00  0.00    -0.434 C  
HETATM   32  C   UNL     1     -12.471  12.455  63.450  1.00  0.00    -0.554 C  
ENDBRANCH  29  31
ENDBRANCH  27  29
ENDBRANCH  19  27
ENDBRANCH  15  18
BRANCH  16  33
HETATM   33  C   UNL     1      -7.333   9.325  64.082  1.00  0.00    -0.106 C  
BRANCH  33  34
HETATM   34  C   UNL     1      -8.056   8.719  62.908  1.00  0.00    -0.174 C  
HETATM   35  C   UNL     1      -8.101   7.427  62.559  1.00  0.00    -0.104 C  
ENDBRANCH  33  34
ENDBRANCH  16  33
TORSDOF 9
ENDMDL
MODEL       12
REMARK 921   NORMALIZED FREE ENERGY PREDICTED BY IDOCK:   -5.87 KCAL/MOL
REMARK 922        TOTAL FREE ENERGY PREDICTED BY IDOCK:   -9.67 KCAL/MOL
REMARK 923 INTER-LIGAND FREE ENERGY PREDICTED BY IDOCK:   -7.82 KCAL/MOL
REMARK 924 INTRA-LIGAND FREE ENERGY PREDICTED BY IDOCK:   -1.85 KCAL/MOL
REMARK 927      BINDING AFFINITY PREDICTED BY RF-SCORE:    0.00 PKD
ROOT
HETATM    1  C   UNL     1     -10.029  10.262  67.101  1.00  0.00    -0.197 C  
HETATM    2  C   UNL     1     -10.234   9.360  65.884  1.00  0.00    -0.123 C  
HETATM    3  C   UNL     1      -9.329   9.898  64.840  1.00  0.00    -0.329 A  
HETATM    4  C   UNL     1      -9.432  10.116  63.495  1.00  0.00    -0.260 A  
HETATM    5  N   UNL     1      -8.175  10.467  63.053  1.00  0.00    -0.160 NA 
HETATM    6  H   UNL     1      -7.934  10.671  62.084  1.00  0.00     0.000 HD 
HETATM    7  C   UNL     1      -7.292  10.500  64.109  1.00  0.00     0.113 A  
HETATM    8  C   UNL     1      -5.909  10.575  64.205  1.00  0.00    -0.071 A  
HETATM    9  C   UNL     1      -5.372  10.566  65.506  1.00  0.00    -0.115 A  
HETATM   10  C   UNL     1      -6.184  10.630  66.659  1.00  0.00    -0.083 A  
HETATM   11  C   UNL     1      -7.575  10.596  66.546  1.00  0.00    -0.134 A  
HETATM   12  C   UNL     1      -8.575  10.526  67.696  1.00  0.00    -0.118 C  
HETATM   13  C   UNL     1      -8.068  10.401  65.245  1.00  0.00    -0.152 A  
HETATM   14  C   UNL     1      -8.735  11.737  68.697  1.00  0.00    -0.059 C  
HETATM   15  C   UNL     1     -10.067  12.535  68.407  1.00  0.00    -0.216 C  
HETATM   16  N   UNL     1     -11.012  10.066  68.165  1.00  0.00    -0.254 NA 
HETATM   17  C   UNL     1     -11.241  11.456  68.667  1.00  0.00    -0.243 C  
ENDROOT
BRANCH  15  18
HETATM   18  C   UNL     1      -9.717  13.420  67.061  1.00  0.00    -0.239 C  
HETATM   19  N   UNL     1     -10.625  13.979  66.147  1.00  0.00    -0.286 N  
HETATM   20  O   UNL     1      -8.530  13.704  66.907  1.00  0.00    -0.164 OA 
BRANCH  19  21
HETATM   21  C   UNL     1     -10.075  14.934  65.115  1.00  0.00    -0.319 C  
BRANCH  21  22
HETATM   22  C   UNL     1     -10.721  16.323  64.885  1.00  0.00    -0.256 C  
HETATM   23  C   UNL     1     -10.423  17.579  65.756  1.00  0.00    -0.207 C  
BRANCH  23  24
HETATM   24  N   UNL     1      -9.067  18.055  66.105  1.00  0.00    -0.504 NA 
HETATM   25  C   UNL     1      -8.577  17.295  67.282  1.00  0.00    -0.203 C  
HETATM   26  C   UNL     1      -9.007  19.480  66.480  1.00  0.00    -0.361 C  
ENDBRANCH  23  24
ENDBRANCH  21  22
ENDBRANCH  19  21
BRANCH  19  27
HETATM   27  C   UNL     1     -11.983  14.054  66.426  1.00  0.00    -0.438 C  
HETATM   28  O   UNL     1     -12.457  14.665  67.378  1.00  0.00    -0.058 OA 
BRANCH  27  29
HETATM   29  N   UNL     1     -12.799  13.432  65.502  1.00  0.00    -0.549 N  
HETATM   30  H   UNL     1     -13.715  13.824  65.284  1.00  0.00     0.000 HD 
BRANCH  29  31
HETATM   31  C   UNL     1     -12.354  12.227  64.847  1.00  0.00    -0.299 C  
HETATM   32  C   UNL     1     -12.400  12.371  63.343  1.00  0.00    -0.603 C  
ENDBRANCH  29  31
ENDBRANCH  27  29
ENDBRANCH  19  27
ENDBRANCH  15  18
BRANCH  16  33
HETATM   33  C   UNL     1     -10.542   9.038  69.121  1.00  0.00    -0.203 C  
BRANCH  33  34
HETATM   34  C   UNL     1     -10.750   9.305  70.588  1.00  0.00    -0.331 C  
HETATM   35  C   UNL     1      -9.972   8.912  71.604  1.00  0.00    -0.397 C  
ENDBRANCH  33  34
ENDBRANCH  16  33
TORSDOF 9
ENDMDL
MODEL       13
REMARK 921   NORMALIZED FREE ENERGY PREDICTED BY IDOCK:   -5.87 KCAL/MOL
REMARK 922        TOTAL FREE ENERGY PREDICTED BY IDOCK:   -9.67 KCAL/MOL
REMARK 923 INTER-LIGAND FREE ENERGY PREDICTED BY IDOCK:   -9.20 KCAL/MOL
REMARK 924 INTRA-LIGAND FREE ENERGY PREDICTED BY IDOCK:   -0.46 KCAL/MOL
REMARK 927      BINDING AFFINITY PREDICTED BY RF-SCORE:    0.00 PKD
ROOT
HETATM    1  C   UNL     1      -9.478  11.003  66.025  1.00  0.00    -0.207 C  
HETATM    2  C   UNL     1     -10.333  10.982  64.758  1.00  0.00    -0.389 C  
HETATM    3  C   UNL     1     -11.310  12.084  64.924  1.00  0.00    -0.366 A  
HETATM    4  C   UNL     1     -12.643  12.236  64.667  1.00  0.00    -0.289 A  
HETATM    5  N   UNL     1     -12.937  13.566  64.870  1.00  0.00    -0.721 NA 
HETATM    6  H   UNL     1     -13.855  13.988  64.735  1.00  0.00     0.000 HD 
HETATM    7  C   UNL     1     -11.811  14.244  65.280  1.00  0.00    -0.374 A  
HETATM    8  C   UNL     1     -11.491  15.589  65.411  1.00  0.00    -0.046 A  
HETATM    9  C   UNL     1     -10.189  15.881  65.858  1.00  0.00    -0.373 A  
HETATM   10  C   UNL     1      -9.298  14.877  66.296  1.00  0.00    -0.329 A  
HETATM   11  C   UNL     1      -9.649  13.529  66.198  1.00  0.00    -0.219 A  
HETATM   12  C   UNL     1      -8.750  12.336  66.506  1.00  0.00    -0.084 C  
HETATM   13  C   UNL     1     -10.873  13.272  65.560  1.00  0.00    -0.297 A  
HETATM   14  C   UNL     1      -8.268  12.052  67.982  1.00  0.00    -0.156 C  
HETATM   15  C   UNL     1      -9.053  10.832  68.607  1.00  0.00    -0.173 C  
HETATM   16  N   UNL     1      -8.613   9.836  66.185  1.00  0.00    -0.126 NA 
HETATM   17  C   UNL     1      -8.664   9.583  67.658  1.00  0.00    -0.122 C  
ENDROOT
BRANCH  15  18
HETATM   18  C   UNL     1     -10.529  11.459  68.985  1.00  0.00    -0.168 C  
HETATM   19  N   UNL     1     -11.545  10.855  69.744  1.00  0.00    -0.292 N  
HETATM   20  O   UNL     1     -10.712  12.629  68.647  1.00  0.00    -0.240 OA 
BRANCH  19  21
HETATM   21  C   UNL     1     -12.722  11.712  70.141  1.00  0.00     0.091 C  
BRANCH  21  22
HETATM   22  C   UNL     1     -13.034  12.004  71.630  1.00  0.00    -0.439 C  
HETATM   23  C   UNL     1     -13.001  13.424  72.267  1.00  0.00    -0.289 C  
BRANCH  23  24
HETATM   24  N   UNL     1     -13.667  14.615  71.698  1.00  0.00    -0.387 NA 
HETATM   25  C   UNL     1     -12.772  15.229  70.684  1.00  0.00    -0.416 C  
HETATM   26  C   UNL     1     -13.959  15.672  72.684  1.00  0.00    -0.525 C  
ENDBRANCH  23  24
ENDBRANCH  21  22
ENDBRANCH  19  21
BRANCH  19  27
HETATM   27  C   UNL     1     -11.308   9.711  70.494  1.00  0.00    -0.296 C  
HETATM   28  O   UNL     1     -10.358   9.574  71.259  1.00  0.00    -0.312 OA 
BRANCH  27  29
HETATM   29  N   UNL     1     -12.270   8.729  70.372  1.00  0.00    -0.397 N  
HETATM   30  H   UNL     1     -12.598   8.448  69.448  1.00  0.00     0.000 HD 
BRANCH  29  31
HETATM   31  C   UNL     1     -12.811   8.101  71.553  1.00  0.00    -0.301 C  
HETATM   32  C   UNL     1     -14.319   8.197  71.583  1.00  0.00    -0.570 C  
ENDBRANCH  29  31
ENDBRANCH  27  29
ENDBRANCH  19  27
ENDBRANCH  15  18
BRANCH  16  33
HETATM   33  C   UNL     1      -7.296  10.078  65.556  1.00  0.00    -0.137 C  
BRANCH  33  34
HETATM   34  C   UNL     1      -7.107   9.614  64.136  1.00  0.00    -0.119 C  
HETATM   35  C   UNL     1      -7.732   8.601  63.522  1.00  0.00    -0.136 C  
ENDBRANCH  33  34
ENDBRANCH  16  33
TORSDOF 9
ENDMDL
MODEL       14
REMARK 921   NORMALIZED FREE ENERGY PREDICTED BY IDOCK:   -5.83 KCAL/MOL
REMARK 922        TOTAL FREE ENERGY PREDICTED BY IDOCK:   -9.61 KCAL/MOL
REMARK 923 INTER-LIGAND FREE ENERGY PREDICTED BY IDOCK:   -7.93 KCAL/MOL
REMARK 924 INTRA-LIGAND FREE ENERGY PREDICTED BY IDOCK:   -1.68 KCAL/MOL
REMARK 927      BINDING AFFINITY PREDICTED BY RF-SCORE:    0.00 PKD
ROOT
HETATM    1  C   UNL     1     -10.466   8.338  69.392  1.00  0.00    -0.220 C  
HETATM    2  C   UNL     1     -10.929   6.904  69.135  1.00  0.00    -0.240 C  
HETATM    3  C   UNL     1     -10.405   6.556  67.793  1.00  0.00    -0.234 A  
HETATM    4  C   UNL     1     -10.903   5.891  66.707  1.00  0.00    -0.270 A  
HETATM    5  N   UNL     1      -9.857   5.736  65.824  1.00  0.00    -0.374 NA 
HETATM    6  H   UNL     1      -9.918   5.256  64.927  1.00  0.00     0.000 HD 
HETATM    7  C   UNL     1      -8.718   6.321  66.329  1.00  0.00    -0.142 A  
HETATM    8  C   UNL     1      -7.376   6.276  65.976  1.00  0.00    -0.080 A  
HETATM    9  C   UNL     1      -6.494   7.024  66.780  1.00  0.00    -0.051 A  
HETATM   10  C   UNL     1      -6.949   7.892  67.796  1.00  0.00    -0.074 A  
HETATM   11  C   UNL     1      -8.307   7.958  68.112  1.00  0.00    -0.124 A  
HETATM   12  C   UNL     1      -8.931   8.744  69.262  1.00  0.00    -0.144 C  
HETATM   13  C   UNL     1      -9.129   7.049  67.426  1.00  0.00    -0.124 A  
HETATM   14  C   UNL     1      -8.904  10.323  69.264  1.00  0.00    -0.186 C  
HETATM   15  C   UNL     1     -10.326  10.911  68.909  1.00  0.00    -0.222 C  
HETATM   16  N   UNL     1     -11.087   8.971  70.554  1.00  0.00    -0.248 NA 
HETATM   17  C   UNL     1     -11.282  10.382  70.100  1.00  0.00    -0.321 C  
ENDROOT
BRANCH  15  18
HETATM   18  C   UNL     1     -10.448  10.706  67.279  1.00  0.00    -0.246 C  
HETATM   19  N   UNL     1      -9.693  11.343  66.280  1.00  0.00    -0.205 N  
HETATM   20  O   UNL     1     -11.216   9.817  66.911  1.00  0.00     0.080 OA 
BRANCH  19  21
HETATM   21  C   UNL     1      -9.834  10.829  64.866  1.00  0.00    -0.292 C  
BRANCH  21  22
HETATM   22  C   UNL     1     -10.175  11.786  63.697  1.00  0.00    -0.461 C  
HETATM   23  C   UNL     1     -11.221  12.935  63.786  1.00  0.00    -0.402 C  
BRANCH  23  24
HETATM   24  N   UNL     1     -11.275  13.938  64.872  1.00  0.00    -0.340 NA 
HETATM   25  C   UNL     1     -12.395  13.597  65.786  1.00  0.00    -0.482 C  
HETATM   26  C   UNL     1     -11.525  15.315  64.409  1.00  0.00    -0.239 C  
ENDBRANCH  23  24
ENDBRANCH  21  22
ENDBRANCH  19  21
BRANCH  19  27
HETATM   27  C   UNL     1      -8.547  12.065  66.584  1.00  0.00    -0.143 C  
HETATM   28  O   UNL     1      -7.431  11.570  66.694  1.00  0.00    -0.138 OA 
BRANCH  27  29
HETATM   29  N   UNL     1      -8.736  13.428  66.697  1.00  0.00    -0.441 N  
HETATM   30  H   UNL     1      -9.045  13.970  65.890  1.00  0.00     0.000 HD 
BRANCH  29  31
HETATM   31  C   UNL     1      -8.495  14.085  67.959  1.00  0.00    -0.171 C  
HETATM   32  C   UNL     1      -9.784  14.587  68.570  1.00  0.00    -0.224 C  
ENDBRANCH  29  31
ENDBRANCH  27  29
ENDBRANCH  19  27
ENDBRANCH  15  18
BRANCH  16  33
HETATM   33  C   UNL     1     -10.280   8.725  71.770  1.00  0.00    -0.338 C  
BRANCH  33  34
HETATM   34  C   UNL     1     -10.844   7.783  72.800  1.00  0.00    -0.438 C  
HETATM   35  C   UNL     1     -10.163   7.021  73.665  1.00  0.00    -0.396 C  
ENDBRANCH  33  34
ENDBRANCH  16  33
TORSDOF 9
ENDMDL
MODEL       15
REMARK 921   NORMALIZED FREE ENERGY PREDICTED BY IDOCK:   -5.81 KCAL/MOL
REMARK 922        TOTAL FREE ENERGY PREDICTED BY IDOCK:   -9.58 KCAL/MOL
REMARK 923 INTER-LIGAND FREE ENERGY PREDICTED BY IDOCK:   -7.17 KCAL/MOL
REMARK 924 INTRA-LIGAND FREE ENERGY PREDICTED BY IDOCK:   -2.41 KCAL/MOL
REMARK 927      BINDING AFFINITY PREDICTED BY RF-SCORE:    0.00 PKD
ROOT
HETATM    1  C   UNL     1      -8.775   7.020  68.353  1.00  0.00    -0.125 C  
HETATM    2  C   UNL     1      -7.820   6.905  69.541  1.00  0.00    -0.120 C  
HETATM    3  C   UNL     1      -8.445   7.697  70.626  1.00  0.00    -0.127 A  
HETATM    4  C   UNL     1      -7.984   8.571  71.570  1.00  0.00    -0.133 A  
HETATM    5  N   UNL     1      -9.039   8.836  72.416  1.00  0.00    -0.375 NA 
HETATM    6  H   UNL     1      -8.993   9.442  73.234  1.00  0.00     0.000 HD 
HETATM    7  C   UNL     1     -10.164   8.163  71.996  1.00  0.00    -0.249 A  
HETATM    8  C   UNL     1     -11.401   7.901  72.572  1.00  0.00    -0.449 A  
HETATM    9  C   UNL     1     -12.300   7.140  71.801  1.00  0.00    -0.385 A  
HETATM   10  C   UNL     1     -12.033   6.782  70.462  1.00  0.00    -0.385 A  
HETATM   11  C   UNL     1     -10.800   7.088  69.881  1.00  0.00    -0.280 A  
HETATM   12  C   UNL     1     -10.320   6.657  68.499  1.00  0.00    -0.216 C  
HETATM   13  C   UNL     1      -9.857   7.669  70.745  1.00  0.00    -0.177 A  
HETATM   14  C   UNL     1     -11.016   7.213  67.196  1.00  0.00    -0.342 C  
HETATM   15  C   UNL     1     -10.109   8.298  66.492  1.00  0.00    -0.303 C  
HETATM   16  N   UNL     1      -8.228   6.522  67.093  1.00  0.00    -0.112 NA 
HETATM   17  C   UNL     1      -8.767   7.491  66.090  1.00  0.00    -0.156 C  
ENDROOT
BRANCH  15  18
HETATM   18  C   UNL     1     -10.300   9.644  67.423  1.00  0.00    -0.247 C  
HETATM   19  N   UNL     1      -9.310  10.564  67.806  1.00  0.00    -0.148 N  
HETATM   20  O   UNL     1     -11.460   9.921  67.724  1.00  0.00    -0.121 OA 
BRANCH  19  21
HETATM   21  C   UNL     1      -9.766  11.838  68.478  1.00  0.00    -0.178 C  
BRANCH  21  22
HETATM   22  C   UNL     1      -9.854  13.170  67.692  1.00  0.00    -0.219 C  
HETATM   23  C   UNL     1     -10.381  13.290  66.233  1.00  0.00    -0.290 C  
BRANCH  23  24
HETATM   24  N   UNL     1     -11.648  12.700  65.748  1.00  0.00    -0.365 NA 
HETATM   25  C   UNL     1     -11.368  11.886  64.538  1.00  0.00    -0.316 C  
HETATM   26  C   UNL     1     -12.662  13.694  65.351  1.00  0.00    -0.453 C  
ENDBRANCH  23  24
ENDBRANCH  21  22
ENDBRANCH  19  21
BRANCH  19  27
HETATM   27  C   UNL     1      -8.054  10.570  67.214  1.00  0.00    -0.115 C  
HETATM   28  O   UNL     1      -7.838  10.939  66.064  1.00  0.00    -0.159 OA 
BRANCH  27  29
HETATM   29  N   UNL     1      -7.022  10.182  68.043  1.00  0.00    -0.081 N  
HETATM   30  H   UNL     1      -7.206   9.967  69.023  1.00  0.00     0.000 HD 
BRANCH  29  31
HETATM   31  C   UNL     1      -5.680  10.081  67.522  1.00  0.00    -0.045 C  
HETATM   32  C   UNL     1      -5.308   8.643  67.242  1.00  0.00    -0.037 C  
ENDBRANCH  29  31
ENDBRANCH  27  29
ENDBRANCH  19  27
ENDBRANCH  15  18
BRANCH  16  33
HETATM   33  C   UNL     1      -8.541   5.085  66.925  1.00  0.00    -0.105 C  
BRANCH  33  34
HETATM   34  C   UNL     1      -8.869   4.602  65.537  1.00  0.00    -0.134 C  
HETATM   35  C   UNL     1     -10.038   4.116  65.100  1.00  0.00    -0.219 C  
ENDBRANCH  33  34
ENDBRANCH  16  33
TORSDOF 9
ENDMDL
MODEL       16
REMARK 921   NORMALIZED FREE ENERGY PREDICTED BY IDOCK:   -5.79 KCAL/MOL
REMARK 922        TOTAL FREE ENERGY PREDICTED BY IDOCK:   -9.55 KCAL/MOL
REMARK 923 INTER-LIGAND FREE ENERGY PREDICTED BY IDOCK:   -8.11 KCAL/MOL
REMARK 924 INTRA-LIGAND FREE ENERGY PREDICTED BY IDOCK:   -1.44 KCAL/MOL
REMARK 927      BINDING AFFINITY PREDICTED BY RF-SCORE:    0.00 PKD
ROOT
HETATM    1  C   UNL     1      -8.892   9.765  65.862  1.00  0.00    -0.150 C  
HETATM    2  C   UNL     1      -7.804   8.929  65.188  1.00  0.00    -0.106 C  
HETATM    3  C   UNL     1      -7.574   7.778  66.093  1.00  0.00    -0.087 A  
HETATM    4  C   UNL     1      -6.470   7.108  66.538  1.00  0.00    -0.051 A  
HETATM    5  N   UNL     1      -6.926   6.003  67.223  1.00  0.00    -0.067 NA 
HETATM    6  H   UNL     1      -6.330   5.297  67.655  1.00  0.00     0.000 HD 
HETATM    7  C   UNL     1      -8.303   5.988  67.238  1.00  0.00    -0.105 A  
HETATM    8  C   UNL     1      -9.251   5.035  67.582  1.00  0.00    -0.132 A  
HETATM    9  C   UNL     1     -10.599   5.414  67.437  1.00  0.00    -0.228 A  
HETATM   10  C   UNL     1     -10.982   6.732  67.106  1.00  0.00    -0.458 A  
HETATM   11  C   UNL     1     -10.016   7.693  66.804  1.00  0.00    -0.317 A  
HETATM   12  C   UNL     1     -10.275   9.112  66.306  1.00  0.00    -0.257 C  
HETATM   13  C   UNL     1      -8.693   7.223  66.763  1.00  0.00    -0.132 A  
HETATM   14  C   UNL     1     -10.971  10.177  67.242  1.00  0.00    -0.250 C  
HETATM   15  C   UNL     1      -9.918  11.223  67.783  1.00  0.00    -0.193 C  
HETATM   16  N   UNL     1      -9.093  11.083  65.264  1.00  0.00    -0.203 NA 
HETATM   17  C   UNL     1      -9.361  11.950  66.452  1.00  0.00    -0.226 C  
ENDROOT
BRANCH  15  18
HETATM   18  C   UNL     1      -9.111  10.404  68.963  1.00  0.00    -0.187 C  
HETATM   19  N   UNL     1      -9.637   9.894  70.161  1.00  0.00    -0.233 N  
HETATM   20  O   UNL     1      -7.940  10.122  68.707  1.00  0.00    -0.093 OA 
BRANCH  19  21
HETATM   21  C   UNL     1      -8.750   8.988  70.981  1.00  0.00    -0.222 C  
BRANCH  21  22
HETATM   22  C   UNL     1      -8.683   7.465  70.702  1.00  0.00    -0.142 C  
HETATM   23  C   UNL     1      -9.133   6.372  71.714  1.00  0.00    -0.143 C  
BRANCH  23  24
HETATM   24  N   UNL     1     -10.425   6.376  72.434  1.00  0.00    -0.194 NA 
HETATM   25  C   UNL     1     -10.249   7.067  73.736  1.00  0.00    -0.363 C  
HETATM   26  C   UNL     1     -10.944   5.032  72.748  1.00  0.00    -0.247 C  
ENDBRANCH  23  24
ENDBRANCH  21  22
ENDBRANCH  19  21
BRANCH  19  27
HETATM   27  C   UNL     1     -11.006   9.811  70.377  1.00  0.00    -0.312 C  
HETATM   28  O   UNL     1     -11.642   8.762  70.364  1.00  0.00    -0.213 OA 
BRANCH  27  29
HETATM   29  N   UNL     1     -11.618  11.011  70.677  1.00  0.00    -0.421 N  
HETATM   30  H   UNL     1     -11.158  11.891  70.444  1.00  0.00     0.000 HD 
BRANCH  29  31
HETATM   31  C   UNL     1     -12.908  11.019  71.322  1.00  0.00    -0.425 C  
HETATM   32  C   UNL     1     -13.214  12.372  71.920  1.00  0.00    -0.486 C  
ENDBRANCH  29  31
ENDBRANCH  27  29
ENDBRANCH  19  27
ENDBRANCH  15  18
BRANCH  16  33
HETATM   33  C   UNL     1     -10.114  11.016  64.194  1.00  0.00    -0.344 C  
BRANCH  33  34
HETATM   34  C   UNL     1     -10.908  12.262  63.911  1.00  0.00    -0.464 C  
HETATM   35  C   UNL     1     -12.195  12.343  63.550  1.00  0.00    -0.661 C  
ENDBRANCH  33  34
ENDBRANCH  16  33
TORSDOF 9
ENDMDL
MODEL       17
REMARK 921   NORMALIZED FREE ENERGY PREDICTED BY IDOCK:   -5.76 KCAL/MOL
REMARK 922        TOTAL FREE ENERGY PREDICTED BY IDOCK:   -9.50 KCAL/MOL
REMARK 923 INTER-LIGAND FREE ENERGY PREDICTED BY IDOCK:   -7.63 KCAL/MOL
REMARK 924 INTRA-LIGAND FREE ENERGY PREDICTED BY IDOCK:   -1.87 KCAL/MOL
REMARK 927      BINDING AFFINITY PREDICTED BY RF-SCORE:    0.00 PKD
ROOT
HETATM    1  C   UNL     1      -9.534   8.285  67.702  1.00  0.00    -0.149 C  
HETATM    2  C   UNL     1      -9.990   8.108  66.254  1.00  0.00    -0.148 C  
HETATM    3  C   UNL     1      -9.227   9.113  65.476  1.00  0.00    -0.287 A  
HETATM    4  C   UNL     1      -9.526   9.973  64.456  1.00  0.00    -0.296 A  
HETATM    5  N   UNL     1      -8.335  10.522  64.038  1.00  0.00    -0.296 NA 
HETATM    6  H   UNL     1      -8.237  11.188  63.272  1.00  0.00     0.000 HD 
HETATM    7  C   UNL     1      -7.296  10.042  64.803  1.00  0.00    -0.143 A  
HETATM    8  C   UNL     1      -5.913  10.087  64.684  1.00  0.00    -0.115 A  
HETATM    9  C   UNL     1      -5.178   9.440  65.696  1.00  0.00    -0.039 A  
HETATM   10  C   UNL     1      -5.791   8.902  66.849  1.00  0.00    -0.049 A  
HETATM   11  C   UNL     1      -7.182   8.901  66.974  1.00  0.00    -0.079 A  
HETATM   12  C   UNL     1      -7.989   8.246  68.090  1.00  0.00    -0.123 C  
HETATM   13  C   UNL     1      -7.886   9.373  65.854  1.00  0.00    -0.099 A  
HETATM   14  C   UNL     1      -7.905   8.791  69.570  1.00  0.00    -0.091 C  
HETATM   15  C   UNL     1      -9.209   9.601  69.946  1.00  0.00    -0.255 C  
HETATM   16  N   UNL     1     -10.347   7.564  68.679  1.00  0.00    -0.198 NA 
HETATM   17  C   UNL     1     -10.398   8.512  69.835  1.00  0.00    -0.210 C  
ENDROOT
BRANCH  15  18
HETATM   18  C   UNL     1      -9.017  11.046  69.179  1.00  0.00     0.015 C  
HETATM   19  N   UNL     1     -10.025  11.900  68.701  1.00  0.00    -0.190 N  
HETATM   20  O   UNL     1      -7.861  11.464  69.114  1.00  0.00    -0.085 OA 
BRANCH  19  21
HETATM   21  C   UNL     1      -9.610  13.273  68.230  1.00  0.00    -0.221 C  
BRANCH  21  22
HETATM   22  C   UNL     1      -9.275  13.541  66.741  1.00  0.00    -0.248 C  
HETATM   23  C   UNL     1     -10.270  13.309  65.567  1.00  0.00    -0.290 C  
BRANCH  23  24
HETATM   24  N   UNL     1     -11.664  13.802  65.539  1.00  0.00    -0.334 NA 
HETATM   25  C   UNL     1     -12.548  12.721  65.034  1.00  0.00    -0.468 C  
HETATM   26  C   UNL     1     -11.877  14.958  64.649  1.00  0.00    -0.407 C  
ENDBRANCH  23  24
ENDBRANCH  21  22
ENDBRANCH  19  21
BRANCH  19  27
HETATM   27  C   UNL     1     -11.355  11.724  69.058  1.00  0.00    -0.278 C  
HETATM   28  O   UNL     1     -12.222  11.308  68.297  1.00  0.00    -0.611 OA 
BRANCH  27  29
HETATM   29  N   UNL     1     -11.640  11.994  70.381  1.00  0.00    -0.496 N  
HETATM   30  H   UNL     1     -11.147  11.495  71.122  1.00  0.00     0.000 HD 
BRANCH  29  31
HETATM   31  C   UNL     1     -12.636  12.983  70.716  1.00  0.00    -0.241 C  
HETATM   32  C   UNL     1     -12.036  14.369  70.765  1.00  0.00    -0.408 C  
ENDBRANCH  29  31
ENDBRANCH  27  29
ENDBRANCH  19  27
ENDBRANCH  15  18
BRANCH  16  33
HETATM   33  C   UNL     1      -9.803   6.206  68.904  1.00  0.00    -0.140 C  
BRANCH  33  34
HETATM   34  C   UNL     1     -10.432   5.375  69.989  1.00  0.00    -0.373 C  
HETATM   35  C   UNL     1      -9.912   5.067  71.184  1.00  0.00    -0.276 C  
ENDBRANCH  33  34
ENDBRANCH  16  33
TORSDOF 9
ENDMDL
MODEL       18
REMARK 921   NORMALIZED FREE ENERGY PREDICTED BY IDOCK:   -5.75 KCAL/MOL
REMARK 922        TOTAL FREE ENERGY PREDICTED BY IDOCK:   -9.49 KCAL/MOL
REMARK 923 INTER-LIGAND FREE ENERGY PREDICTED BY IDOCK:   -7.15 KCAL/MOL
REMARK 924 INTRA-LIGAND FREE ENERGY PREDICTED BY IDOCK:   -2.34 KCAL/MOL
REMARK 927      BINDING AFFINITY PREDICTED BY RF-SCORE:    0.00 PKD
ROOT
HETATM    1  C   UNL     1     -10.303  11.473  66.597  1.00  0.00    -0.226 C  
HETATM    2  C   UNL     1     -11.761  11.188  66.959  1.00  0.00     0.224 C  
HETATM    3  C   UNL     1     -11.898  11.584  68.380  1.00  0.00    -0.353 A  
HETATM    4  C   UNL     1     -12.526  11.053  69.472  1.00  0.00    -0.080 A  
HETATM    5  N   UNL     1     -12.437  11.992  70.476  1.00  0.00    -0.254 NA 
HETATM    6  H   UNL     1     -12.835  11.888  71.409  1.00  0.00     0.000 HD 
HETATM    7  C   UNL     1     -11.735  13.092  70.037  1.00  0.00    -0.221 A  
HETATM    8  C   UNL     1     -11.542  14.373  70.537  1.00  0.00    -0.270 A  
HETATM    9  C   UNL     1     -10.747  15.234  69.757  1.00  0.00    -0.295 A  
HETATM   10  C   UNL     1     -10.057  14.792  68.608  1.00  0.00    -0.238 A  
HETATM   11  C   UNL     1     -10.228  13.488  68.139  1.00  0.00    -0.249 A  
HETATM   12  C   UNL     1      -9.658  12.908  66.849  1.00  0.00    -0.240 C  
HETATM   13  C   UNL     1     -11.184  12.723  68.828  1.00  0.00    -0.327 A  
HETATM   14  C   UNL     1      -8.100  12.714  66.675  1.00  0.00     0.181 C  
HETATM   15  C   UNL     1      -7.705  11.190  66.804  1.00  0.00    -0.153 C  
HETATM   16  N   UNL     1      -9.884  10.919  65.311  1.00  0.00    -0.246 NA 
HETATM   17  C   UNL     1      -8.483  10.473  65.582  1.00  0.00    -0.176 C  
ENDROOT
BRANCH  15  18
HETATM   18  C   UNL     1      -7.773  10.896  68.424  1.00  0.00    -0.116 C  
HETATM   19  N   UNL     1      -8.319   9.773  69.066  1.00  0.00    -0.120 N  
HETATM   20  O   UNL     1      -7.184  11.709  69.137  1.00  0.00    -0.112 OA 
BRANCH  19  21
HETATM   21  C   UNL     1      -8.068   9.626  70.548  1.00  0.00    -0.109 C  
BRANCH  21  22
HETATM   22  C   UNL     1      -8.173   8.246  71.245  1.00  0.00    -0.147 C  
HETATM   23  C   UNL     1      -9.481   7.681  71.870  1.00  0.00    -0.146 C  
BRANCH  23  24
HETATM   24  N   UNL     1     -10.791   7.646  71.186  1.00  0.00    -0.232 NA 
HETATM   25  C   UNL     1     -11.696   8.634  71.827  1.00  0.00    -0.331 C  
HETATM   26  C   UNL     1     -11.479   6.345  71.266  1.00  0.00    -0.314 C  
ENDBRANCH  23  24
ENDBRANCH  21  22
ENDBRANCH  19  21
BRANCH  19  27
HETATM   27  C   UNL     1      -8.658   8.626  68.360  1.00  0.00    -0.135 C  
HETATM   28  O   UNL     1      -7.841   7.835  67.899  1.00  0.00    -0.122 OA 
BRANCH  27  29
HETATM   29  N   UNL     1     -10.013   8.388  68.259  1.00  0.00    -0.181 N  
HETATM   30  H   UNL     1     -10.643   8.697  68.999  1.00  0.00     0.000 HD 
BRANCH  29  31
HETATM   31  C   UNL     1     -10.539   7.701  67.104  1.00  0.00    -0.340 C  
HETATM   32  C   UNL     1     -11.026   6.316  67.465  1.00  0.00    -0.444 C  
ENDBRANCH  29  31
ENDBRANCH  27  29
ENDBRANCH  19  27
ENDBRANCH  15  18
BRANCH  16  33
HETATM   33  C   UNL     1     -10.116  11.897  64.226  1.00  0.00    -0.295 C  
BRANCH  33  34
HETATM   34  C   UNL     1     -11.447  11.854  63.524  1.00  0.00    -0.523 C  
HETATM   35  C   UNL     1     -12.375  12.819  63.479  1.00  0.00    -0.559 C  
ENDBRANCH  33  34
ENDBRANCH  16  33
TORSDOF 9
ENDMDL
MODEL       19
REMARK 921   NORMALIZED FREE ENERGY PREDICTED BY IDOCK:   -5.75 KCAL/MOL
REMARK 922        TOTAL FREE ENERGY PREDICTED BY IDOCK:   -9.48 KCAL/MOL
REMARK 923 INTER-LIGAND FREE ENERGY PREDICTED BY IDOCK:   -8.04 KCAL/MOL
REMARK 924 INTRA-LIGAND FREE ENERGY PREDICTED BY IDOCK:   -1.44 KCAL/MOL
REMARK 927      BINDING AFFINITY PREDICTED BY RF-SCORE:    0.00 PKD
ROOT
HETATM    1  C   UNL     1     -11.184  12.052  68.549  1.00  0.00    -0.256 C  
HETATM    2  C   UNL     1     -11.618  10.625  68.884  1.00  0.00    -0.320 C  
HETATM    3  C   UNL     1     -10.639   9.745  68.203  1.00  0.00    -0.276 A  
HETATM    4  C   UNL     1     -10.720   8.579  67.495  1.00  0.00    -0.141 A  
HETATM    5  N   UNL     1      -9.427   8.158  67.275  1.00  0.00    -0.148 NA 
HETATM    6  H   UNL     1      -9.167   7.301  66.787  1.00  0.00     0.000 HD 
HETATM    7  C   UNL     1      -8.536   9.061  67.809  1.00  0.00    -0.117 A  
HETATM    8  C   UNL     1      -7.170   9.032  68.060  1.00  0.00    -0.080 A  
HETATM    9  C   UNL     1      -6.619  10.186  68.650  1.00  0.00    -0.053 A  
HETATM   10  C   UNL     1      -7.368  11.367  68.844  1.00  0.00    -0.114 A  
HETATM   11  C   UNL     1      -8.733  11.395  68.548  1.00  0.00    -0.149 A  
HETATM   12  C   UNL     1      -9.694  12.546  68.823  1.00  0.00     0.045 C  
HETATM   13  C   UNL     1      -9.287  10.166  68.152  1.00  0.00    -0.140 A  
HETATM   14  C   UNL     1      -9.549  13.917  68.053  1.00  0.00    -0.219 C  
HETATM   15  C   UNL     1     -10.669  14.063  66.948  1.00  0.00    -0.285 C  
HETATM   16  N   UNL     1     -12.161  13.077  68.911  1.00  0.00    -0.243 NA 
HETATM   17  C   UNL     1     -12.053  14.052  67.783  1.00  0.00    -0.290 C  
ENDROOT
BRANCH  15  18
HETATM   18  C   UNL     1     -10.157  13.082  65.728  1.00  0.00    -0.287 C  
HETATM   19  N   UNL     1     -10.916  12.588  64.654  1.00  0.00    -0.295 N  
HETATM   20  O   UNL     1      -8.949  12.845  65.708  1.00  0.00     0.243 OA 
BRANCH  19  21
HETATM   21  C   UNL     1     -10.174  11.886  63.541  1.00  0.00    -0.457 C  
BRANCH  21  22
HETATM   22  C   UNL     1      -9.813  10.383  63.643  1.00  0.00    -0.288 C  
HETATM   23  C   UNL     1      -8.520   9.753  63.048  1.00  0.00    -0.180 C  
BRANCH  23  24
HETATM   24  N   UNL     1      -7.157  10.288  63.249  1.00  0.00    -0.127 NA 
HETATM   25  C   UNL     1      -6.216   9.556  62.364  1.00  0.00    -0.096 C  
HETATM   26  C   UNL     1      -6.642  10.126  64.621  1.00  0.00    -0.125 C  
ENDBRANCH  23  24
ENDBRANCH  21  22
ENDBRANCH  19  21
BRANCH  19  27
HETATM   27  C   UNL     1     -12.175  13.094  64.360  1.00  0.00    -0.398 C  
HETATM   28  O   UNL     1     -13.225  12.589  64.741  1.00  0.00    -0.839 OA 
BRANCH  27  29
HETATM   29  N   UNL     1     -12.171  14.273  63.643  1.00  0.00    -1.064 N  
HETATM   30  H   UNL     1     -11.942  14.266  62.649  1.00  0.00     0.000 HD 
BRANCH  29  31
HETATM   31  C   UNL     1     -12.490  15.517  64.301  1.00  0.00     0.128 C  
HETATM   32  C   UNL     1     -11.255  16.365  64.499  1.00  0.00    -0.136 C  
ENDBRANCH  29  31
ENDBRANCH  27  29
ENDBRANCH  19  27
ENDBRANCH  15  18
BRANCH  16  33
HETATM   33  C   UNL     1     -11.917  13.560  70.288  1.00  0.00    -0.316 C  
BRANCH  33  34
HETATM   34  C   UNL     1     -13.116  13.942  71.114  1.00  0.00    -0.351 C  
HETATM   35  C   UNL     1     -13.457  13.470  72.320  1.00  0.00    -0.669 C  
ENDBRANCH  33  34
ENDBRANCH  16  33
TORSDOF 9
ENDMDL
MODEL       20
REMARK 921   NORMALIZED FREE ENERGY PREDICTED BY IDOCK:   -5.72 KCAL/MOL
REMARK 922        TOTAL FREE ENERGY PREDICTED BY IDOCK:   -9.44 KCAL/MOL
REMARK 923 INTER-LIGAND FREE ENERGY PREDICTED BY IDOCK:   -7.37 KCAL/MOL
REMARK 924 INTRA-LIGAND FREE ENERGY PREDICTED BY IDOCK:   -2.07 KCAL/MOL
REMARK 927      BINDING AFFINITY PREDICTED BY RF-SCORE:    0.00 PKD
ROOT
HETATM    1  C   UNL     1      -9.097   8.758  66.875  1.00  0.00    -0.139 C  
HETATM    2  C   UNL     1     -10.502   8.848  67.469  1.00  0.00    -0.337 C  
HETATM    3  C   UNL     1     -10.927  10.253  67.263  1.00  0.00    -0.277 A  
HETATM    4  C   UNL     1     -11.589  11.180  68.017  1.00  0.00    -0.263 A  
HETATM    5  N   UNL     1     -11.844  12.254  67.193  1.00  0.00    -0.566 NA 
HETATM    6  H   UNL     1     -12.345  13.097  67.471  1.00  0.00     0.000 HD 
HETATM    7  C   UNL     1     -11.323  12.024  65.939  1.00  0.00    -0.337 A  
HETATM    8  C   UNL     1     -11.472  12.647  64.707  1.00  0.00    -0.364 A  
HETATM    9  C   UNL     1     -10.763  12.079  63.631  1.00  0.00    -0.506 A  
HETATM   10  C   UNL     1      -9.835  11.030  63.808  1.00  0.00    -0.379 A  
HETATM   11  C   UNL     1      -9.664  10.441  65.062  1.00  0.00    -0.362 A  
HETATM   12  C   UNL     1      -8.802   9.223  65.380  1.00  0.00    -0.230 C  
HETATM   13  C   UNL     1     -10.535  10.900  66.064  1.00  0.00    -0.287 A  
HETATM   14  C   UNL     1      -7.230   9.297  65.256  1.00  0.00    -0.090 C  
HETATM   15  C   UNL     1      -6.555   9.374  66.682  1.00  0.00    -0.068 C  
HETATM   16  N   UNL     1      -8.387   7.522  67.197  1.00  0.00    -0.120 NA 
HETATM   17  C   UNL     1      -6.980   7.987  67.397  1.00  0.00    -0.075 C  
ENDROOT
BRANCH  15  18
HETATM   18  C   UNL     1      -6.802  10.932  67.157  1.00  0.00    -0.093 C  
HETATM   19  N   UNL     1      -7.213  11.384  68.422  1.00  0.00    -0.081 N  
HETATM   20  O   UNL     1      -6.488  11.794  66.336  1.00  0.00    -0.003 OA 
BRANCH  19  21
HETATM   21  C   UNL     1      -7.157  12.871  68.683  1.00  0.00    -0.103 C  
BRANCH  21  22
HETATM   22  C   UNL     1      -8.406  13.765  68.488  1.00  0.00    -0.120 C  
HETATM   23  C   UNL     1      -8.468  15.273  68.868  1.00  0.00    -0.202 C  
BRANCH  23  24
HETATM   24  N   UNL     1      -7.454  16.278  68.482  1.00  0.00    -0.167 NA 
HETATM   25  C   UNL     1      -8.074  17.627  68.518  1.00  0.00    -0.283 C  
HETATM   26  C   UNL     1      -6.922  16.105  67.118  1.00  0.00    -0.209 C  
ENDBRANCH  23  24
ENDBRANCH  21  22
ENDBRANCH  19  21
BRANCH  19  27
HETATM   27  C   UNL     1      -7.220  10.543  69.527  1.00  0.00    -0.137 C  
HETATM   28  O   UNL     1      -6.210  10.158  70.106  1.00  0.00    -0.064 OA 
BRANCH  27  29
HETATM   29  N   UNL     1      -8.477  10.206  69.988  1.00  0.00    -0.364 N  
HETATM   30  H   UNL     1      -9.264  10.836  69.834  1.00  0.00     0.000 HD 
BRANCH  29  31
HETATM   31  C   UNL     1      -8.676   8.960  70.688  1.00  0.00    -0.197 C  
HETATM   32  C   UNL     1     -10.084   8.853  71.228  1.00  0.00    -0.365 C  
ENDBRANCH  29  31
ENDBRANCH  27  29
ENDBRANCH  19  27
ENDBRANCH  15  18
BRANCH  16  33
HETATM   33  C   UNL     1      -8.650   6.491  66.169  1.00  0.00    -0.145 C  
BRANCH  33  34
HETATM   34  C   UNL     1      -9.535   5.335  66.553  1.00  0.00    -0.155 C  
HETATM   35  C   UNL     1     -10.610   4.879  65.897  1.00  0.00    -0.280 C  
ENDBRANCH  33  34
ENDBRANCH  16  33
TORSDOF 9
ENDMDL
MODEL       21
REMARK 921   NORMALIZED FREE ENERGY PREDICTED BY IDOCK:   -5.70 KCAL/MOL
REMARK 922        TOTAL FREE ENERGY PREDICTED BY IDOCK:   -9.41 KCAL/MOL
REMARK 923 INTER-LIGAND FREE ENERGY PREDICTED BY IDOCK:   -8.18 KCAL/MOL
REMARK 924 INTRA-LIGAND FREE ENERGY PREDICTED BY IDOCK:   -1.23 KCAL/MOL
REMARK 927      BINDING AFFINITY PREDICTED BY RF-SCORE:    0.00 PKD
ROOT
HETATM    1  C   UNL     1      -9.612  12.730  67.377  1.00  0.00    -0.199 C  
HETATM    2  C   UNL     1      -8.561  13.729  67.861  1.00  0.00    -0.183 C  
HETATM    3  C   UNL     1      -7.507  12.910  68.505  1.00  0.00    -0.123 A  
HETATM    4  C   UNL     1      -6.751  13.029  69.637  1.00  0.00     0.088 A  
HETATM    5  N   UNL     1      -5.809  12.025  69.593  1.00  0.00    -0.093 NA 
HETATM    6  H   UNL     1      -5.086  11.871  70.295  1.00  0.00     0.000 HD 
HETATM    7  C   UNL     1      -5.984  11.259  68.462  1.00  0.00    -0.042 A  
HETATM    8  C   UNL     1      -5.217  10.292  67.826  1.00  0.00    -0.040 A  
HETATM    9  C   UNL     1      -5.757   9.741  66.648  1.00  0.00    -0.053 A  
HETATM   10  C   UNL     1      -7.066  10.036  66.207  1.00  0.00    -0.105 A  
HETATM   11  C   UNL     1      -7.842  10.980  66.881  1.00  0.00    -0.140 A  
HETATM   12  C   UNL     1      -9.213  11.496  66.453  1.00  0.00    -0.218 C  
HETATM   13  C   UNL     1      -7.194  11.653  67.930  1.00  0.00    -0.083 A  
HETATM   14  C   UNL     1     -10.468  10.538  66.451  1.00  0.00    -0.258 C  
HETATM   15  C   UNL     1     -11.418  10.852  67.673  1.00  0.00    -0.281 C  
HETATM   16  N   UNL     1     -10.864  13.342  66.936  1.00  0.00    -0.276 NA 
HETATM   17  C   UNL     1     -11.897  12.375  67.421  1.00  0.00    -0.289 C  
ENDROOT
BRANCH  15  18
HETATM   18  C   UNL     1     -10.644  10.182  68.964  1.00  0.00    -0.223 C  
HETATM   19  N   UNL     1     -10.993  10.292  70.320  1.00  0.00    -0.303 N  
HETATM   20  O   UNL     1      -9.719   9.418  68.691  1.00  0.00    -0.148 OA 
BRANCH  19  21
HETATM   21  C   UNL     1     -10.261   9.409  71.302  1.00  0.00    -0.270 C  
BRANCH  21  22
HETATM   22  C   UNL     1     -11.030   8.451  72.245  1.00  0.00    -0.431 C  
HETATM   23  C   UNL     1     -11.763   7.162  71.772  1.00  0.00    -0.290 C  
BRANCH  23  24
HETATM   24  N   UNL     1     -11.165   6.129  70.900  1.00  0.00    -0.307 NA 
HETATM   25  C   UNL     1      -9.701   6.079  71.146  1.00  0.00    -0.177 C  
HETATM   26  C   UNL     1     -11.332   6.386  69.458  1.00  0.00    -0.393 C  
ENDBRANCH  23  24
ENDBRANCH  21  22
ENDBRANCH  19  21
BRANCH  19  27
HETATM   27  C   UNL     1     -12.224  10.800  70.714  1.00  0.00    -0.381 C  
HETATM   28  O   UNL     1     -13.264  10.149  70.729  1.00  0.00    -0.379 OA 
BRANCH  27  29
HETATM   29  N   UNL     1     -12.195  12.105  71.162  1.00  0.00    -0.301 N  
HETATM   30  H   UNL     1     -11.392  12.699  70.954  1.00  0.00     0.000 HD 
BRANCH  29  31
HETATM   31  C   UNL     1     -13.301  12.628  71.927  1.00  0.00    -0.387 C  
HETATM   32  C   UNL     1     -13.085  14.083  72.279  1.00  0.00    -0.516 C  
ENDBRANCH  29  31
ENDBRANCH  27  29
ENDBRANCH  19  27
ENDBRANCH  15  18
BRANCH  16  33
HETATM   33  C   UNL     1     -10.808  13.650  65.490  1.00  0.00    -0.294 C  
BRANCH  33  34
HETATM   34  C   UNL     1     -12.025  13.330  64.663  1.00  0.00    -0.440 C  
HETATM   35  C   UNL     1     -12.134  12.407  63.699  1.00  0.00    -0.648 C  
ENDBRANCH  33  34
ENDBRANCH  16  33
TORSDOF 9
ENDMDL
MODEL       22
REMARK 921   NORMALIZED FREE ENERGY PREDICTED BY IDOCK:   -5.64 KCAL/MOL
REMARK 922        TOTAL FREE ENERGY PREDICTED BY IDOCK:   -9.31 KCAL/MOL
REMARK 923 INTER-LIGAND FREE ENERGY PREDICTED BY IDOCK:   -7.46 KCAL/MOL
REMARK 924 INTRA-LIGAND FREE ENERGY PREDICTED BY IDOCK:   -1.85 KCAL/MOL
REMARK 927      BINDING AFFINITY PREDICTED BY RF-SCORE:    0.00 PKD
ROOT
HETATM    1  C   UNL     1      -8.044   9.339  67.545  1.00  0.00    -0.107 C  
HETATM    2  C   UNL     1      -7.167   9.065  68.768  1.00  0.00    -0.075 C  
HETATM    3  C   UNL     1      -8.112   8.848  69.888  1.00  0.00    -0.112 A  
HETATM    4  C   UNL     1      -8.155   9.228  71.200  1.00  0.00     0.010 A  
HETATM    5  N   UNL     1      -9.208   8.551  71.776  1.00  0.00    -0.222 NA 
HETATM    6  H   UNL     1      -9.476   8.615  72.757  1.00  0.00     0.000 HD 
HETATM    7  C   UNL     1      -9.844   7.774  70.834  1.00  0.00    -0.175 A  
HETATM    8  C   UNL     1     -10.790   6.760  70.903  1.00  0.00    -0.289 A  
HETATM    9  C   UNL     1     -11.184   6.189  69.677  1.00  0.00    -0.488 A  
HETATM   10  C   UNL     1     -10.764   6.707  68.433  1.00  0.00    -0.314 A  
HETATM   11  C   UNL     1      -9.844   7.756  68.378  1.00  0.00    -0.180 A  
HETATM   12  C   UNL     1      -9.202   8.331  67.120  1.00  0.00    -0.175 C  
HETATM   13  C   UNL     1      -9.323   8.163  69.617  1.00  0.00    -0.159 A  
HETATM   14  C   UNL     1     -10.074   9.106  66.055  1.00  0.00    -0.204 C  
HETATM   15  C   UNL     1      -9.823  10.663  66.147  1.00  0.00    -0.268 C  
HETATM   16  N   UNL     1      -7.312   9.832  66.380  1.00  0.00    -0.094 NA 
HETATM   17  C   UNL     1      -8.255  10.833  65.794  1.00  0.00    -0.146 C  
ENDROOT
BRANCH  15  18
HETATM   18  C   UNL     1     -10.667  11.125  67.484  1.00  0.00    -0.236 C  
HETATM   19  N   UNL     1     -10.313  12.114  68.417  1.00  0.00    -0.225 N  
HETATM   20  O   UNL     1     -11.778  10.613  67.614  1.00  0.00    -0.480 OA 
BRANCH  19  21
HETATM   21  C   UNL     1     -11.352  12.512  69.438  1.00  0.00    -0.210 C  
BRANCH  21  22
HETATM   22  C   UNL     1     -11.755  13.995  69.634  1.00  0.00    -0.368 C  
HETATM   23  C   UNL     1     -12.778  14.488  70.699  1.00  0.00    -0.360 C  
BRANCH  23  24
HETATM   24  N   UNL     1     -12.750  14.110  72.128  1.00  0.00    -0.318 NA 
HETATM   25  C   UNL     1     -13.771  13.059  72.369  1.00  0.00    -0.494 C  
HETATM   26  C   UNL     1     -13.069  15.215  73.051  1.00  0.00    -0.502 C  
ENDBRANCH  23  24
ENDBRANCH  21  22
ENDBRANCH  19  21
BRANCH  19  27
HETATM   27  C   UNL     1      -9.288  13.016  68.166  1.00  0.00    -0.217 C  
HETATM   28  O   UNL     1      -9.390  13.984  67.420  1.00  0.00    -0.205 OA 
BRANCH  27  29
HETATM   29  N   UNL     1      -8.128  12.785  68.878  1.00  0.00    -0.337 N  
HETATM   30  H   UNL     1      -8.175  12.398  69.820  1.00  0.00     0.000 HD 
BRANCH  29  31
HETATM   31  C   UNL     1      -6.848  13.093  68.286  1.00  0.00    -0.103 C  
HETATM   32  C   UNL     1      -5.814  13.399  69.346  1.00  0.00    -0.093 C  
ENDBRANCH  29  31
ENDBRANCH  27  29
ENDBRANCH  19  27
ENDBRANCH  15  18
BRANCH  16  33
HETATM   33  C   UNL     1      -6.866   8.703  65.534  1.00  0.00    -0.075 C  
BRANCH  33  34
HETATM   34  C   UNL     1      -6.968   8.868  64.042  1.00  0.00    -0.087 C  
HETATM   35  C   UNL     1      -7.798   8.229  63.207  1.00  0.00    -0.149 C  
ENDBRANCH  33  34
ENDBRANCH  16  33
TORSDOF 9
ENDMDL
MODEL       23
REMARK 921   NORMALIZED FREE ENERGY PREDICTED BY IDOCK:   -5.63 KCAL/MOL
REMARK 922        TOTAL FREE ENERGY PREDICTED BY IDOCK:   -9.31 KCAL/MOL
REMARK 923 INTER-LIGAND FREE ENERGY PREDICTED BY IDOCK:   -7.17 KCAL/MOL
REMARK 924 INTRA-LIGAND FREE ENERGY PREDICTED BY IDOCK:   -2.14 KCAL/MOL
REMARK 927      BINDING AFFINITY PREDICTED BY RF-SCORE:    0.00 PKD
ROOT
HETATM    1  C   UNL     1     -10.707   9.930  69.355  1.00  0.00    -0.232 C  
HETATM    2  C   UNL     1     -11.786  10.264  70.385  1.00  0.00    -0.404 C  
HETATM    3  C   UNL     1     -11.739   9.162  71.375  1.00  0.00    -0.413 A  
HETATM    4  C   UNL     1     -12.676   8.430  72.048  1.00  0.00    -0.360 A  
HETATM    5  N   UNL     1     -11.997   7.669  72.974  1.00  0.00    -0.582 NA 
HETATM    6  H   UNL     1     -12.433   7.034  73.640  1.00  0.00     0.000 HD 
HETATM    7  C   UNL     1     -10.642   7.891  72.868  1.00  0.00    -0.368 A  
HETATM    8  C   UNL     1      -9.550   7.571  73.663  1.00  0.00    -0.347 A  
HETATM    9  C   UNL     1      -8.293   8.006  73.202  1.00  0.00    -0.253 A  
HETATM   10  C   UNL     1      -8.118   8.603  71.935  1.00  0.00    -0.149 A  
HETATM   11  C   UNL     1      -9.222   8.882  71.127  1.00  0.00    -0.324 A  
HETATM   12  C   UNL     1      -9.205   9.635  69.801  1.00  0.00    -0.237 C  
HETATM   13  C   UNL     1     -10.473   8.617  71.708  1.00  0.00    -0.394 A  
HETATM   14  C   UNL     1      -8.497   9.015  68.533  1.00  0.00    -0.128 C  
HETATM   15  C   UNL     1      -9.562   8.472  67.501  1.00  0.00    -0.194 C  
HETATM   16  N   UNL     1     -10.752  10.756  68.150  1.00  0.00    -0.197 NA 
HETATM   17  C   UNL     1     -10.400   9.785  67.068  1.00  0.00    -0.239 C  
ENDROOT
BRANCH  15  18
HETATM   18  C   UNL     1     -10.077   7.056  68.167  1.00  0.00    -0.169 C  
HETATM   19  N   UNL     1      -9.317   5.899  68.406  1.00  0.00    -0.119 N  
HETATM   20  O   UNL     1     -11.231   7.058  68.594  1.00  0.00    -0.070 OA 
BRANCH  19  21
HETATM   21  C   UNL     1      -9.954   4.804  69.228  1.00  0.00    -0.184 C  
BRANCH  21  22
HETATM   22  C   UNL     1     -10.237   4.998  70.738  1.00  0.00    -0.299 C  
HETATM   23  C   UNL     1      -9.440   4.293  71.874  1.00  0.00    -0.142 C  
BRANCH  23  24
HETATM   24  N   UNL     1      -7.965   4.252  71.963  1.00  0.00    -0.088 NA 
HETATM   25  C   UNL     1      -7.484   2.962  71.406  1.00  0.00    -0.040 C  
HETATM   26  C   UNL     1      -7.441   4.328  73.339  1.00  0.00    -0.077 C  
ENDBRANCH  23  24
ENDBRANCH  21  22
ENDBRANCH  19  21
BRANCH  19  27
HETATM   27  C   UNL     1      -7.930   5.911  68.326  1.00  0.00    -0.109 C  
HETATM   28  O   UNL     1      -7.301   5.841  67.275  1.00  0.00    -0.074 OA 
BRANCH  27  29
HETATM   29  N   UNL     1      -7.282   6.074  69.533  1.00  0.00    -0.069 N  
HETATM   30  H   UNL     1      -7.813   6.054  70.404  1.00  0.00     0.000 HD 
BRANCH  29  31
HETATM   31  C   UNL     1      -5.854   6.272  69.562  1.00  0.00    -0.017 C  
HETATM   32  C   UNL     1      -5.372   6.585  70.960  1.00  0.00    -0.022 C  
ENDBRANCH  29  31
ENDBRANCH  27  29
ENDBRANCH  19  27
ENDBRANCH  15  18
BRANCH  16  33
HETATM   33  C   UNL     1      -9.911  11.962  68.317  1.00  0.00    -0.199 C  
BRANCH  33  34
HETATM   34  C   UNL     1     -10.601  13.299  68.295  1.00  0.00    -0.262 C  
HETATM   35  C   UNL     1     -11.848  13.578  68.697  1.00  0.00    -0.404 C  
ENDBRANCH  33  34
ENDBRANCH  16  33
TORSDOF 9
ENDMDL
MODEL       24
REMARK 921   NORMALIZED FREE ENERGY PREDICTED BY IDOCK:   -5.63 KCAL/MOL
REMARK 922        TOTAL FREE ENERGY PREDICTED BY IDOCK:   -9.30 KCAL/MOL
REMARK 923 INTER-LIGAND FREE ENERGY PREDICTED BY IDOCK:   -7.90 KCAL/MOL
REMARK 924 INTRA-LIGAND FREE ENERGY PREDICTED BY IDOCK:   -1.39 KCAL/MOL
REMARK 927      BINDING AFFINITY PREDICTED BY RF-SCORE:    0.00 PKD
ROOT
HETATM    1  C   UNL     1      -7.631   9.165  66.581  1.00  0.00    -0.089 C  
HETATM    2  C   UNL     1      -6.557   8.664  67.546  1.00  0.00    -0.058 C  
HETATM    3  C   UNL     1      -6.968   9.157  68.882  1.00  0.00    -0.064 A  
HETATM    4  C   UNL     1      -6.314   9.702  69.951  1.00  0.00    -0.054 A  
HETATM    5  N   UNL     1      -7.229   9.784  70.977  1.00  0.00    -0.324 NA 
HETATM    6  H   UNL     1      -7.028  10.133  71.913  1.00  0.00     0.000 HD 
HETATM    7  C   UNL     1      -8.457   9.325  70.555  1.00  0.00    -0.216 A  
HETATM    8  C   UNL     1      -9.635   8.989  71.208  1.00  0.00    -0.361 A  
HETATM    9  C   UNL     1     -10.690   8.530  70.397  1.00  0.00    -0.246 A  
HETATM   10  C   UNL     1     -10.621   8.545  68.987  1.00  0.00    -0.173 A  
HETATM   11  C   UNL     1      -9.443   8.926  68.342  1.00  0.00    -0.147 A  
HETATM   12  C   UNL     1      -9.175   8.870  66.841  1.00  0.00    -0.185 C  
HETATM   13  C   UNL     1      -8.351   9.183  69.187  1.00  0.00    -0.123 A  
HETATM   14  C   UNL     1      -9.964   9.811  65.848  1.00  0.00    -0.345 C  
HETATM   15  C   UNL     1      -9.045  10.991  65.341  1.00  0.00    -0.213 C  
HETATM   16  N   UNL     1      -7.290   9.007  65.168  1.00  0.00    -0.094 NA 
HETATM   17  C   UNL     1      -7.847  10.249  64.550  1.00  0.00    -0.116 C  
ENDROOT
BRANCH  15  18
HETATM   18  C   UNL     1      -8.991  12.032  66.617  1.00  0.00    -0.204 C  
HETATM   19  N   UNL     1     -10.059  12.755  67.175  1.00  0.00    -0.232 N  
HETATM   20  O   UNL     1      -7.912  12.096  67.205  1.00  0.00    -0.167 OA 
BRANCH  19  21
HETATM   21  C   UNL     1      -9.807  13.475  68.478  1.00  0.00    -0.189 C  
BRANCH  21  22
HETATM   22  C   UNL     1     -10.268  14.939  68.686  1.00  0.00    -0.236 C  
HETATM   23  C   UNL     1     -11.416  15.365  69.646  1.00  0.00    -0.320 C  
BRANCH  23  24
HETATM   24  N   UNL     1     -11.539  14.927  71.053  1.00  0.00    -0.307 NA 
HETATM   25  C   UNL     1     -12.592  13.884  71.143  1.00  0.00    -0.370 C  
HETATM   26  C   UNL     1     -11.939  15.997  71.985  1.00  0.00    -0.537 C  
ENDBRANCH  23  24
ENDBRANCH  21  22
ENDBRANCH  19  21
BRANCH  19  27
HETATM   27  C   UNL     1     -11.378  12.470  66.848  1.00  0.00    -0.326 C  
HETATM   28  O   UNL     1     -12.080  11.669  67.456  1.00  0.00    -0.611 OA 
BRANCH  27  29
HETATM   29  N   UNL     1     -11.888  13.213  65.803  1.00  0.00    -0.375 N  
HETATM   30  H   UNL     1     -11.631  14.195  65.700  1.00  0.00     0.000 HD 
BRANCH  29  31
HETATM   31  C   UNL     1     -12.786  12.600  64.855  1.00  0.00    -0.370 C  
HETATM   32  C   UNL     1     -12.085  12.305  63.548  1.00  0.00    -0.649 C  
ENDBRANCH  29  31
ENDBRANCH  27  29
ENDBRANCH  19  27
ENDBRANCH  15  18
BRANCH  16  33
HETATM   33  C   UNL     1      -7.759   7.697  64.666  1.00  0.00    -0.121 C  
BRANCH  33  34
HETATM   34  C   UNL     1      -6.785   6.550  64.698  1.00  0.00    -0.042 C  
HETATM   35  C   UNL     1      -6.762   5.525  65.561  1.00  0.00    -0.041 C  
ENDBRANCH  33  34
ENDBRANCH  16  33
TORSDOF 9
ENDMDL
MODEL       25
REMARK 921   NORMALIZED FREE ENERGY PREDICTED BY IDOCK:   -5.63 KCAL/MOL
REMARK 922        TOTAL FREE ENERGY PREDICTED BY IDOCK:   -9.29 KCAL/MOL
REMARK 923 INTER-LIGAND FREE ENERGY PREDICTED BY IDOCK:   -8.21 KCAL/MOL
REMARK 924 INTRA-LIGAND FREE ENERGY PREDICTED BY IDOCK:   -1.09 KCAL/MOL
REMARK 927      BINDING AFFINITY PREDICTED BY RF-SCORE:    0.00 PKD
ROOT
HETATM    1  C   UNL     1      -9.231  10.196  66.739  1.00  0.00    -0.151 C  
HETATM    2  C   UNL     1      -8.045   9.622  65.964  1.00  0.00    -0.112 C  
HETATM    3  C   UNL     1      -7.775   8.301  66.580  1.00  0.00    -0.092 A  
HETATM    4  C   UNL     1      -6.648   7.613  66.930  1.00  0.00    -0.062 A  
HETATM    5  N   UNL     1      -7.051   6.348  67.293  1.00  0.00    -0.072 NA 
HETATM    6  H   UNL     1      -6.426   5.597  67.585  1.00  0.00     0.000 HD 
HETATM    7  C   UNL     1      -8.421   6.243  67.206  1.00  0.00    -0.108 A  
HETATM    8  C   UNL     1      -9.309   5.175  67.240  1.00  0.00    -0.129 A  
HETATM    9  C   UNL     1     -10.673   5.493  67.094  1.00  0.00    -0.265 A  
HETATM   10  C   UNL     1     -11.140   6.825  67.063  1.00  0.00    -0.369 A  
HETATM   11  C   UNL     1     -10.237   7.890  67.071  1.00  0.00    -0.382 A  
HETATM   12  C   UNL     1     -10.581   9.368  66.913  1.00  0.00    -0.238 C  
HETATM   13  C   UNL     1      -8.881   7.529  67.014  1.00  0.00    -0.134 A  
HETATM   14  C   UNL     1     -11.408  10.125  68.024  1.00  0.00    -0.152 C  
HETATM   15  C   UNL     1     -10.473  11.071  68.876  1.00  0.00    -0.229 C  
HETATM   16  N   UNL     1      -9.503  11.605  66.463  1.00  0.00    -0.200 NA 
HETATM   17  C   UNL     1      -9.903  12.136  67.802  1.00  0.00    -0.199 C  
ENDROOT
BRANCH  15  18
HETATM   18  C   UNL     1      -9.669  10.040  69.879  1.00  0.00    -0.203 C  
HETATM   19  N   UNL     1     -10.193   9.328  70.970  1.00  0.00    -0.297 N  
HETATM   20  O   UNL     1      -8.504   9.793  69.564  1.00  0.00    -0.139 OA 
BRANCH  19  21
HETATM   21  C   UNL     1      -9.313   8.276  71.603  1.00  0.00    -0.192 C  
BRANCH  21  22
HETATM   22  C   UNL     1      -9.276   8.082  73.139  1.00  0.00    -0.347 C  
HETATM   23  C   UNL     1      -9.909   6.869  73.882  1.00  0.00    -0.307 C  
BRANCH  23  24
HETATM   24  N   UNL     1      -9.700   5.454  73.507  1.00  0.00    -0.145 NA 
HETATM   25  C   UNL     1     -10.480   4.591  74.430  1.00  0.00    -0.270 C  
HETATM   26  C   UNL     1      -8.299   5.005  73.608  1.00  0.00    -0.106 C  
ENDBRANCH  23  24
ENDBRANCH  21  22
ENDBRANCH  19  21
BRANCH  19  27
HETATM   27  C   UNL     1     -11.561   9.226  71.181  1.00  0.00    -0.327 C  
HETATM   28  O   UNL     1     -12.244  10.100  71.703  1.00  0.00    -0.382 OA 
BRANCH  27  29
HETATM   29  N   UNL     1     -12.136   8.068  70.696  1.00  0.00    -0.495 N  
HETATM   30  H   UNL     1     -12.093   7.855  69.700  1.00  0.00     0.000 HD 
BRANCH  29  31
HETATM   31  C   UNL     1     -12.799   7.161  71.601  1.00  0.00    -0.379 C  
HETATM   32  C   UNL     1     -14.296   7.370  71.588  1.00  0.00    -0.614 C  
ENDBRANCH  29  31
ENDBRANCH  27  29
ENDBRANCH  19  27
ENDBRANCH  15  18
BRANCH  16  33
HETATM   33  C   UNL     1     -10.455  11.738  65.338  1.00  0.00    -0.272 C  
BRANCH  33  34
HETATM   34  C   UNL     1     -10.352  12.971  64.481  1.00  0.00    -0.386 C  
HETATM   35  C   UNL     1     -10.483  14.246  64.870  1.00  0.00    -0.454 C  
ENDBRANCH  33  34
ENDBRANCH  16  33
TORSDOF 9
ENDMDL
MODEL       26
REMARK 921   NORMALIZED FREE ENERGY PREDICTED BY IDOCK:   -5.62 KCAL/MOL
REMARK 922        TOTAL FREE ENERGY PREDICTED BY IDOCK:   -9.29 KCAL/MOL
REMARK 923 INTER-LIGAND FREE ENERGY PREDICTED BY IDOCK:   -7.32 KCAL/MOL
REMARK 924 INTRA-LIGAND FREE ENERGY PREDICTED BY IDOCK:   -1.97 KCAL/MOL
REMARK 927      BINDING AFFINITY PREDICTED BY RF-SCORE:    0.00 PKD
ROOT
HETATM    1  C   UNL     1     -10.810  14.587  69.417  1.00  0.00    -0.226 C  
HETATM    2  C   UNL     1      -9.789  15.280  70.320  1.00  0.00     0.161 C  
HETATM    3  C   UNL     1      -8.643  15.607  69.439  1.00  0.00    -0.248 A  
HETATM    4  C   UNL     1      -7.284  15.549  69.566  1.00  0.00    -0.201 A  
HETATM    5  N   UNL     1      -6.755  16.170  68.455  1.00  0.00    -0.123 NA 
HETATM    6  H   UNL     1      -5.760  16.300  68.278  1.00  0.00     0.000 HD 
HETATM    7  C   UNL     1      -7.766  16.588  67.619  1.00  0.00    -0.149 A  
HETATM    8  C   UNL     1      -7.815  17.428  66.514  1.00  0.00    -0.320 A  
HETATM    9  C   UNL     1      -9.082  17.620  65.932  1.00  0.00     0.087 A  
HETATM   10  C   UNL     1     -10.221  16.893  66.342  1.00  0.00    -0.326 A  
HETATM   11  C   UNL     1     -10.147  16.020  67.429  1.00  0.00    -0.258 A  
HETATM   12  C   UNL     1     -11.312  15.269  68.067  1.00  0.00    -0.345 C  
HETATM   13  C   UNL     1      -8.917  16.008  68.108  1.00  0.00    -0.183 A  
HETATM   14  C   UNL     1     -12.070  14.135  67.271  1.00  0.00    -0.407 C  
HETATM   15  C   UNL     1     -11.664  12.705  67.805  1.00  0.00    -0.412 C  
HETATM   16  N   UNL     1     -11.914  13.953  70.135  1.00  0.00    -0.317 NA 
HETATM   17  C   UNL     1     -12.149  12.704  69.346  1.00  0.00    -0.179 C  
ENDROOT
BRANCH  15  18
HETATM   18  C   UNL     1     -10.168  12.448  67.162  1.00  0.00    -0.216 C  
HETATM   19  N   UNL     1      -9.244  11.454  67.522  1.00  0.00    -0.159 N  
HETATM   20  O   UNL     1      -9.881  13.146  66.189  1.00  0.00    -0.281 OA 
BRANCH  19  21
HETATM   21  C   UNL     1      -8.029  11.280  66.641  1.00  0.00    -0.159 C  
BRANCH  21  22
HETATM   22  C   UNL     1      -6.686  11.970  66.985  1.00  0.00    -0.099 C  
HETATM   23  C   UNL     1      -6.263  12.392  68.423  1.00  0.00    -0.057 C  
BRANCH  23  24
HETATM   24  N   UNL     1      -6.333  11.512  69.609  1.00  0.00    -0.120 NA 
HETATM   25  C   UNL     1      -5.582  12.145  70.723  1.00  0.00    -0.129 C  
HETATM   26  C   UNL     1      -5.730  10.181  69.409  1.00  0.00    -0.037 C  
ENDBRANCH  23  24
ENDBRANCH  21  22
ENDBRANCH  19  21
BRANCH  19  27
HETATM   27  C   UNL     1      -9.606  10.382  68.327  1.00  0.00    -0.144 C  
HETATM   28  O   UNL     1     -10.015   9.308  67.899  1.00  0.00    -0.170 OA 
BRANCH  27  29
HETATM   29  N   UNL     1      -9.413  10.583  69.679  1.00  0.00    -0.413 N  
HETATM   30  H   UNL     1      -9.456  11.525  70.066  1.00  0.00     0.000 HD 
BRANCH  29  31
HETATM   31  C   UNL     1      -9.151   9.457  70.543  1.00  0.00    -0.256 C  
HETATM   32  C   UNL     1     -10.311   9.203  71.478  1.00  0.00    -0.414 C  
ENDBRANCH  29  31
ENDBRANCH  27  29
ENDBRANCH  19  27
ENDBRANCH  15  18
BRANCH  16  33
HETATM   33  C   UNL     1     -13.035  14.903  70.305  1.00  0.00    -0.150 C  
BRANCH  33  34
HETATM   34  C   UNL     1     -13.262  15.472  71.680  1.00  0.00    -0.575 C  
HETATM   35  C   UNL     1     -12.535  15.250  72.783  1.00  0.00    -0.490 C  
ENDBRANCH  33  34
ENDBRANCH  16  33
TORSDOF 9
ENDMDL
MODEL       27
REMARK 921   NORMALIZED FREE ENERGY PREDICTED BY IDOCK:   -5.61 KCAL/MOL
REMARK 922        TOTAL FREE ENERGY PREDICTED BY IDOCK:   -9.27 KCAL/MOL
REMARK 923 INTER-LIGAND FREE ENERGY PREDICTED BY IDOCK:   -7.66 KCAL/MOL
REMARK 924 INTRA-LIGAND FREE ENERGY PREDICTED BY IDOCK:   -1.61 KCAL/MOL
REMARK 927      BINDING AFFINITY PREDICTED BY RF-SCORE:    0.00 PKD
ROOT
HETATM    1  C   UNL     1      -9.636  10.039  67.050  1.00  0.00    -0.172 C  
HETATM    2  C   UNL     1     -10.769   9.851  66.041  1.00  0.00     0.138 C  
HETATM    3  C   UNL     1     -10.358  10.617  64.841  1.00  0.00    -0.347 A  
HETATM    4  C   UNL     1     -10.998  11.440  63.957  1.00  0.00    -0.355 A  
HETATM    5  N   UNL     1     -10.106  11.701  62.940  1.00  0.00    -0.629 NA 
HETATM    6  H   UNL     1     -10.306  12.273  62.121  1.00  0.00     0.000 HD 
HETATM    7  C   UNL     1      -8.904  11.077  63.191  1.00  0.00    -0.150 A  
HETATM    8  C   UNL     1      -7.772  10.828  62.428  1.00  0.00    -0.173 A  
HETATM    9  C   UNL     1      -6.732  10.123  63.064  1.00  0.00    -0.133 A  
HETATM   10  C   UNL     1      -6.763   9.811  64.441  1.00  0.00    -0.119 A  
HETATM   11  C   UNL     1      -7.893  10.104  65.206  1.00  0.00    -0.143 A  
HETATM   12  C   UNL     1      -8.125   9.714  66.662  1.00  0.00    -0.119 C  
HETATM   13  C   UNL     1      -8.985  10.624  64.491  1.00  0.00    -0.214 A  
HETATM   14  C   UNL     1      -7.244  10.340  67.813  1.00  0.00    -0.086 C  
HETATM   15  C   UNL     1      -8.060  11.426  68.620  1.00  0.00    -0.141 C  
HETATM   16  N   UNL     1      -9.951   9.575  68.400  1.00  0.00    -0.159 NA 
HETATM   17  C   UNL     1      -9.289  10.598  69.266  1.00  0.00    -0.117 C  
ENDROOT
BRANCH  15  18
HETATM   18  C   UNL     1      -8.071  12.739  67.625  1.00  0.00    -0.175 C  
HETATM   19  N   UNL     1      -9.163  13.564  67.313  1.00  0.00    -0.223 N  
HETATM   20  O   UNL     1      -6.972  13.089  67.195  1.00  0.00    -0.092 OA 
BRANCH  19  21
HETATM   21  C   UNL     1      -8.880  14.837  66.551  1.00  0.00    -0.188 C  
BRANCH  21  22
HETATM   22  C   UNL     1      -9.982  15.530  65.712  1.00  0.00    -0.391 C  
HETATM   23  C   UNL     1     -10.710  16.838  66.137  1.00  0.00    -0.116 C  
BRANCH  23  24
HETATM   24  N   UNL     1     -10.028  18.065  66.602  1.00  0.00    -0.343 NA 
HETATM   25  C   UNL     1     -10.369  18.294  68.029  1.00  0.00    -0.391 C  
HETATM   26  C   UNL     1     -10.428  19.288  65.881  1.00  0.00    -0.451 C  
ENDBRANCH  23  24
ENDBRANCH  21  22
ENDBRANCH  19  21
BRANCH  19  27
HETATM   27  C   UNL     1     -10.350  13.503  68.032  1.00  0.00    -0.241 C  
HETATM   28  O   UNL     1     -11.369  12.949  67.632  1.00  0.00    -0.269 OA 
BRANCH  27  29
HETATM   29  N   UNL     1     -10.293  14.066  69.291  1.00  0.00    -0.433 N  
HETATM   30  H   UNL     1      -9.395  14.350  69.683  1.00  0.00     0.000 HD 
BRANCH  29  31
HETATM   31  C   UNL     1     -11.505  14.253  70.051  1.00  0.00    -0.219 C  
HETATM   32  C   UNL     1     -11.967  15.692  70.000  1.00  0.00    -0.384 C  
ENDBRANCH  29  31
ENDBRANCH  27  29
ENDBRANCH  19  27
ENDBRANCH  15  18
BRANCH  16  33
HETATM   33  C   UNL     1      -9.566   8.156  68.562  1.00  0.00    -0.148 C  
BRANCH  33  34
HETATM   34  C   UNL     1     -10.432   7.297  69.445  1.00  0.00    -0.223 C  
HETATM   35  C   UNL     1     -11.160   6.232  69.082  1.00  0.00    -0.457 C  
ENDBRANCH  33  34
ENDBRANCH  16  33
TORSDOF 9
ENDMDL
MODEL       28
REMARK 921   NORMALIZED FREE ENERGY PREDICTED BY IDOCK:   -5.58 KCAL/MOL
REMARK 922        TOTAL FREE ENERGY PREDICTED BY IDOCK:   -9.22 KCAL/MOL
REMARK 923 INTER-LIGAND FREE ENERGY PREDICTED BY IDOCK:   -7.68 KCAL/MOL
REMARK 924 INTRA-LIGAND FREE ENERGY PREDICTED BY IDOCK:   -1.54 KCAL/MOL
REMARK 927      BINDING AFFINITY PREDICTED BY RF-SCORE:    0.00 PKD
ROOT
HETATM    1  C   UNL     1     -10.908  10.730  69.670  1.00  0.00    -0.241 C  
HETATM    2  C   UNL     1     -11.950  11.665  70.285  1.00  0.00    -0.445 C  
HETATM    3  C   UNL     1     -11.927  12.886  69.445  1.00  0.00    -0.327 A  
HETATM    4  C   UNL     1     -11.977  14.228  69.695  1.00  0.00    -0.336 A  
HETATM    5  N   UNL     1     -12.102  14.855  68.475  1.00  0.00    -0.581 NA 
HETATM    6  H   UNL     1     -12.185  15.862  68.342  1.00  0.00     0.000 HD 
HETATM    7  C   UNL     1     -12.100  13.924  67.461  1.00  0.00    -0.331 A  
HETATM    8  C   UNL     1     -12.406  13.974  66.107  1.00  0.00    -0.491 A  
HETATM    9  C   UNL     1     -12.292  12.765  65.396  1.00  0.00    -0.528 A  
HETATM   10  C   UNL     1     -11.757  11.594  65.976  1.00  0.00     0.032 A  
HETATM   11  C   UNL     1     -11.415  11.569  67.329  1.00  0.00    -0.338 A  
HETATM   12  C   UNL     1     -10.951  10.352  68.123  1.00  0.00    -0.334 C  
HETATM   13  C   UNL     1     -11.731  12.733  68.050  1.00  0.00    -0.405 A  
HETATM   14  C   UNL     1      -9.562   9.670  67.810  1.00  0.00    -0.161 C  
HETATM   15  C   UNL     1      -8.497  10.026  68.920  1.00  0.00    -0.132 C  
HETATM   16  N   UNL     1     -10.586   9.566  70.493  1.00  0.00    -0.273 NA 
HETATM   17  C   UNL     1      -9.115   9.403  70.277  1.00  0.00    -0.245 C  
ENDROOT
BRANCH  15  18
HETATM   18  C   UNL     1      -8.054  11.573  68.567  1.00  0.00    -0.146 C  
HETATM   19  N   UNL     1      -7.338  12.021  67.445  1.00  0.00    -0.139 N  
HETATM   20  O   UNL     1      -8.495  12.437  69.325  1.00  0.00     0.493 OA 
BRANCH  19  21
HETATM   21  C   UNL     1      -7.243  13.513  67.230  1.00  0.00     0.013 C  
BRANCH  21  22
HETATM   22  C   UNL     1      -8.508  14.366  66.964  1.00  0.00    -0.206 C  
HETATM   23  C   UNL     1      -8.821  15.712  67.680  1.00  0.00    -0.175 C  
BRANCH  23  24
HETATM   24  N   UNL     1      -7.864  16.832  67.816  1.00  0.00    -0.173 NA 
HETATM   25  C   UNL     1      -7.144  17.010  66.530  1.00  0.00    -0.271 C  
HETATM   26  C   UNL     1      -6.826  16.617  68.842  1.00  0.00    -0.191 C  
ENDBRANCH  23  24
ENDBRANCH  21  22
ENDBRANCH  19  21
BRANCH  19  27
HETATM   27  C   UNL     1      -7.128  11.204  66.343  1.00  0.00    -0.091 C  
HETATM   28  O   UNL     1      -6.192  10.419  66.237  1.00  0.00    -0.076 OA 
BRANCH  27  29
HETATM   29  N   UNL     1      -8.103  11.285  65.369  1.00  0.00    -0.347 N  
HETATM   30  H   UNL     1      -8.763  12.063  65.370  1.00  0.00     0.000 HD 
BRANCH  29  31
HETATM   31  C   UNL     1      -8.187  10.267  64.349  1.00  0.00    -0.159 C  
HETATM   32  C   UNL     1      -9.444  10.421  63.524  1.00  0.00    -0.356 C  
ENDBRANCH  29  31
ENDBRANCH  27  29
ENDBRANCH  19  27
ENDBRANCH  15  18
BRANCH  16  33
HETATM   33  C   UNL     1     -11.478   8.434  70.161  1.00  0.00     0.012 C  
BRANCH  33  34
HETATM   34  C   UNL     1     -10.908   7.045  70.264  1.00  0.00    -0.283 C  
HETATM   35  C   UNL     1     -11.110   6.018  69.428  1.00  0.00    -0.445 C  
ENDBRANCH  33  34
ENDBRANCH  16  33
TORSDOF 9
ENDMDL
MODEL       29
REMARK 921   NORMALIZED FREE ENERGY PREDICTED BY IDOCK:   -5.55 KCAL/MOL
REMARK 922        TOTAL FREE ENERGY PREDICTED BY IDOCK:   -9.18 KCAL/MOL
REMARK 923 INTER-LIGAND FREE ENERGY PREDICTED BY IDOCK:   -7.60 KCAL/MOL
REMARK 924 INTRA-LIGAND FREE ENERGY PREDICTED BY IDOCK:   -1.58 KCAL/MOL
REMARK 927      BINDING AFFINITY PREDICTED BY RF-SCORE:    0.00 PKD
ROOT
HETATM    1  C   UNL     1      -8.025  10.265  66.271  1.00  0.00    -0.124 C  
HETATM    2  C   UNL     1      -6.701  10.844  66.769  1.00  0.00    -0.120 C  
HETATM    3  C   UNL     1      -6.836  10.924  68.243  1.00  0.00    -0.067 A  
HETATM    4  C   UNL     1      -6.491  11.843  69.194  1.00  0.00    -0.098 A  
HETATM    5  N   UNL     1      -6.719  11.252  70.417  1.00  0.00    -0.489 NA 
HETATM    6  H   UNL     1      -6.535  11.689  71.320  1.00  0.00     0.000 HD 
HETATM    7  C   UNL     1      -7.230   9.986  70.245  1.00  0.00    -0.147 A  
HETATM    8  C   UNL     1      -7.429   8.905  71.094  1.00  0.00    -0.125 A  
HETATM    9  C   UNL     1      -7.977   7.746  70.511  1.00  0.00    -0.098 A  
HETATM   10  C   UNL     1      -8.441   7.717  69.178  1.00  0.00    -0.138 A  
HETATM   11  C   UNL     1      -8.272   8.827  68.347  1.00  0.00    -0.118 A  
HETATM   12  C   UNL     1      -8.601   8.901  66.860  1.00  0.00    -0.121 C  
HETATM   13  C   UNL     1      -7.542   9.889  68.905  1.00  0.00    -0.083 A  
HETATM   14  C   UNL     1     -10.097   8.818  66.362  1.00  0.00    -0.313 C  
HETATM   15  C   UNL     1     -10.623  10.240  65.916  1.00  0.00    -0.083 C  
HETATM   16  N   UNL     1      -8.205  10.338  64.822  1.00  0.00    -0.163 NA 
HETATM   17  C   UNL     1      -9.661  10.649  64.683  1.00  0.00    -0.302 C  
ENDROOT
BRANCH  15  18
HETATM   18  C   UNL     1     -10.917  11.020  67.337  1.00  0.00    -0.291 C  
HETATM   19  N   UNL     1     -10.935  12.406  67.562  1.00  0.00    -0.242 N  
HETATM   20  O   UNL     1     -11.262  10.302  68.276  1.00  0.00    -0.276 OA 
BRANCH  19  21
HETATM   21  C   UNL     1     -11.446  12.889  68.899  1.00  0.00    -0.304 C  
BRANCH  21  22
HETATM   22  C   UNL     1     -12.215  14.227  69.026  1.00  0.00    -0.255 C  
HETATM   23  C   UNL     1     -11.536  15.606  69.273  1.00  0.00    -0.362 C  
BRANCH  23  24
HETATM   24  N   UNL     1     -10.383  16.123  68.504  1.00  0.00    -0.243 NA 
HETATM   25  C   UNL     1      -9.128  15.696  69.171  1.00  0.00    -0.256 C  
HETATM   26  C   UNL     1     -10.326  17.594  68.419  1.00  0.00    -0.375 C  
ENDBRANCH  23  24
ENDBRANCH  21  22
ENDBRANCH  19  21
BRANCH  19  27
HETATM   27  C   UNL     1     -10.945  13.313  66.511  1.00  0.00    -0.286 C  
HETATM   28  O   UNL     1      -9.948  13.893  66.092  1.00  0.00    -0.293 OA 
BRANCH  27  29
HETATM   29  N   UNL     1     -12.173  13.482  65.905  1.00  0.00    -0.442 N  
HETATM   30  H   UNL     1     -13.029  13.251  66.411  1.00  0.00     0.000 HD 
BRANCH  29  31
HETATM   31  C   UNL     1     -12.246  13.986  64.555  1.00  0.00    -0.434 C  
HETATM   32  C   UNL     1     -12.241  12.858  63.548  1.00  0.00    -0.595 C  
ENDBRANCH  29  31
ENDBRANCH  27  29
ENDBRANCH  19  27
ENDBRANCH  15  18
BRANCH  16  33
HETATM   33  C   UNL     1      -7.679   9.117  64.174  1.00  0.00    -0.121 C  
BRANCH  33  34
HETATM   34  C   UNL     1      -6.261   9.153  63.668  1.00  0.00    -0.089 C  
HETATM   35  C   UNL     1      -5.565  10.228  63.276  1.00  0.00    -0.142 C  
ENDBRANCH  33  34
ENDBRANCH  16  33
TORSDOF 9
ENDMDL
MODEL       30
REMARK 921   NORMALIZED FREE ENERGY PREDICTED BY IDOCK:   -5.54 KCAL/MOL
REMARK 922        TOTAL FREE ENERGY PREDICTED BY IDOCK:   -9.16 KCAL/MOL
REMARK 923 INTER-LIGAND FREE ENERGY PREDICTED BY IDOCK:   -7.40 KCAL/MOL
REMARK 924 INTRA-LIGAND FREE ENERGY PREDICTED BY IDOCK:   -1.77 KCAL/MOL
REMARK 927      BINDING AFFINITY PREDICTED BY RF-SCORE:    0.00 PKD
ROOT
HETATM    1  C   UNL     1     -10.447   7.104  70.010  1.00  0.00    -0.221 C  
HETATM    2  C   UNL     1     -11.266   6.101  69.199  1.00  0.00    -0.409 C  
HETATM    3  C   UNL     1     -10.593   6.016  67.882  1.00  0.00    -0.337 A  
HETATM    4  C   UNL     1     -11.017   5.955  66.584  1.00  0.00    -0.148 A  
HETATM    5  N   UNL     1      -9.904   5.703  65.813  1.00  0.00    -0.372 NA 
HETATM    6  H   UNL     1      -9.910   5.583  64.801  1.00  0.00     0.000 HD 
HETATM    7  C   UNL     1      -8.781   5.636  66.608  1.00  0.00    -0.118 A  
HETATM    8  C   UNL     1      -7.478   5.206  66.398  1.00  0.00    -0.087 A  
HETATM    9  C   UNL     1      -6.609   5.284  67.503  1.00  0.00    -0.054 A  
HETATM   10  C   UNL     1      -6.984   5.899  68.718  1.00  0.00    -0.072 A  
HETATM   11  C   UNL     1      -8.288   6.364  68.901  1.00  0.00    -0.121 A  
HETATM   12  C   UNL     1      -8.874   6.929  70.191  1.00  0.00    -0.145 C  
HETATM   13  C   UNL     1      -9.178   6.087  67.850  1.00  0.00    -0.111 A  
HETATM   14  C   UNL     1      -8.355   8.300  70.777  1.00  0.00    -0.127 C  
HETATM   15  C   UNL     1      -9.404   9.454  70.526  1.00  0.00    -0.319 C  
HETATM   16  N   UNL     1     -11.082   7.530  71.256  1.00  0.00    -0.243 NA 
HETATM   17  C   UNL     1     -10.718   8.978  71.337  1.00  0.00    -0.331 C  
ENDROOT
BRANCH  15  18
HETATM   18  C   UNL     1      -9.216   9.823  68.931  1.00  0.00    -0.155 C  
HETATM   19  N   UNL     1     -10.089  10.564  68.118  1.00  0.00    -0.154 N  
HETATM   20  O   UNL     1      -8.138   9.498  68.434  1.00  0.00    -0.100 OA 
BRANCH  19  21
HETATM   21  C   UNL     1      -9.598  10.959  66.745  1.00  0.00    -0.183 C  
BRANCH  21  22
HETATM   22  C   UNL     1     -10.039  10.179  65.482  1.00  0.00    -0.338 C  
HETATM   23  C   UNL     1      -9.054   9.597  64.426  1.00  0.00    -0.229 C  
BRANCH  23  24
HETATM   24  N   UNL     1      -7.868   8.776  64.750  1.00  0.00    -0.116 NA 
HETATM   25  C   UNL     1      -6.677   9.659  64.829  1.00  0.00    -0.103 C  
HETATM   26  C   UNL     1      -7.552   7.749  63.740  1.00  0.00    -0.118 C  
ENDBRANCH  23  24
ENDBRANCH  21  22
ENDBRANCH  19  21
BRANCH  19  27
HETATM   27  C   UNL     1     -11.134  11.303  68.657  1.00  0.00    -0.232 C  
HETATM   28  O   UNL     1     -12.312  10.968  68.606  1.00  0.00    -0.539 OA 
BRANCH  27  29
HETATM   29  N   UNL     1     -10.747  12.444  69.331  1.00  0.00    -0.436 N  
HETATM   30  H   UNL     1     -10.356  12.375  70.271  1.00  0.00     0.000 HD 
BRANCH  29  31
HETATM   31  C   UNL     1     -10.896  13.735  68.704  1.00  0.00    -0.263 C  
HETATM   32  C   UNL     1     -11.997  14.538  69.359  1.00  0.00    -0.362 C  
ENDBRANCH  29  31
ENDBRANCH  27  29
ENDBRANCH  19  27
ENDBRANCH  15  18
BRANCH  16  33
HETATM   33  C   UNL     1     -10.686   6.639  72.369  1.00  0.00    -0.223 C  
BRANCH  33  34
HETATM   34  C   UNL     1     -10.355   7.281  73.690  1.00  0.00    -0.399 C  
HETATM   35  C   UNL     1      -9.178   7.270  74.328  1.00  0.00    -0.232 C  
ENDBRANCH  33  34
ENDBRANCH  16  33
TORSDOF 9
ENDMDL
MODEL       31
REMARK 921   NORMALIZED FREE ENERGY PREDICTED BY IDOCK:   -5.54 KCAL/MOL
REMARK 922        TOTAL FREE ENERGY PREDICTED BY IDOCK:   -9.16 KCAL/MOL
REMARK 923 INTER-LIGAND FREE ENERGY PREDICTED BY IDOCK:   -7.37 KCAL/MOL
REMARK 924 INTRA-LIGAND FREE ENERGY PREDICTED BY IDOCK:   -1.79 KCAL/MOL
REMARK 927      BINDING AFFINITY PREDICTED BY RF-SCORE:    0.00 PKD
ROOT
HETATM    1  C   UNL     1     -10.969  12.099  68.967  1.00  0.00    -0.205 C  
HETATM    2  C   UNL     1     -11.014  13.572  69.371  1.00  0.00    -0.101 C  
HETATM    3  C   UNL     1     -10.553  14.322  68.179  1.00  0.00    -0.246 A  
HETATM    4  C   UNL     1      -9.733  15.395  67.973  1.00  0.00    -0.207 A  
HETATM    5  N   UNL     1      -9.849  15.734  66.642  1.00  0.00    -0.242 NA 
HETATM    6  H   UNL     1      -9.368  16.513  66.195  1.00  0.00     0.000 HD 
HETATM    7  C   UNL     1     -10.707  14.866  66.005  1.00  0.00    -0.323 A  
HETATM    8  C   UNL     1     -11.334  14.870  64.766  1.00  0.00    -0.400 A  
HETATM    9  C   UNL     1     -12.175  13.776  64.488  1.00  0.00    -0.441 A  
HETATM   10  C   UNL     1     -12.270  12.659  65.346  1.00  0.00    -0.517 A  
HETATM   11  C   UNL     1     -11.600  12.650  66.572  1.00  0.00    -0.441 A  
HETATM   12  C   UNL     1     -11.708  11.581  67.654  1.00  0.00    -0.283 C  
HETATM   13  C   UNL     1     -10.935  13.843  66.901  1.00  0.00    -0.300 A  
HETATM   14  C   UNL     1     -11.160  10.122  67.401  1.00  0.00    -0.219 C  
HETATM   15  C   UNL     1      -9.803   9.888  68.175  1.00  0.00    -0.167 C  
HETATM   16  N   UNL     1     -11.142  11.166  70.079  1.00  0.00    -0.175 NA 
HETATM   17  C   UNL     1     -10.201  10.057  69.732  1.00  0.00    -0.250 C  
ENDROOT
BRANCH  15  18
HETATM   18  C   UNL     1      -8.684  10.692  67.271  1.00  0.00    -0.129 C  
HETATM   19  N   UNL     1      -7.446  11.198  67.699  1.00  0.00    -0.097 N  
HETATM   20  O   UNL     1      -8.925  10.761  66.066  1.00  0.00    -0.168 OA 
BRANCH  19  21
HETATM   21  C   UNL     1      -6.496  11.703  66.639  1.00  0.00    -0.054 C  
BRANCH  21  22
HETATM   22  C   UNL     1      -5.372  10.799  66.074  1.00  0.00    -0.119 C  
HETATM   23  C   UNL     1      -5.622   9.455  65.331  1.00  0.00    -0.052 C  
BRANCH  23  24
HETATM   24  N   UNL     1      -6.583   9.277  64.221  1.00  0.00    -0.084 NA 
HETATM   25  C   UNL     1      -6.365   7.944  63.604  1.00  0.00    -0.063 C  
HETATM   26  C   UNL     1      -6.438  10.263  63.134  1.00  0.00    -0.127 C  
ENDBRANCH  23  24
ENDBRANCH  21  22
ENDBRANCH  19  21
BRANCH  19  27
HETATM   27  C   UNL     1      -6.901  10.844  68.926  1.00  0.00    -0.076 C  
HETATM   28  O   UNL     1      -6.326   9.783  69.144  1.00  0.00    -0.040 OA 
BRANCH  27  29
HETATM   29  N   UNL     1      -6.994  11.817  69.902  1.00  0.00    -0.329 N  
HETATM   30  H   UNL     1      -7.766  11.799  70.568  1.00  0.00     0.000 HD 
BRANCH  29  31
HETATM   31  C   UNL     1      -5.998  12.857  69.977  1.00  0.00    -0.139 C  
HETATM   32  C   UNL     1      -6.587  14.206  69.631  1.00  0.00    -0.120 C  
ENDBRANCH  29  31
ENDBRANCH  27  29
ENDBRANCH  19  27
ENDBRANCH  15  18
BRANCH  16  33
HETATM   33  C   UNL     1     -12.574  10.844  70.265  1.00  0.00    -0.265 C  
BRANCH  33  34
HETATM   34  C   UNL     1     -12.964  10.109  71.520  1.00  0.00    -0.547 C  
HETATM   35  C   UNL     1     -13.667   8.972  71.611  1.00  0.00    -0.442 C  
ENDBRANCH  33  34
ENDBRANCH  16  33
TORSDOF 9
ENDMDL
MODEL       32
REMARK 921   NORMALIZED FREE ENERGY PREDICTED BY IDOCK:   -5.52 KCAL/MOL
REMARK 922        TOTAL FREE ENERGY PREDICTED BY IDOCK:   -9.13 KCAL/MOL
REMARK 923 INTER-LIGAND FREE ENERGY PREDICTED BY IDOCK:   -6.84 KCAL/MOL
REMARK 924 INTRA-LIGAND FREE ENERGY PREDICTED BY IDOCK:   -2.29 KCAL/MOL
REMARK 927      BINDING AFFINITY PREDICTED BY RF-SCORE:    0.00 PKD
ROOT
HETATM    1  C   UNL     1      -9.816   8.699  67.612  1.00  0.00    -0.180 C  
HETATM    2  C   UNL     1     -10.674   7.435  67.568  1.00  0.00    -0.310 C  
HETATM    3  C   UNL     1     -10.926   7.080  68.984  1.00  0.00    -0.169 A  
HETATM    4  C   UNL     1     -10.949   5.913  69.696  1.00  0.00    -0.377 A  
HETATM    5  N   UNL     1     -11.430   6.222  70.949  1.00  0.00    -0.330 NA 
HETATM    6  H   UNL     1     -11.579   5.549  71.700  1.00  0.00     0.000 HD 
HETATM    7  C   UNL     1     -11.680   7.573  71.042  1.00  0.00    -0.292 A  
HETATM    8  C   UNL     1     -12.352   8.366  71.962  1.00  0.00    -0.413 A  
HETATM    9  C   UNL     1     -12.403   9.745  71.680  1.00  0.00    -0.495 A  
HETATM   10  C   UNL     1     -11.689  10.323  70.607  1.00  0.00    -0.438 A  
HETATM   11  C   UNL     1     -10.982   9.516  69.713  1.00  0.00    -0.245 A  
HETATM   12  C   UNL     1     -10.277   9.979  68.442  1.00  0.00    -0.196 C  
HETATM   13  C   UNL     1     -11.123   8.133  69.911  1.00  0.00    -0.102 A  
HETATM   14  C   UNL     1      -9.009  10.916  68.522  1.00  0.00    -0.157 C  
HETATM   15  C   UNL     1      -7.688  10.105  68.219  1.00  0.00    -0.088 C  
HETATM   16  N   UNL     1      -9.239   9.079  66.324  1.00  0.00    -0.189 NA 
HETATM   17  C   UNL     1      -7.883   9.582  66.703  1.00  0.00    -0.101 C  
ENDROOT
BRANCH  15  18
HETATM   18  C   UNL     1      -7.412   9.260  69.607  1.00  0.00    -0.078 C  
HETATM   19  N   UNL     1      -6.973   7.931  69.724  1.00  0.00    -0.049 N  
HETATM   20  O   UNL     1      -7.504   9.906  70.650  1.00  0.00    -0.284 OA 
BRANCH  19  21
HETATM   21  C   UNL     1      -6.581   7.445  71.099  1.00  0.00    -0.043 C  
BRANCH  21  22
HETATM   22  C   UNL     1      -7.102   6.094  71.650  1.00  0.00    -0.082 C  
HETATM   23  C   UNL     1      -7.957   5.949  72.942  1.00  0.00    -0.107 C  
BRANCH  23  24
HETATM   24  N   UNL     1      -9.160   6.754  73.247  1.00  0.00    -0.127 NA 
HETATM   25  C   UNL     1      -8.735   8.068  73.791  1.00  0.00    -0.265 C  
HETATM   26  C   UNL     1     -10.045   6.154  74.261  1.00  0.00    -0.311 C  
ENDBRANCH  23  24
ENDBRANCH  21  22
ENDBRANCH  19  21
BRANCH  19  27
HETATM   27  C   UNL     1      -6.469   7.233  68.634  1.00  0.00    -0.040 C  
HETATM   28  O   UNL     1      -5.333   7.373  68.193  1.00  0.00    -0.023 OA 
BRANCH  27  29
HETATM   29  N   UNL     1      -7.331   6.297  68.098  1.00  0.00    -0.087 N  
HETATM   30  H   UNL     1      -8.260   6.169  68.500  1.00  0.00     0.000 HD 
BRANCH  29  31
HETATM   31  C   UNL     1      -6.916   5.501  66.969  1.00  0.00    -0.065 C  
HETATM   32  C   UNL     1      -7.738   5.820  65.741  1.00  0.00    -0.095 C  
ENDBRANCH  29  31
ENDBRANCH  27  29
ENDBRANCH  19  27
ENDBRANCH  15  18
BRANCH  16  33
HETATM   33  C   UNL     1     -10.152   9.988  65.596  1.00  0.00    -0.251 C  
BRANCH  33  34
HETATM   34  C   UNL     1      -9.667  10.563  64.292  1.00  0.00    -0.391 C  
HETATM   35  C   UNL     1     -10.282  11.473  63.526  1.00  0.00    -0.462 C  
ENDBRANCH  33  34
ENDBRANCH  16  33
TORSDOF 9
ENDMDL
MODEL       33
REMARK 921   NORMALIZED FREE ENERGY PREDICTED BY IDOCK:   -5.51 KCAL/MOL
REMARK 922        TOTAL FREE ENERGY PREDICTED BY IDOCK:   -9.12 KCAL/MOL
REMARK 923 INTER-LIGAND FREE ENERGY PREDICTED BY IDOCK:   -7.19 KCAL/MOL
REMARK 924 INTRA-LIGAND FREE ENERGY PREDICTED BY IDOCK:   -1.94 KCAL/MOL
REMARK 927      BINDING AFFINITY PREDICTED BY RF-SCORE:    0.00 PKD
ROOT
HETATM    1  C   UNL     1      -9.458  10.377  66.174  1.00  0.00    -0.181 C  
HETATM    2  C   UNL     1      -8.607   9.892  65.001  1.00  0.00    -0.174 C  
HETATM    3  C   UNL     1      -8.087   8.567  65.413  1.00  0.00    -0.127 A  
HETATM    4  C   UNL     1      -6.885   7.927  65.304  1.00  0.00    -0.055 A  
HETATM    5  N   UNL     1      -7.085   6.631  65.723  1.00  0.00    -0.060 NA 
HETATM    6  H   UNL     1      -6.370   5.904  65.735  1.00  0.00     0.000 HD 
HETATM    7  C   UNL     1      -8.391   6.457  66.122  1.00  0.00    -0.128 A  
HETATM    8  C   UNL     1      -9.168   5.345  66.416  1.00  0.00    -0.150 A  
HETATM    9  C   UNL     1     -10.505   5.595  66.781  1.00  0.00    -0.353 A  
HETATM   10  C   UNL     1     -11.000   6.901  66.985  1.00  0.00    -0.404 A  
HETATM   11  C   UNL     1     -10.194   8.011  66.726  1.00  0.00    -0.367 A  
HETATM   12  C   UNL     1     -10.626   9.473  66.774  1.00  0.00    -0.208 C  
HETATM   13  C   UNL     1      -8.936   7.724  66.172  1.00  0.00    -0.201 A  
HETATM   14  C   UNL     1     -11.028  10.148  68.144  1.00  0.00    -0.313 C  
HETATM   15  C   UNL     1      -9.886  11.112  68.654  1.00  0.00    -0.207 C  
HETATM   16  N   UNL     1      -9.863  11.778  66.084  1.00  0.00    -0.222 NA 
HETATM   17  C   UNL     1      -9.777  12.242  67.503  1.00  0.00    -0.190 C  
ENDROOT
BRANCH  15  18
HETATM   18  C   UNL     1      -8.739  10.091  69.252  1.00  0.00    -0.177 C  
HETATM   19  N   UNL     1      -8.876   9.182  70.314  1.00  0.00    -0.192 N  
HETATM   20  O   UNL     1      -7.682  10.054  68.624  1.00  0.00    -0.082 OA 
BRANCH  19  21
HETATM   21  C   UNL     1      -7.753   8.197  70.537  1.00  0.00    -0.085 C  
BRANCH  21  22
HETATM   22  C   UNL     1      -7.521   7.014  69.564  1.00  0.00    -0.096 C  
HETATM   23  C   UNL     1      -7.791   5.524  69.922  1.00  0.00    -0.082 C  
BRANCH  23  24
HETATM   24  N   UNL     1      -9.039   5.021  70.535  1.00  0.00    -0.134 NA 
HETATM   25  C   UNL     1      -8.765   4.646  71.946  1.00  0.00    -0.122 C  
HETATM   26  C   UNL     1      -9.587   3.815  69.887  1.00  0.00    -0.184 C  
ENDBRANCH  23  24
ENDBRANCH  21  22
ENDBRANCH  19  21
BRANCH  19  27
HETATM   27  C   UNL     1     -10.120   8.860  70.839  1.00  0.00    -0.241 C  
HETATM   28  O   UNL     1     -10.777   9.605  71.559  1.00  0.00    -0.301 OA 
BRANCH  27  29
HETATM   29  N   UNL     1     -10.617   7.636  70.440  1.00  0.00    -0.225 N  
HETATM   30  H   UNL     1     -10.015   6.977  69.946  1.00  0.00     0.000 HD 
BRANCH  29  31
HETATM   31  C   UNL     1     -11.989   7.289  70.721  1.00  0.00    -0.272 C  
HETATM   32  C   UNL     1     -12.089   6.376  71.921  1.00  0.00    -0.362 C  
ENDBRANCH  29  31
ENDBRANCH  27  29
ENDBRANCH  19  27
ENDBRANCH  15  18
BRANCH  16  33
HETATM   33  C   UNL     1     -11.158  11.899  65.379  1.00  0.00    -0.306 C  
BRANCH  33  34
HETATM   34  C   UNL     1     -12.151  12.896  65.914  1.00  0.00    -0.503 C  
HETATM   35  C   UNL     1     -12.686  13.939  65.266  1.00  0.00    -0.485 C  
ENDBRANCH  33  34
ENDBRANCH  16  33
TORSDOF 9
ENDMDL
MODEL       34
REMARK 921   NORMALIZED FREE ENERGY PREDICTED BY IDOCK:   -5.51 KCAL/MOL
REMARK 922        TOTAL FREE ENERGY PREDICTED BY IDOCK:   -9.12 KCAL/MOL
REMARK 923 INTER-LIGAND FREE ENERGY PREDICTED BY IDOCK:   -8.03 KCAL/MOL
REMARK 924 INTRA-LIGAND FREE ENERGY PREDICTED BY IDOCK:   -1.09 KCAL/MOL
REMARK 927      BINDING AFFINITY PREDICTED BY RF-SCORE:    0.00 PKD
ROOT
HETATM    1  C   UNL     1      -9.095  12.168  67.138  1.00  0.00    -0.189 C  
HETATM    2  C   UNL     1      -7.575  12.136  66.986  1.00  0.00    -0.093 C  
HETATM    3  C   UNL     1      -7.274  10.856  66.302  1.00  0.00    -0.126 A  
HETATM    4  C   UNL     1      -6.319   9.888  66.444  1.00  0.00    -0.071 A  
HETATM    5  N   UNL     1      -6.466   9.027  65.379  1.00  0.00    -0.067 NA 
HETATM    6  H   UNL     1      -5.878   8.213  65.202  1.00  0.00     0.000 HD 
HETATM    7  C   UNL     1      -7.520   9.425  64.588  1.00  0.00    -0.108 A  
HETATM    8  C   UNL     1      -7.960   9.068  63.321  1.00  0.00    -0.148 A  
HETATM    9  C   UNL     1      -9.102   9.740  62.844  1.00  0.00    -0.275 A  
HETATM   10  C   UNL     1      -9.855  10.618  63.654  1.00  0.00    -0.392 A  
HETATM   11  C   UNL     1      -9.423  10.936  64.943  1.00  0.00    -0.277 A  
HETATM   12  C   UNL     1     -10.053  11.961  65.881  1.00  0.00    -0.265 C  
HETATM   13  C   UNL     1      -8.175  10.404  65.306  1.00  0.00    -0.162 A  
HETATM   14  C   UNL     1     -11.496  11.724  66.477  1.00  0.00    -0.325 C  
HETATM   15  C   UNL     1     -11.416  11.301  67.996  1.00  0.00    -0.369 C  
HETATM   16  N   UNL     1      -9.590  13.228  68.014  1.00  0.00    -0.214 NA 
HETATM   17  C   UNL     1     -10.728  12.569  68.725  1.00  0.00    -0.202 C  
ENDROOT
BRANCH  15  18
HETATM   18  C   UNL     1     -10.949   9.722  67.946  1.00  0.00    -0.188 C  
HETATM   19  N   UNL     1     -10.654   8.884  69.034  1.00  0.00    -0.214 N  
HETATM   20  O   UNL     1     -10.963   9.198  66.832  1.00  0.00    -0.063 OA 
BRANCH  19  21
HETATM   21  C   UNL     1     -10.461   7.413  68.750  1.00  0.00    -0.199 C  
BRANCH  21  22
HETATM   22  C   UNL     1     -11.272   6.337  69.513  1.00  0.00    -0.500 C  
HETATM   23  C   UNL     1     -10.713   5.502  70.702  1.00  0.00    -0.233 C  
BRANCH  23  24
HETATM   24  N   UNL     1     -10.010   6.074  71.871  1.00  0.00    -0.168 NA 
HETATM   25  C   UNL     1      -8.849   5.211  72.205  1.00  0.00    -0.129 C  
HETATM   26  C   UNL     1     -10.834   6.148  73.092  1.00  0.00    -0.254 C  
ENDBRANCH  23  24
ENDBRANCH  21  22
ENDBRANCH  19  21
BRANCH  19  27
HETATM   27  C   UNL     1     -10.974   9.244  70.337  1.00  0.00    -0.255 C  
HETATM   28  O   UNL     1     -10.145   9.496  71.205  1.00  0.00    -0.288 OA 
BRANCH  27  29
HETATM   29  N   UNL     1     -12.326   9.367  70.587  1.00  0.00    -0.487 N  
HETATM   30  H   UNL     1     -12.948   9.731  69.865  1.00  0.00     0.000 HD 
BRANCH  29  31
HETATM   31  C   UNL     1     -12.858   8.979  71.871  1.00  0.00    -0.387 C  
HETATM   32  C   UNL     1     -13.854   7.850  71.733  1.00  0.00    -0.449 C  
ENDBRANCH  29  31
ENDBRANCH  27  29
ENDBRANCH  19  27
ENDBRANCH  15  18
BRANCH  16  33
HETATM   33  C   UNL     1      -9.860  14.458  67.237  1.00  0.00    -0.247 C  
BRANCH  33  34
HETATM   34  C   UNL     1     -11.085  15.254  67.599  1.00  0.00    -0.323 C  
HETATM   35  C   UNL     1     -11.242  16.076  68.644  1.00  0.00    -0.366 C  
ENDBRANCH  33  34
ENDBRANCH  16  33
TORSDOF 9
ENDMDL
MODEL       35
REMARK 921   NORMALIZED FREE ENERGY PREDICTED BY IDOCK:   -5.50 KCAL/MOL
REMARK 922        TOTAL FREE ENERGY PREDICTED BY IDOCK:   -9.11 KCAL/MOL
REMARK 923 INTER-LIGAND FREE ENERGY PREDICTED BY IDOCK:   -7.35 KCAL/MOL
REMARK 924 INTRA-LIGAND FREE ENERGY PREDICTED BY IDOCK:   -1.76 KCAL/MOL
REMARK 927      BINDING AFFINITY PREDICTED BY RF-SCORE:    0.00 PKD
ROOT
HETATM    1  C   UNL     1     -10.375  14.423  67.034  1.00  0.00    -0.263 C  
HETATM    2  C   UNL     1     -11.408  13.400  66.565  1.00  0.00    -0.346 C  
HETATM    3  C   UNL     1     -11.631  12.504  67.724  1.00  0.00    -0.401 A  
HETATM    4  C   UNL     1     -11.783  11.156  67.885  1.00  0.00    -0.182 A  
HETATM    5  N   UNL     1     -12.144  10.951  69.199  1.00  0.00    -0.606 NA 
HETATM    6  H   UNL     1     -12.348  10.042  69.613  1.00  0.00     0.000 HD 
HETATM    7  C   UNL     1     -12.190  12.152  69.871  1.00  0.00    -0.170 A  
HETATM    8  C   UNL     1     -12.689  12.544  71.106  1.00  0.00    -0.340 A  
HETATM    9  C   UNL     1     -12.554  13.908  71.429  1.00  0.00    -0.444 A  
HETATM   10  C   UNL     1     -11.825  14.807  70.621  1.00  0.00    -0.364 A  
HETATM   11  C   UNL     1     -11.293  14.388  69.400  1.00  0.00    -0.319 A  
HETATM   12  C   UNL     1     -10.598  15.269  68.366  1.00  0.00    -0.246 C  
HETATM   13  C   UNL     1     -11.621  13.076  69.021  1.00  0.00    -0.367 A  
HETATM   14  C   UNL     1      -9.205  15.939  68.686  1.00  0.00    -0.209 C  
HETATM   15  C   UNL     1      -8.035  15.197  67.929  1.00  0.00    -0.143 C  
HETATM   16  N   UNL     1      -9.820  15.251  65.965  1.00  0.00    -0.304 NA 
HETATM   17  C   UNL     1      -8.387  15.395  66.364  1.00  0.00    -0.045 C  
ENDROOT
BRANCH  15  18
HETATM   18  C   UNL     1      -7.808  13.817  68.800  1.00  0.00    -0.059 C  
HETATM   19  N   UNL     1      -7.529  12.532  68.307  1.00  0.00    -0.113 N  
HETATM   20  O   UNL     1      -7.780  13.959  70.023  1.00  0.00     0.695 OA 
BRANCH  19  21
HETATM   21  C   UNL     1      -7.145  11.469  69.308  1.00  0.00    -0.077 C  
BRANCH  21  22
HETATM   22  C   UNL     1      -7.570   9.992  69.112  1.00  0.00    -0.096 C  
HETATM   23  C   UNL     1      -7.775   8.980  70.276  1.00  0.00    -0.098 C  
BRANCH  23  24
HETATM   24  N   UNL     1      -8.579   9.248  71.489  1.00  0.00    -0.281 NA 
HETATM   25  C   UNL     1      -8.204   8.270  72.541  1.00  0.00    -0.164 C  
HETATM   26  C   UNL     1     -10.033   9.105  71.292  1.00  0.00    -0.303 C  
ENDBRANCH  23  24
ENDBRANCH  21  22
ENDBRANCH  19  21
BRANCH  19  27
HETATM   27  C   UNL     1      -7.157  12.326  66.985  1.00  0.00    -0.037 C  
HETATM   28  O   UNL     1      -5.999  12.363  66.582  1.00  0.00    -0.162 OA 
BRANCH  27  29
HETATM   29  N   UNL     1      -8.196  12.006  66.135  1.00  0.00    -0.366 N  
HETATM   30  H   UNL     1      -8.755  12.746  65.709  1.00  0.00     0.000 HD 
BRANCH  29  31
HETATM   31  C   UNL     1      -8.491  10.623  65.849  1.00  0.00    -0.167 C  
HETATM   32  C   UNL     1      -9.681  10.496  64.925  1.00  0.00    -0.360 C  
ENDBRANCH  29  31
ENDBRANCH  27  29
ENDBRANCH  19  27
ENDBRANCH  15  18
BRANCH  16  33
HETATM   33  C   UNL     1     -10.630  16.476  65.787  1.00  0.00    -0.296 C  
BRANCH  33  34
HETATM   34  C   UNL     1      -9.942  17.800  65.986  1.00  0.00    -0.219 C  
HETATM   35  C   UNL     1     -10.435  18.892  66.584  1.00  0.00    -0.496 C  
ENDBRANCH  33  34
ENDBRANCH  16  33
TORSDOF 9
ENDMDL
MODEL       36
REMARK 921   NORMALIZED FREE ENERGY PREDICTED BY IDOCK:   -5.49 KCAL/MOL
REMARK 922        TOTAL FREE ENERGY PREDICTED BY IDOCK:   -9.09 KCAL/MOL
REMARK 923 INTER-LIGAND FREE ENERGY PREDICTED BY IDOCK:   -7.15 KCAL/MOL
REMARK 924 INTRA-LIGAND FREE ENERGY PREDICTED BY IDOCK:   -1.93 KCAL/MOL
REMARK 927      BINDING AFFINITY PREDICTED BY RF-SCORE:    0.00 PKD
ROOT
HETATM    1  C   UNL     1      -9.122  11.726  67.735  1.00  0.00    -0.178 C  
HETATM    2  C   UNL     1      -7.835  12.200  68.410  1.00  0.00    -0.149 C  
HETATM    3  C   UNL     1      -6.842  11.130  68.160  1.00  0.00    -0.067 A  
HETATM    4  C   UNL     1      -5.873  10.520  68.908  1.00  0.00    -0.040 A  
HETATM    5  N   UNL     1      -5.153   9.720  68.048  1.00  0.00    -0.033 NA 
HETATM    6  H   UNL     1      -4.348   9.154  68.314  1.00  0.00     0.000 HD 
HETATM    7  C   UNL     1      -5.677   9.797  66.777  1.00  0.00    -0.050 A  
HETATM    8  C   UNL     1      -5.232   9.389  65.527  1.00  0.00    -0.036 A  
HETATM    9  C   UNL     1      -6.078   9.677  64.438  1.00  0.00    -0.089 A  
HETATM   10  C   UNL     1      -7.372  10.214  64.609  1.00  0.00    -0.129 A  
HETATM   11  C   UNL     1      -7.823  10.582  65.878  1.00  0.00    -0.151 A  
HETATM   12  C   UNL     1      -9.135  11.290  66.202  1.00  0.00    -0.216 C  
HETATM   13  C   UNL     1      -6.876  10.466  66.909  1.00  0.00    -0.088 A  
HETATM   14  C   UNL     1     -10.518  10.562  65.976  1.00  0.00    -0.226 C  
HETATM   15  C   UNL     1     -11.144  10.102  67.351  1.00  0.00    -0.219 C  
HETATM   16  N   UNL     1     -10.304  12.515  68.073  1.00  0.00    -0.216 NA 
HETATM   17  C   UNL     1     -11.381  11.481  68.160  1.00  0.00    -0.298 C  
ENDROOT
BRANCH  15  18
HETATM   18  C   UNL     1     -10.269   8.767  67.762  1.00  0.00    -0.228 C  
HETATM   19  N   UNL     1      -9.957   8.315  69.054  1.00  0.00    -0.184 N  
HETATM   20  O   UNL     1      -9.947   8.035  66.826  1.00  0.00    -0.232 OA 
BRANCH  19  21
HETATM   21  C   UNL     1      -9.331   6.947  69.182  1.00  0.00    -0.140 C  
BRANCH  21  22
HETATM   22  C   UNL     1     -10.194   5.695  69.475  1.00  0.00    -0.320 C  
HETATM   23  C   UNL     1     -10.332   5.038  70.879  1.00  0.00    -0.190 C  
BRANCH  23  24
HETATM   24  N   UNL     1     -10.640   5.775  72.123  1.00  0.00    -0.212 NA 
HETATM   25  C   UNL     1      -9.367   6.157  72.785  1.00  0.00    -0.148 C  
HETATM   26  C   UNL     1     -11.402   4.993  73.115  1.00  0.00    -0.321 C  
ENDBRANCH  23  24
ENDBRANCH  21  22
ENDBRANCH  19  21
BRANCH  19  27
HETATM   27  C   UNL     1     -10.587   8.836  70.178  1.00  0.00    -0.221 C  
HETATM   28  O   UNL     1     -10.073   9.648  70.940  1.00  0.00    -0.279 OA 
BRANCH  27  29
HETATM   29  N   UNL     1     -11.890   8.417  70.356  1.00  0.00    -0.476 N  
HETATM   30  H   UNL     1     -12.400   7.990  69.583  1.00  0.00     0.000 HD 
BRANCH  29  31
HETATM   31  C   UNL     1     -12.529   8.584  71.639  1.00  0.00    -0.330 C  
HETATM   32  C   UNL     1     -13.951   8.072  71.613  1.00  0.00    -0.474 C  
ENDBRANCH  29  31
ENDBRANCH  27  29
ENDBRANCH  19  27
ENDBRANCH  15  18
BRANCH  16  33
HETATM   33  C   UNL     1     -10.473  13.632  67.117  1.00  0.00    -0.264 C  
BRANCH  33  34
HETATM   34  C   UNL     1     -11.867  13.930  66.634  1.00  0.00    -0.447 C  
HETATM   35  C   UNL     1     -12.343  13.796  65.390  1.00  0.00    -0.504 C  
ENDBRANCH  33  34
ENDBRANCH  16  33
TORSDOF 9
ENDMDL
MODEL       37
REMARK 921   NORMALIZED FREE ENERGY PREDICTED BY IDOCK:   -5.48 KCAL/MOL
REMARK 922        TOTAL FREE ENERGY PREDICTED BY IDOCK:   -9.07 KCAL/MOL
REMARK 923 INTER-LIGAND FREE ENERGY PREDICTED BY IDOCK:   -7.50 KCAL/MOL
REMARK 924 INTRA-LIGAND FREE ENERGY PREDICTED BY IDOCK:   -1.57 KCAL/MOL
REMARK 927      BINDING AFFINITY PREDICTED BY RF-SCORE:    0.00 PKD
ROOT
HETATM    1  C   UNL     1     -10.614  14.657  69.110  1.00  0.00    -0.242 C  
HETATM    2  C   UNL     1      -9.528  15.028  70.121  1.00  0.00     0.398 C  
HETATM    3  C   UNL     1      -8.297  15.226  69.321  1.00  0.00    -0.243 A  
HETATM    4  C   UNL     1      -6.981  14.890  69.477  1.00  0.00    -0.180 A  
HETATM    5  N   UNL     1      -6.288  15.520  68.468  1.00  0.00    -0.097 NA 
HETATM    6  H   UNL     1      -5.278  15.474  68.337  1.00  0.00     0.000 HD 
HETATM    7  C   UNL     1      -7.156  16.223  67.663  1.00  0.00    -0.141 A  
HETATM    8  C   UNL     1      -6.987  17.179  66.670  1.00  0.00    -0.285 A  
HETATM    9  C   UNL     1      -8.163  17.681  66.080  1.00  0.00    -0.205 A  
HETATM   10  C   UNL     1      -9.438  17.146  66.364  1.00  0.00    -0.290 A  
HETATM   11  C   UNL     1      -9.588  16.155  67.336  1.00  0.00    -0.229 A  
HETATM   12  C   UNL     1     -10.906  15.576  67.841  1.00  0.00    -0.307 C  
HETATM   13  C   UNL     1      -8.420  15.825  68.043  1.00  0.00    -0.161 A  
HETATM   14  C   UNL     1     -11.823  14.713  66.889  1.00  0.00    -0.345 C  
HETATM   15  C   UNL     1     -11.724  13.178  67.252  1.00  0.00    -0.425 C  
HETATM   16  N   UNL     1     -11.854  14.170  69.711  1.00  0.00    -0.302 NA 
HETATM   17  C   UNL     1     -12.281  13.093  68.767  1.00  0.00    -0.055 C  
ENDROOT
BRANCH  15  18
HETATM   18  C   UNL     1     -10.273  12.712  66.626  1.00  0.00    -0.236 C  
HETATM   19  N   UNL     1      -9.393  11.746  67.139  1.00  0.00    -0.174 N  
HETATM   20  O   UNL     1      -9.988  13.196  65.530  1.00  0.00    -0.272 OA 
BRANCH  19  21
HETATM   21  C   UNL     1      -8.227  11.334  66.271  1.00  0.00    -0.126 C  
BRANCH  21  22
HETATM   22  C   UNL     1      -8.018   9.856  65.860  1.00  0.00    -0.115 C  
HETATM   23  C   UNL     1      -8.707   9.184  64.636  1.00  0.00    -0.166 C  
BRANCH  23  24
HETATM   24  N   UNL     1      -8.739   9.757  63.273  1.00  0.00    -0.208 NA 
HETATM   25  C   UNL     1      -7.399  10.310  62.951  1.00  0.00    -0.136 C  
HETATM   26  C   UNL     1      -9.694  10.868  63.108  1.00  0.00    -0.363 C  
ENDBRANCH  23  24
ENDBRANCH  21  22
ENDBRANCH  19  21
BRANCH  19  27
HETATM   27  C   UNL     1      -9.782  10.868  68.142  1.00  0.00    -0.166 C  
HETATM   28  O   UNL     1     -10.639  10.002  68.004  1.00  0.00    -0.203 OA 
BRANCH  27  29
HETATM   29  N   UNL     1      -9.079  10.992  69.323  1.00  0.00    -0.399 N  
HETATM   30  H   UNL     1      -9.141  11.853  69.867  1.00  0.00     0.000 HD 
BRANCH  29  31
HETATM   31  C   UNL     1      -8.257   9.902  69.788  1.00  0.00    -0.180 C  
HETATM   32  C   UNL     1      -8.896   9.194  70.961  1.00  0.00    -0.267 C  
ENDBRANCH  29  31
ENDBRANCH  27  29
ENDBRANCH  19  27
ENDBRANCH  15  18
BRANCH  16  33
HETATM   33  C   UNL     1     -12.781  15.295  69.966  1.00  0.00    -0.171 C  
BRANCH  33  34
HETATM   34  C   UNL     1     -13.047  15.666  71.401  1.00  0.00    -0.559 C  
HETATM   35  C   UNL     1     -14.149  15.409  72.117  1.00  0.00    -0.651 C  
ENDBRANCH  33  34
ENDBRANCH  16  33
TORSDOF 9
ENDMDL
MODEL       38
REMARK 921   NORMALIZED FREE ENERGY PREDICTED BY IDOCK:   -5.44 KCAL/MOL
REMARK 922        TOTAL FREE ENERGY PREDICTED BY IDOCK:   -9.01 KCAL/MOL
REMARK 923 INTER-LIGAND FREE ENERGY PREDICTED BY IDOCK:   -7.88 KCAL/MOL
REMARK 924 INTRA-LIGAND FREE ENERGY PREDICTED BY IDOCK:   -1.13 KCAL/MOL
REMARK 927      BINDING AFFINITY PREDICTED BY RF-SCORE:    0.00 PKD
ROOT
HETATM    1  C   UNL     1      -7.904  12.877  68.272  1.00  0.00    -0.142 C  
HETATM    2  C   UNL     1      -8.731  11.611  68.494  1.00  0.00    -0.130 C  
HETATM    3  C   UNL     1     -10.142  12.027  68.315  1.00  0.00    -0.201 A  
HETATM    4  C   UNL     1     -11.317  11.753  68.958  1.00  0.00    -0.278 A  
HETATM    5  N   UNL     1     -12.324  12.304  68.197  1.00  0.00    -0.098 NA 
HETATM    6  H   UNL     1     -13.318  12.245  68.414  1.00  0.00     0.000 HD 
HETATM    7  C   UNL     1     -11.793  12.947  67.101  1.00  0.00    -0.362 A  
HETATM    8  C   UNL     1     -12.337  13.465  65.933  1.00  0.00    -0.493 A  
HETATM    9  C   UNL     1     -11.430  14.045  65.026  1.00  0.00    -0.344 A  
HETATM   10  C   UNL     1     -10.065  14.230  65.336  1.00  0.00    -0.379 A  
HETATM   11  C   UNL     1      -9.540  13.740  66.534  1.00  0.00    -0.295 A  
HETATM   12  C   UNL     1      -8.072  13.749  66.949  1.00  0.00     0.119 C  
HETATM   13  C   UNL     1     -10.432  12.992  67.320  1.00  0.00    -0.238 A  
HETATM   14  C   UNL     1      -7.325  15.110  67.236  1.00  0.00    -0.216 C  
HETATM   15  C   UNL     1      -7.124  15.326  68.787  1.00  0.00    -0.117 C  
HETATM   16  N   UNL     1      -6.498  12.749  68.650  1.00  0.00    -0.073 NA 
HETATM   17  C   UNL     1      -6.190  14.087  69.242  1.00  0.00    -0.105 C  
ENDROOT
BRANCH  15  18
HETATM   18  C   UNL     1      -8.612  15.786  69.324  1.00  0.00    -0.259 C  
HETATM   19  N   UNL     1      -9.330  16.938  68.965  1.00  0.00    -0.231 N  
HETATM   20  O   UNL     1      -9.195  14.970  70.037  1.00  0.00     0.062 OA 
BRANCH  19  21
HETATM   21  C   UNL     1     -10.768  17.033  69.419  1.00  0.00    -0.184 C  
BRANCH  21  22
HETATM   22  C   UNL     1     -11.771  15.885  69.146  1.00  0.00    -0.369 C  
HETATM   23  C   UNL     1     -12.510  15.089  70.260  1.00  0.00    -0.337 C  
BRANCH  23  24
HETATM   24  N   UNL     1     -13.233  15.706  71.393  1.00  0.00    -0.501 NA 
HETATM   25  C   UNL     1     -12.302  15.843  72.541  1.00  0.00    -0.483 C  
HETATM   26  C   UNL     1     -14.377  14.914  71.882  1.00  0.00    -0.576 C  
ENDBRANCH  23  24
ENDBRANCH  21  22
ENDBRANCH  19  21
BRANCH  19  27
HETATM   27  C   UNL     1      -8.949  17.726  67.887  1.00  0.00    -0.255 C  
HETATM   28  O   UNL     1      -9.390  17.596  66.750  1.00  0.00    -0.261 OA 
BRANCH  27  29
HETATM   29  N   UNL     1      -8.061  18.737  68.194  1.00  0.00    -0.290 N  
HETATM   30  H   UNL     1      -7.917  19.012  69.166  1.00  0.00     0.000 HD 
BRANCH  29  31
HETATM   31  C   UNL     1      -7.336  19.403  67.139  1.00  0.00    -0.212 C  
HETATM   32  C   UNL     1      -7.137  20.869  67.453  1.00  0.00    -0.418 C  
ENDBRANCH  29  31
ENDBRANCH  27  29
ENDBRANCH  19  27
ENDBRANCH  15  18
BRANCH  16  33
HETATM   33  C   UNL     1      -5.693  12.283  67.499  1.00  0.00    -0.128 C  
BRANCH  33  34
HETATM   34  C   UNL     1      -5.144  10.883  67.555  1.00  0.00    -0.037 C  
HETATM   35  C   UNL     1      -5.756   9.754  67.174  1.00  0.00    -0.047 C  
ENDBRANCH  33  34
ENDBRANCH  16  33
TORSDOF 9
ENDMDL
MODEL       39
REMARK 921   NORMALIZED FREE ENERGY PREDICTED BY IDOCK:   -5.43 KCAL/MOL
REMARK 922        TOTAL FREE ENERGY PREDICTED BY IDOCK:   -8.99 KCAL/MOL
REMARK 923 INTER-LIGAND FREE ENERGY PREDICTED BY IDOCK:   -7.04 KCAL/MOL
REMARK 924 INTRA-LIGAND FREE ENERGY PREDICTED BY IDOCK:   -1.95 KCAL/MOL
REMARK 927      BINDING AFFINITY PREDICTED BY RF-SCORE:    0.00 PKD
ROOT
HETATM    1  C   UNL     1      -9.023   7.144  71.613  1.00  0.00    -0.133 C  
HETATM    2  C   UNL     1      -8.131   8.385  71.665  1.00  0.00    -0.184 C  
HETATM    3  C   UNL     1      -8.730   9.341  70.704  1.00  0.00    -0.282 A  
HETATM    4  C   UNL     1      -8.234  10.202  69.766  1.00  0.00    -0.145 A  
HETATM    5  N   UNL     1      -9.296  10.957  69.319  1.00  0.00    -0.406 NA 
HETATM    6  H   UNL     1      -9.232  11.703  68.627  1.00  0.00     0.000 HD 
HETATM    7  C   UNL     1     -10.457  10.559  69.943  1.00  0.00    -0.164 A  
HETATM    8  C   UNL     1     -11.734  11.097  70.035  1.00  0.00    -0.438 A  
HETATM    9  C   UNL     1     -12.663  10.373  70.805  1.00  0.00    -0.460 A  
HETATM   10  C   UNL     1     -12.373   9.098  71.338  1.00  0.00    -0.404 A  
HETATM   11  C   UNL     1     -11.096   8.550  71.203  1.00  0.00    -0.312 A  
HETATM   12  C   UNL     1     -10.598   7.252  71.830  1.00  0.00    -0.238 C  
HETATM   13  C   UNL     1     -10.142   9.390  70.603  1.00  0.00    -0.356 A  
HETATM   14  C   UNL     1     -11.189   5.860  71.375  1.00  0.00    -0.285 C  
HETATM   15  C   UNL     1     -10.163   5.085  70.457  1.00  0.00    -0.316 C  
HETATM   16  N   UNL     1      -8.469   5.978  72.297  1.00  0.00    -0.117 NA 
HETATM   17  C   UNL     1      -8.880   4.846  71.411  1.00  0.00    -0.133 C  
ENDROOT
BRANCH  15  18
HETATM   18  C   UNL     1     -10.275   5.848  69.001  1.00  0.00    -0.203 C  
HETATM   19  N   UNL     1      -9.261   6.013  68.044  1.00  0.00    -0.116 N  
HETATM   20  O   UNL     1     -11.405   6.218  68.681  1.00  0.00    -0.337 OA 
BRANCH  19  21
HETATM   21  C   UNL     1      -9.660   6.554  66.691  1.00  0.00    -0.160 C  
BRANCH  21  22
HETATM   22  C   UNL     1      -8.607   7.148  65.723  1.00  0.00    -0.143 C  
HETATM   23  C   UNL     1      -8.668   8.592  65.146  1.00  0.00    -0.120 C  
BRANCH  23  24
HETATM   24  N   UNL     1      -8.889   9.810  65.954  1.00  0.00    -0.144 NA 
HETATM   25  C   UNL     1      -9.995  10.595  65.350  1.00  0.00    -0.281 C  
HETATM   26  C   UNL     1      -7.726  10.714  66.013  1.00  0.00    -0.151 C  
ENDBRANCH  23  24
ENDBRANCH  21  22
ENDBRANCH  19  21
BRANCH  19  27
HETATM   27  C   UNL     1      -8.066   5.310  68.121  1.00  0.00    -0.095 C  
HETATM   28  O   UNL     1      -7.061   5.721  68.691  1.00  0.00    -0.072 OA 
BRANCH  27  29
HETATM   29  N   UNL     1      -8.098   4.052  67.554  1.00  0.00    -0.091 N  
HETATM   30  H   UNL     1      -8.077   3.949  66.539  1.00  0.00     0.000 HD 
BRANCH  29  31
HETATM   31  C   UNL     1      -8.162   2.883  68.397  1.00  0.00    -0.064 C  
HETATM   32  C   UNL     1      -8.984   1.789  67.756  1.00  0.00    -0.170 C  
ENDBRANCH  29  31
ENDBRANCH  27  29
ENDBRANCH  19  27
ENDBRANCH  15  18
BRANCH  16  33
HETATM   33  C   UNL     1      -8.898   5.958  73.714  1.00  0.00    -0.124 C  
BRANCH  33  34
HETATM   34  C   UNL     1      -9.183   4.617  74.335  1.00  0.00    -0.120 C  
HETATM   35  C   UNL     1     -10.379   4.042  74.517  1.00  0.00    -0.271 C  
ENDBRANCH  33  34
ENDBRANCH  16  33
TORSDOF 9
ENDMDL
MODEL       40
REMARK 921   NORMALIZED FREE ENERGY PREDICTED BY IDOCK:   -5.40 KCAL/MOL
REMARK 922        TOTAL FREE ENERGY PREDICTED BY IDOCK:   -8.96 KCAL/MOL
REMARK 923 INTER-LIGAND FREE ENERGY PREDICTED BY IDOCK:   -7.58 KCAL/MOL
REMARK 924 INTRA-LIGAND FREE ENERGY PREDICTED BY IDOCK:   -1.38 KCAL/MOL
REMARK 927      BINDING AFFINITY PREDICTED BY RF-SCORE:    0.00 PKD
ROOT
HETATM    1  C   UNL     1     -10.594   7.428  70.298  1.00  0.00    -0.231 C  
HETATM    2  C   UNL     1     -11.400   6.427  69.470  1.00  0.00    -0.460 C  
HETATM    3  C   UNL     1     -10.692   6.330  68.171  1.00  0.00    -0.364 A  
HETATM    4  C   UNL     1     -11.082   6.266  66.863  1.00  0.00    -0.253 A  
HETATM    5  N   UNL     1      -9.951   6.000  66.124  1.00  0.00    -0.386 NA 
HETATM    6  H   UNL     1      -9.931   5.875  65.113  1.00  0.00     0.000 HD 
HETATM    7  C   UNL     1      -8.851   5.926  66.949  1.00  0.00    -0.115 A  
HETATM    8  C   UNL     1      -7.547   5.483  66.777  1.00  0.00    -0.088 A  
HETATM    9  C   UNL     1      -6.707   5.558  67.904  1.00  0.00    -0.055 A  
HETATM   10  C   UNL     1      -7.109   6.183  69.105  1.00  0.00    -0.070 A  
HETATM   11  C   UNL     1      -8.413   6.662  69.250  1.00  0.00    -0.124 A  
HETATM   12  C   UNL     1      -9.028   7.238  70.522  1.00  0.00    -0.154 C  
HETATM   13  C   UNL     1      -9.277   6.387  68.178  1.00  0.00    -0.111 A  
HETATM   14  C   UNL     1      -8.511   8.607  71.115  1.00  0.00    -0.211 C  
HETATM   15  C   UNL     1      -9.542   9.770  70.830  1.00  0.00    -0.010 C  
HETATM   16  N   UNL     1     -11.258   7.866  71.524  1.00  0.00    -0.244 NA 
HETATM   17  C   UNL     1     -10.883   9.311  71.608  1.00  0.00    -0.348 C  
ENDROOT
BRANCH  15  18
HETATM   18  C   UNL     1      -9.308  10.129  69.239  1.00  0.00    -0.215 C  
HETATM   19  N   UNL     1     -10.220  10.732  68.357  1.00  0.00    -0.168 N  
HETATM   20  O   UNL     1      -8.169   9.939  68.814  1.00  0.00    -0.106 OA 
BRANCH  19  21
HETATM   21  C   UNL     1      -9.702  11.161  67.005  1.00  0.00    -0.186 C  
BRANCH  21  22
HETATM   22  C   UNL     1      -9.436  12.653  66.686  1.00  0.00    -0.244 C  
HETATM   23  C   UNL     1      -8.758  13.650  67.671  1.00  0.00    -0.182 C  
BRANCH  23  24
HETATM   24  N   UNL     1      -7.497  13.384  68.397  1.00  0.00    -0.110 NA 
HETATM   25  C   UNL     1      -7.169  14.562  69.240  1.00  0.00    -0.131 C  
HETATM   26  C   UNL     1      -6.331  13.166  67.521  1.00  0.00    -0.135 C  
ENDBRANCH  23  24
ENDBRANCH  21  22
ENDBRANCH  19  21
BRANCH  19  27
HETATM   27  C   UNL     1     -11.382  11.338  68.815  1.00  0.00    -0.270 C  
HETATM   28  O   UNL     1     -12.513  10.920  68.586  1.00  0.00    -0.418 OA 
BRANCH  27  29
HETATM   29  N   UNL     1     -11.181  12.439  69.622  1.00  0.00    -0.484 N  
HETATM   30  H   UNL     1     -10.349  12.498  70.209  1.00  0.00     0.000 HD 
BRANCH  29  31
HETATM   31  C   UNL     1     -12.150  13.508  69.636  1.00  0.00    -0.306 C  
HETATM   32  C   UNL     1     -12.533  13.883  71.049  1.00  0.00    -0.452 C  
ENDBRANCH  29  31
ENDBRANCH  27  29
ENDBRANCH  19  27
ENDBRANCH  15  18
BRANCH  16  33
HETATM   33  C   UNL     1     -10.900   6.977  72.652  1.00  0.00    -0.270 C  
BRANCH  33  34
HETATM   34  C   UNL     1     -11.600   5.646  72.737  1.00  0.00    -0.289 C  
HETATM   35  C   UNL     1     -11.147   4.525  73.313  1.00  0.00    -0.389 C  
ENDBRANCH  33  34
ENDBRANCH  16  33
TORSDOF 9
ENDMDL
MODEL       41
REMARK 921   NORMALIZED FREE ENERGY PREDICTED BY IDOCK:   -5.40 KCAL/MOL
REMARK 922        TOTAL FREE ENERGY PREDICTED BY IDOCK:   -8.95 KCAL/MOL
REMARK 923 INTER-LIGAND FREE ENERGY PREDICTED BY IDOCK:   -7.06 KCAL/MOL
REMARK 924 INTRA-LIGAND FREE ENERGY PREDICTED BY IDOCK:   -1.89 KCAL/MOL
REMARK 927      BINDING AFFINITY PREDICTED BY RF-SCORE:    0.00 PKD
ROOT
HETATM    1  C   UNL     1      -8.997   5.873  68.960  1.00  0.00    -0.122 C  
HETATM    2  C   UNL     1      -8.206   5.915  70.268  1.00  0.00    -0.114 C  
HETATM    3  C   UNL     1      -8.738   7.081  71.012  1.00  0.00    -0.139 A  
HETATM    4  C   UNL     1      -8.184   8.080  71.762  1.00  0.00    -0.122 A  
HETATM    5  N   UNL     1      -9.227   8.764  72.345  1.00  0.00    -0.375 NA 
HETATM    6  H   UNL     1      -9.124   9.554  72.981  1.00  0.00     0.000 HD 
HETATM    7  C   UNL     1     -10.430   8.226  71.946  1.00  0.00    -0.274 A  
HETATM    8  C   UNL     1     -11.741   8.374  72.377  1.00  0.00    -0.452 A  
HETATM    9  C   UNL     1     -12.712   7.612  71.699  1.00  0.00    -0.368 A  
HETATM   10  C   UNL     1     -12.408   6.852  70.549  1.00  0.00    -0.177 A  
HETATM   11  C   UNL     1     -11.089   6.745  70.101  1.00  0.00    -0.365 A  
HETATM   12  C   UNL     1     -10.590   5.863  68.961  1.00  0.00    -0.360 C  
HETATM   13  C   UNL     1     -10.125   7.355  70.921  1.00  0.00    -0.188 A  
HETATM   14  C   UNL     1     -11.021   6.156  67.470  1.00  0.00    -0.404 C  
HETATM   15  C   UNL     1      -9.834   6.809  66.659  1.00  0.00    -0.214 C  
HETATM   16  N   UNL     1      -8.459   4.949  67.963  1.00  0.00    -0.103 NA 
HETATM   17  C   UNL     1      -8.673   5.684  66.679  1.00  0.00    -0.118 C  
ENDROOT
BRANCH  15  18
HETATM   18  C   UNL     1      -9.807   8.372  67.180  1.00  0.00    -0.215 C  
HETATM   19  N   UNL     1      -8.688   9.212  67.301  1.00  0.00    -0.117 N  
HETATM   20  O   UNL     1     -10.907   8.883  67.385  1.00  0.00    -0.218 OA 
BRANCH  19  21
HETATM   21  C   UNL     1      -8.941  10.673  67.591  1.00  0.00    -0.139 C  
BRANCH  21  22
HETATM   22  C   UNL     1      -9.002  11.717  66.448  1.00  0.00    -0.201 C  
HETATM   23  C   UNL     1     -10.237  11.930  65.525  1.00  0.00    -0.254 C  
BRANCH  23  24
HETATM   24  N   UNL     1     -11.626  12.095  66.006  1.00  0.00    -0.420 NA 
HETATM   25  C   UNL     1     -12.400  12.854  64.992  1.00  0.00    -0.485 C  
HETATM   26  C   UNL     1     -11.741  12.853  67.266  1.00  0.00    -0.373 C  
ENDBRANCH  23  24
ENDBRANCH  21  22
ENDBRANCH  19  21
BRANCH  19  27
HETATM   27  C   UNL     1      -7.463   8.877  66.738  1.00  0.00    -0.083 C  
HETATM   28  O   UNL     1      -7.211   8.958  65.540  1.00  0.00    -0.083 OA 
BRANCH  27  29
HETATM   29  N   UNL     1      -6.495   8.495  67.644  1.00  0.00    -0.057 N  
HETATM   30  H   UNL     1      -6.444   7.526  67.959  1.00  0.00     0.000 HD 
BRANCH  29  31
HETATM   31  C   UNL     1      -5.556   9.468  68.147  1.00  0.00    -0.037 C  
HETATM   32  C   UNL     1      -5.719   9.670  69.636  1.00  0.00    -0.033 C  
ENDBRANCH  29  31
ENDBRANCH  27  29
ENDBRANCH  19  27
ENDBRANCH  15  18
BRANCH  16  33
HETATM   33  C   UNL     1      -9.067   3.609  68.119  1.00  0.00    -0.149 C  
BRANCH  33  34
HETATM   34  C   UNL     1      -8.583   2.754  69.260  1.00  0.00    -0.114 C  
HETATM   35  C   UNL     1      -9.297   2.303  70.299  1.00  0.00    -0.184 C  
ENDBRANCH  33  34
ENDBRANCH  16  33
TORSDOF 9
ENDMDL
MODEL       42
REMARK 921   NORMALIZED FREE ENERGY PREDICTED BY IDOCK:   -5.38 KCAL/MOL
REMARK 922        TOTAL FREE ENERGY PREDICTED BY IDOCK:   -8.92 KCAL/MOL
REMARK 923 INTER-LIGAND FREE ENERGY PREDICTED BY IDOCK:   -7.18 KCAL/MOL
REMARK 924 INTRA-LIGAND FREE ENERGY PREDICTED BY IDOCK:   -1.74 KCAL/MOL
REMARK 927      BINDING AFFINITY PREDICTED BY RF-SCORE:    0.00 PKD
ROOT
HETATM    1  C   UNL     1     -10.770  10.015  69.346  1.00  0.00    -0.233 C  
HETATM    2  C   UNL     1     -11.880  10.307  70.356  1.00  0.00    -0.396 C  
HETATM    3  C   UNL     1     -11.844   9.179  71.317  1.00  0.00    -0.396 A  
HETATM    4  C   UNL     1     -12.789   8.417  71.945  1.00  0.00    -0.353 A  
HETATM    5  N   UNL     1     -12.125   7.640  72.867  1.00  0.00    -0.568 NA 
HETATM    6  H   UNL     1     -12.570   6.981  73.504  1.00  0.00     0.000 HD 
HETATM    7  C   UNL     1     -10.770   7.881  72.803  1.00  0.00    -0.371 A  
HETATM    8  C   UNL     1      -9.695   7.553  73.618  1.00  0.00    -0.341 A  
HETATM    9  C   UNL     1      -8.432   8.017  73.203  1.00  0.00    -0.267 A  
HETATM   10  C   UNL     1      -8.232   8.650  71.957  1.00  0.00    -0.149 A  
HETATM   11  C   UNL     1      -9.319   8.937  71.128  1.00  0.00    -0.326 A  
HETATM   12  C   UNL     1      -9.277   9.727  69.823  1.00  0.00    -0.248 C  
HETATM   13  C   UNL     1     -10.581   8.641  71.668  1.00  0.00    -0.374 A  
HETATM   14  C   UNL     1      -8.528   9.151  68.559  1.00  0.00    -0.128 C  
HETATM   15  C   UNL     1      -9.558   8.623  67.484  1.00  0.00    -0.196 C  
HETATM   16  N   UNL     1     -10.795  10.873  68.163  1.00  0.00    -0.214 NA 
HETATM   17  C   UNL     1     -10.402   9.937  67.065  1.00  0.00    -0.239 C  
ENDROOT
BRANCH  15  18
HETATM   18  C   UNL     1     -10.071   7.183  68.098  1.00  0.00    -0.169 C  
HETATM   19  N   UNL     1      -9.289   6.057  68.401  1.00  0.00    -0.120 N  
HETATM   20  O   UNL     1     -11.258   7.135  68.420  1.00  0.00     0.010 OA 
BRANCH  19  21
HETATM   21  C   UNL     1      -9.951   4.931  69.159  1.00  0.00    -0.182 C  
BRANCH  21  22
HETATM   22  C   UNL     1      -9.449   3.471  69.025  1.00  0.00    -0.213 C  
HETATM   23  C   UNL     1      -9.346   2.704  67.675  1.00  0.00    -0.163 C  
BRANCH  23  24
HETATM   24  N   UNL     1      -8.704   3.237  66.454  1.00  0.00    -0.122 NA 
HETATM   25  C   UNL     1      -9.754   3.776  65.553  1.00  0.00    -0.151 C  
HETATM   26  C   UNL     1      -7.967   2.228  65.671  1.00  0.00    -0.082 C  
ENDBRANCH  23  24
ENDBRANCH  21  22
ENDBRANCH  19  21
BRANCH  19  27
HETATM   27  C   UNL     1      -7.902   6.126  68.445  1.00  0.00    -0.104 C  
HETATM   28  O   UNL     1      -7.255   6.323  69.468  1.00  0.00    -0.073 OA 
BRANCH  27  29
HETATM   29  N   UNL     1      -7.273   5.889  67.239  1.00  0.00    -0.074 N  
HETATM   30  H   UNL     1      -7.657   5.204  66.588  1.00  0.00     0.000 HD 
BRANCH  29  31
HETATM   31  C   UNL     1      -6.072   6.613  66.901  1.00  0.00    -0.035 C  
HETATM   32  C   UNL     1      -6.338   7.648  65.832  1.00  0.00    -0.042 C  
ENDBRANCH  29  31
ENDBRANCH  27  29
ENDBRANCH  19  27
ENDBRANCH  15  18
BRANCH  16  33
HETATM   33  C   UNL     1      -9.975  12.084  68.385  1.00  0.00    -0.208 C  
BRANCH  33  34
HETATM   34  C   UNL     1     -10.693  13.350  68.768  1.00  0.00    -0.257 C  
HETATM   35  C   UNL     1     -11.952  13.694  68.466  1.00  0.00    -0.396 C  
ENDBRANCH  33  34
ENDBRANCH  16  33
TORSDOF 9
ENDMDL
MODEL       43
REMARK 921   NORMALIZED FREE ENERGY PREDICTED BY IDOCK:   -5.36 KCAL/MOL
REMARK 922        TOTAL FREE ENERGY PREDICTED BY IDOCK:   -8.89 KCAL/MOL
REMARK 923 INTER-LIGAND FREE ENERGY PREDICTED BY IDOCK:   -7.27 KCAL/MOL
REMARK 924 INTRA-LIGAND FREE ENERGY PREDICTED BY IDOCK:   -1.62 KCAL/MOL
REMARK 927      BINDING AFFINITY PREDICTED BY RF-SCORE:    0.00 PKD
ROOT
HETATM    1  C   UNL     1      -8.369   7.710  67.380  1.00  0.00    -0.116 C  
HETATM    2  C   UNL     1      -7.307   7.163  68.334  1.00  0.00    -0.100 C  
HETATM    3  C   UNL     1      -7.443   7.962  69.574  1.00  0.00    -0.093 A  
HETATM    4  C   UNL     1      -6.567   8.530  70.456  1.00  0.00    -0.037 A  
HETATM    5  N   UNL     1      -7.315   8.991  71.517  1.00  0.00    -0.293 NA 
HETATM    6  H   UNL     1      -6.933   9.447  72.345  1.00  0.00     0.000 HD 
HETATM    7  C   UNL     1      -8.652   8.748  71.297  1.00  0.00    -0.203 A  
HETATM    8  C   UNL     1      -9.784   8.801  72.099  1.00  0.00    -0.335 A  
HETATM    9  C   UNL     1     -11.001   8.450  71.485  1.00  0.00    -0.326 A  
HETATM   10  C   UNL     1     -11.104   8.201  70.099  1.00  0.00    -0.187 A  
HETATM   11  C   UNL     1      -9.962   8.192  69.296  1.00  0.00    -0.188 A  
HETATM   12  C   UNL     1      -9.897   7.814  67.820  1.00  0.00    -0.200 C  
HETATM   13  C   UNL     1      -8.745   8.347  69.981  1.00  0.00    -0.133 A  
HETATM   14  C   UNL     1     -10.596   8.715  66.728  1.00  0.00    -0.223 C  
HETATM   15  C   UNL     1      -9.529   9.555  65.922  1.00  0.00    -0.307 C  
HETATM   16  N   UNL     1      -8.243   7.233  66.004  1.00  0.00    -0.130 NA 
HETATM   17  C   UNL     1      -8.610   8.439  65.199  1.00  0.00    -0.132 C  
ENDROOT
BRANCH  15  18
HETATM   18  C   UNL     1      -9.110  10.767  66.957  1.00  0.00    -0.144 C  
HETATM   19  N   UNL     1      -9.930  11.802  67.435  1.00  0.00    -0.184 N  
HETATM   20  O   UNL     1      -7.981  10.686  67.440  1.00  0.00    -0.109 OA 
BRANCH  19  21
HETATM   21  C   UNL     1      -9.384  12.667  68.546  1.00  0.00    -0.080 C  
BRANCH  21  22
HETATM   22  C   UNL     1      -8.728  14.037  68.246  1.00  0.00    -0.182 C  
HETATM   23  C   UNL     1      -9.115  14.946  67.043  1.00  0.00    -0.237 C  
BRANCH  23  24
HETATM   24  N   UNL     1     -10.500  15.317  66.683  1.00  0.00    -0.284 NA 
HETATM   25  C   UNL     1     -10.468  16.215  65.501  1.00  0.00    -0.386 C  
HETATM   26  C   UNL     1     -11.220  16.052  67.739  1.00  0.00    -0.231 C  
ENDBRANCH  23  24
ENDBRANCH  21  22
ENDBRANCH  19  21
BRANCH  19  27
HETATM   27  C   UNL     1     -11.308  11.774  67.268  1.00  0.00    -0.315 C  
HETATM   28  O   UNL     1     -12.066  11.067  67.925  1.00  0.00    -0.600 OA 
BRANCH  27  29
HETATM   29  N   UNL     1     -11.796  12.663  66.332  1.00  0.00    -0.409 N  
HETATM   30  H   UNL     1     -12.024  13.618  66.605  1.00  0.00     0.000 HD 
BRANCH  29  31
HETATM   31  C   UNL     1     -11.982  12.238  64.966  1.00  0.00    -0.354 C  
HETATM   32  C   UNL     1     -10.821  12.662  64.097  1.00  0.00    -0.431 C  
ENDBRANCH  29  31
ENDBRANCH  27  29
ENDBRANCH  19  27
ENDBRANCH  15  18
BRANCH  16  33
HETATM   33  C   UNL     1      -9.024   5.992  65.812  1.00  0.00    -0.104 C  
BRANCH  33  34
HETATM   34  C   UNL     1      -8.301   4.682  65.980  1.00  0.00    -0.114 C  
HETATM   35  C   UNL     1      -8.391   3.828  67.008  1.00  0.00    -0.099 C  
ENDBRANCH  33  34
ENDBRANCH  16  33
TORSDOF 9
ENDMDL
MODEL       44
REMARK 921   NORMALIZED FREE ENERGY PREDICTED BY IDOCK:   -5.31 KCAL/MOL
REMARK 922        TOTAL FREE ENERGY PREDICTED BY IDOCK:   -8.81 KCAL/MOL
REMARK 923 INTER-LIGAND FREE ENERGY PREDICTED BY IDOCK:   -8.12 KCAL/MOL
REMARK 924 INTRA-LIGAND FREE ENERGY PREDICTED BY IDOCK:   -0.69 KCAL/MOL
REMARK 927      BINDING AFFINITY PREDICTED BY RF-SCORE:    0.00 PKD
ROOT
HETATM    1  C   UNL     1     -10.360  16.033  66.770  1.00  0.00    -0.300 C  
HETATM    2  C   UNL     1     -11.473  15.430  65.912  1.00  0.00    -0.014 C  
HETATM    3  C   UNL     1     -11.553  14.007  66.315  1.00  0.00    -0.379 A  
HETATM    4  C   UNL     1     -11.713  12.824  65.649  1.00  0.00    -0.399 A  
HETATM    5  N   UNL     1     -11.894  11.850  66.606  1.00  0.00    -0.590 NA 
HETATM    6  H   UNL     1     -12.059  10.864  66.411  1.00  0.00     0.000 HD 
HETATM    7  C   UNL     1     -11.818  12.403  67.865  1.00  0.00    -0.308 A  
HETATM    8  C   UNL     1     -12.131  11.944  69.138  1.00  0.00    -0.261 A  
HETATM    9  C   UNL     1     -11.921  12.847  70.197  1.00  0.00    -0.373 A  
HETATM   10  C   UNL     1     -11.290  14.097  70.011  1.00  0.00    -0.195 A  
HETATM   11  C   UNL     1     -10.942  14.528  68.729  1.00  0.00    -0.262 A  
HETATM   12  C   UNL     1     -10.377  15.895  68.357  1.00  0.00    -0.240 C  
HETATM   13  C   UNL     1     -11.350  13.687  67.680  1.00  0.00    -0.328 A  
HETATM   14  C   UNL     1      -8.938  16.329  68.840  1.00  0.00    -0.248 C  
HETATM   15  C   UNL     1      -7.902  16.266  67.650  1.00  0.00    -0.162 C  
HETATM   16  N   UNL     1      -9.940  17.370  66.356  1.00  0.00    -0.305 NA 
HETATM   17  C   UNL     1      -8.462  17.339  66.579  1.00  0.00    -0.271 C  
ENDROOT
BRANCH  15  18
HETATM   18  C   UNL     1      -7.589  14.658  67.477  1.00  0.00    -0.194 C  
HETATM   19  N   UNL     1      -6.638  13.893  68.174  1.00  0.00    -0.110 N  
HETATM   20  O   UNL     1      -8.350  14.046  66.727  1.00  0.00    -0.088 OA 
BRANCH  19  21
HETATM   21  C   UNL     1      -6.687  12.394  68.000  1.00  0.00    -0.081 C  
BRANCH  21  22
HETATM   22  C   UNL     1      -7.814  11.550  68.646  1.00  0.00    -0.137 C  
HETATM   23  C   UNL     1      -8.861  10.728  67.839  1.00  0.00    -0.132 C  
BRANCH  23  24
HETATM   24  N   UNL     1      -8.530   9.794  66.742  1.00  0.00    -0.124 NA 
HETATM   25  C   UNL     1      -8.526  10.539  65.458  1.00  0.00    -0.173 C  
HETATM   26  C   UNL     1      -9.496   8.692  66.576  1.00  0.00    -0.216 C  
ENDBRANCH  23  24
ENDBRANCH  21  22
ENDBRANCH  19  21
BRANCH  19  27
HETATM   27  C   UNL     1      -5.998  14.384  69.304  1.00  0.00    -0.097 C  
HETATM   28  O   UNL     1      -5.171  15.289  69.289  1.00  0.00    -0.095 OA 
BRANCH  27  29
HETATM   29  N   UNL     1      -6.409  13.815  70.493  1.00  0.00    -0.405 N  
HETATM   30  H   UNL     1      -7.402  13.760  70.717  1.00  0.00     0.000 HD 
BRANCH  29  31
HETATM   31  C   UNL     1      -5.430  13.298  71.419  1.00  0.00    -0.160 C  
HETATM   32  C   UNL     1      -5.462  14.053  72.728  1.00  0.00    -0.157 C  
ENDBRANCH  29  31
ENDBRANCH  27  29
ENDBRANCH  19  27
ENDBRANCH  15  18
BRANCH  16  33
HETATM   33  C   UNL     1     -10.738  18.402  67.054  1.00  0.00    -0.293 C  
BRANCH  33  34
HETATM   34  C   UNL     1      -9.991  19.527  67.719  1.00  0.00    -0.494 C  
HETATM   35  C   UNL     1      -9.648  20.706  67.182  1.00  0.00    -0.534 C  
ENDBRANCH  33  34
ENDBRANCH  16  33
TORSDOF 9
ENDMDL
MODEL       45
REMARK 921   NORMALIZED FREE ENERGY PREDICTED BY IDOCK:   -5.29 KCAL/MOL
REMARK 922        TOTAL FREE ENERGY PREDICTED BY IDOCK:   -8.79 KCAL/MOL
REMARK 923 INTER-LIGAND FREE ENERGY PREDICTED BY IDOCK:   -7.70 KCAL/MOL
REMARK 924 INTRA-LIGAND FREE ENERGY PREDICTED BY IDOCK:   -1.08 KCAL/MOL
REMARK 927      BINDING AFFINITY PREDICTED BY RF-SCORE:    0.00 PKD
ROOT
HETATM    1  C   UNL     1      -9.083  12.129  67.357  1.00  0.00    -0.181 C  
HETATM    2  C   UNL     1      -7.564  12.264  67.261  1.00  0.00    -0.152 C  
HETATM    3  C   UNL     1      -7.113  11.094  66.473  1.00  0.00    -0.124 A  
HETATM    4  C   UNL     1      -6.067  10.218  66.559  1.00  0.00    -0.071 A  
HETATM    5  N   UNL     1      -6.093   9.453  65.414  1.00  0.00    -0.063 NA 
HETATM    6  H   UNL     1      -5.420   8.724  65.184  1.00  0.00     0.000 HD 
HETATM    7  C   UNL     1      -7.161   9.818  64.624  1.00  0.00    -0.127 A  
HETATM    8  C   UNL     1      -7.526   9.543  63.313  1.00  0.00    -0.111 A  
HETATM    9  C   UNL     1      -8.717  10.139  62.858  1.00  0.00    -0.209 A  
HETATM   10  C   UNL     1      -9.580  10.855  63.717  1.00  0.00    -0.331 A  
HETATM   11  C   UNL     1      -9.219  11.089  65.046  1.00  0.00    -0.219 A  
HETATM   12  C   UNL     1      -9.978  11.949  66.051  1.00  0.00    -0.258 C  
HETATM   13  C   UNL     1      -7.933  10.652  65.405  1.00  0.00    -0.086 A  
HETATM   14  C   UNL     1     -11.405  11.512  66.567  1.00  0.00    -0.263 C  
HETATM   15  C   UNL     1     -11.324  10.954  68.042  1.00  0.00    -0.382 C  
HETATM   16  N   UNL     1      -9.709  13.044  68.309  1.00  0.00    -0.226 NA 
HETATM   17  C   UNL     1     -10.792  12.207  68.912  1.00  0.00    -0.200 C  
ENDROOT
BRANCH  15  18
HETATM   18  C   UNL     1     -10.694   9.442  67.863  1.00  0.00    -0.210 C  
HETATM   19  N   UNL     1     -10.182   8.606  68.868  1.00  0.00    -0.204 N  
HETATM   20  O   UNL     1     -10.783   8.960  66.734  1.00  0.00    -0.198 OA 
BRANCH  19  21
HETATM   21  C   UNL     1      -9.863   7.178  68.493  1.00  0.00    -0.153 C  
BRANCH  21  22
HETATM   22  C   UNL     1     -10.962   6.226  67.960  1.00  0.00    -0.418 C  
HETATM   23  C   UNL     1     -10.869   5.451  66.613  1.00  0.00    -0.141 C  
BRANCH  23  24
HETATM   24  N   UNL     1      -9.701   4.650  66.186  1.00  0.00    -0.181 NA 
HETATM   25  C   UNL     1     -10.007   4.012  64.880  1.00  0.00    -0.205 C  
HETATM   26  C   UNL     1      -9.352   3.554  67.108  1.00  0.00    -0.200 C  
ENDBRANCH  23  24
ENDBRANCH  21  22
ENDBRANCH  19  21
BRANCH  19  27
HETATM   27  C   UNL     1     -10.384   8.880  70.215  1.00  0.00    -0.206 C  
HETATM   28  O   UNL     1      -9.515   9.308  70.967  1.00  0.00    -0.266 OA 
BRANCH  27  29
HETATM   29  N   UNL     1     -11.679   8.696  70.655  1.00  0.00    -0.438 N  
HETATM   30  H   UNL     1     -12.197   7.860  70.382  1.00  0.00     0.000 HD 
BRANCH  29  31
HETATM   31  C   UNL     1     -12.299   9.686  71.501  1.00  0.00    -0.390 C  
HETATM   32  C   UNL     1     -13.648   9.217  71.995  1.00  0.00    -0.520 C  
ENDBRANCH  29  31
ENDBRANCH  27  29
ENDBRANCH  19  27
ENDBRANCH  15  18
BRANCH  16  33
HETATM   33  C   UNL     1     -10.084  14.310  67.641  1.00  0.00    -0.229 C  
BRANCH  33  34
HETATM   34  C   UNL     1     -11.396  14.938  68.026  1.00  0.00    -0.337 C  
HETATM   35  C   UNL     1     -11.667  15.642  69.133  1.00  0.00    -0.402 C  
ENDBRANCH  33  34
ENDBRANCH  16  33
TORSDOF 9
ENDMDL
MODEL       46
REMARK 921   NORMALIZED FREE ENERGY PREDICTED BY IDOCK:   -5.29 KCAL/MOL
REMARK 922        TOTAL FREE ENERGY PREDICTED BY IDOCK:   -8.78 KCAL/MOL
REMARK 923 INTER-LIGAND FREE ENERGY PREDICTED BY IDOCK:   -7.41 KCAL/MOL
REMARK 924 INTRA-LIGAND FREE ENERGY PREDICTED BY IDOCK:   -1.37 KCAL/MOL
REMARK 927      BINDING AFFINITY PREDICTED BY RF-SCORE:    0.00 PKD
ROOT
HETATM    1  C   UNL     1     -11.679  14.450  68.404  1.00  0.00    -0.332 C  
HETATM    2  C   UNL     1     -12.761  14.113  67.378  1.00  0.00     0.648 C  
HETATM    3  C   UNL     1     -12.048  13.967  66.087  1.00  0.00    -0.478 A  
HETATM    4  C   UNL     1     -12.297  14.350  64.799  1.00  0.00    -0.414 A  
HETATM    5  N   UNL     1     -11.336  13.753  64.014  1.00  0.00    -0.600 NA 
HETATM    6  H   UNL     1     -11.276  13.838  63.000  1.00  0.00     0.000 HD 
HETATM    7  C   UNL     1     -10.468  13.025  64.797  1.00  0.00    -0.363 A  
HETATM    8  C   UNL     1      -9.485  12.083  64.523  1.00  0.00     0.116 A  
HETATM    9  C   UNL     1      -8.812  11.543  65.635  1.00  0.00    -0.016 A  
HETATM   10  C   UNL     1      -9.009  12.027  66.947  1.00  0.00    -0.199 A  
HETATM   11  C   UNL     1      -9.973  13.005  67.202  1.00  0.00    -0.235 A  
HETATM   12  C   UNL     1     -10.388  13.530  68.572  1.00  0.00    -0.242 C  
HETATM   13  C   UNL     1     -10.761  13.373  66.099  1.00  0.00    -0.288 A  
HETATM   14  C   UNL     1      -9.378  14.366  69.452  1.00  0.00     0.272 C  
HETATM   15  C   UNL     1      -9.755  15.900  69.437  1.00  0.00    -0.268 C  
HETATM   16  N   UNL     1     -12.194  14.886  69.700  1.00  0.00    -0.287 NA 
HETATM   17  C   UNL     1     -11.228  15.954  70.100  1.00  0.00    -0.364 C  
ENDROOT
BRANCH  15  18
HETATM   18  C   UNL     1      -9.233  16.425  67.965  1.00  0.00    -0.204 C  
HETATM   19  N   UNL     1      -7.907  16.642  67.556  1.00  0.00    -0.167 N  
HETATM   20  O   UNL     1     -10.104  16.536  67.102  1.00  0.00    -0.261 OA 
BRANCH  19  21
HETATM   21  C   UNL     1      -7.665  16.912  66.090  1.00  0.00    -0.224 C  
BRANCH  21  22
HETATM   22  C   UNL     1      -6.677  18.013  65.632  1.00  0.00    -0.229 C  
HETATM   23  C   UNL     1      -7.033  19.526  65.547  1.00  0.00    -0.273 C  
BRANCH  23  24
HETATM   24  N   UNL     1      -7.684  20.296  66.629  1.00  0.00    -0.283 NA 
HETATM   25  C   UNL     1      -7.026  19.968  67.919  1.00  0.00    -0.275 C  
HETATM   26  C   UNL     1      -9.116  19.991  66.807  1.00  0.00    -0.363 C  
ENDBRANCH  23  24
ENDBRANCH  21  22
ENDBRANCH  19  21
BRANCH  19  27
HETATM   27  C   UNL     1      -6.832  16.186  68.307  1.00  0.00    -0.124 C  
HETATM   28  O   UNL     1      -6.419  16.735  69.323  1.00  0.00    -0.194 OA 
BRANCH  27  29
HETATM   29  N   UNL     1      -6.275  15.004  67.861  1.00  0.00    -0.149 N  
HETATM   30  H   UNL     1      -6.455  14.682  66.910  1.00  0.00     0.000 HD 
BRANCH  29  31
HETATM   31  C   UNL     1      -5.439  14.225  68.741  1.00  0.00    -0.087 C  
HETATM   32  C   UNL     1      -6.022  12.851  68.977  1.00  0.00    -0.084 C  
ENDBRANCH  29  31
ENDBRANCH  27  29
ENDBRANCH  19  27
ENDBRANCH  15  18
BRANCH  16  33
HETATM   33  C   UNL     1     -12.379  13.726  70.600  1.00  0.00    -0.375 C  
BRANCH  33  34
HETATM   34  C   UNL     1     -13.375  13.866  71.720  1.00  0.00    -0.461 C  
HETATM   35  C   UNL     1     -13.216  14.530  72.872  1.00  0.00    -0.612 C  
ENDBRANCH  33  34
ENDBRANCH  16  33
TORSDOF 9
ENDMDL
MODEL       47
REMARK 921   NORMALIZED FREE ENERGY PREDICTED BY IDOCK:   -5.28 KCAL/MOL
REMARK 922        TOTAL FREE ENERGY PREDICTED BY IDOCK:   -8.77 KCAL/MOL
REMARK 923 INTER-LIGAND FREE ENERGY PREDICTED BY IDOCK:   -7.75 KCAL/MOL
REMARK 924 INTRA-LIGAND FREE ENERGY PREDICTED BY IDOCK:   -1.02 KCAL/MOL
REMARK 927      BINDING AFFINITY PREDICTED BY RF-SCORE:    0.00 PKD
ROOT
HETATM    1  C   UNL     1      -8.984  12.049  67.538  1.00  0.00    -0.174 C  
HETATM    2  C   UNL     1      -7.952  12.482  68.579  1.00  0.00    -0.097 C  
HETATM    3  C   UNL     1      -8.306  13.878  68.927  1.00  0.00     0.074 A  
HETATM    4  C   UNL     1      -7.598  15.025  69.151  1.00  0.00    -0.176 A  
HETATM    5  N   UNL     1      -8.494  15.961  69.618  1.00  0.00    -0.077 NA 
HETATM    6  H   UNL     1      -8.254  16.913  69.893  1.00  0.00     0.000 HD 
HETATM    7  C   UNL     1      -9.762  15.424  69.661  1.00  0.00    -0.246 A  
HETATM    8  C   UNL     1     -10.960  15.831  70.232  1.00  0.00    -0.368 A  
HETATM    9  C   UNL     1     -12.058  14.967  70.060  1.00  0.00    -0.382 A  
HETATM   10  C   UNL     1     -11.999  13.825  69.233  1.00  0.00    -0.399 A  
HETATM   11  C   UNL     1     -10.796  13.450  68.631  1.00  0.00    -0.287 A  
HETATM   12  C   UNL     1     -10.546  12.181  67.822  1.00  0.00    -0.229 C  
HETATM   13  C   UNL     1      -9.679  14.223  68.988  1.00  0.00    -0.040 A  
HETATM   14  C   UNL     1     -11.255  11.963  66.428  1.00  0.00    -0.387 C  
HETATM   15  C   UNL     1     -10.238  12.179  65.239  1.00  0.00    -0.304 C  
HETATM   16  N   UNL     1      -8.669  10.788  66.869  1.00  0.00    -0.139 NA 
HETATM   17  C   UNL     1      -9.117  11.036  65.464  1.00  0.00    -0.207 C  
ENDROOT
BRANCH  15  18
HETATM   18  C   UNL     1     -10.080  13.816  65.141  1.00  0.00    -0.289 C  
HETATM   19  N   UNL     1     -11.033  14.739  64.678  1.00  0.00    -0.354 N  
HETATM   20  O   UNL     1      -9.049  14.281  65.626  1.00  0.00     0.186 OA 
BRANCH  19  21
HETATM   21  C   UNL     1     -10.742  16.206  64.889  1.00  0.00    -0.274 C  
BRANCH  21  22
HETATM   22  C   UNL     1     -10.677  16.813  66.312  1.00  0.00    -0.106 C  
HETATM   23  C   UNL     1      -9.673  17.921  66.744  1.00  0.00    -0.314 C  
BRANCH  23  24
HETATM   24  N   UNL     1      -9.432  19.173  65.994  1.00  0.00    -0.454 NA 
HETATM   25  C   UNL     1      -8.554  20.057  66.802  1.00  0.00    -0.331 C  
HETATM   26  C   UNL     1     -10.652  19.950  65.710  1.00  0.00    -0.385 C  
ENDBRANCH  23  24
ENDBRANCH  21  22
ENDBRANCH  19  21
BRANCH  19  27
HETATM   27  C   UNL     1     -12.357  14.375  64.472  1.00  0.00    -0.418 C  
HETATM   28  O   UNL     1     -13.246  14.513  65.306  1.00  0.00    -0.512 OA 
BRANCH  27  29
HETATM   29  N   UNL     1     -12.634  13.891  63.209  1.00  0.00    -1.006 N  
HETATM   30  H   UNL     1     -13.006  14.515  62.493  1.00  0.00     0.000 HD 
BRANCH  29  31
HETATM   31  C   UNL     1     -12.398  12.501  62.904  1.00  0.00     0.331 C  
HETATM   32  C   UNL     1     -13.352  11.604  63.658  1.00  0.00     0.459 C  
ENDBRANCH  29  31
ENDBRANCH  27  29
ENDBRANCH  19  27
ENDBRANCH  15  18
BRANCH  16  33
HETATM   33  C   UNL     1      -9.259   9.650  67.607  1.00  0.00    -0.130 C  
BRANCH  33  34
HETATM   34  C   UNL     1      -9.821   8.512  66.798  1.00  0.00    -0.327 C  
HETATM   35  C   UNL     1     -10.458   7.426  67.254  1.00  0.00    -0.385 C  
ENDBRANCH  33  34
ENDBRANCH  16  33
TORSDOF 9
ENDMDL
MODEL       48
REMARK 921   NORMALIZED FREE ENERGY PREDICTED BY IDOCK:   -5.28 KCAL/MOL
REMARK 922        TOTAL FREE ENERGY PREDICTED BY IDOCK:   -8.77 KCAL/MOL
REMARK 923 INTER-LIGAND FREE ENERGY PREDICTED BY IDOCK:   -7.21 KCAL/MOL
REMARK 924 INTRA-LIGAND FREE ENERGY PREDICTED BY IDOCK:   -1.56 KCAL/MOL
REMARK 927      BINDING AFFINITY PREDICTED BY RF-SCORE:    0.00 PKD
ROOT
HETATM    1  C   UNL     1     -10.217  11.221  68.251  1.00  0.00    -0.186 C  
HETATM    2  C   UNL     1     -11.591  11.891  68.223  1.00  0.00    -0.390 C  
HETATM    3  C   UNL     1     -11.596  12.726  66.999  1.00  0.00    -0.422 A  
HETATM    4  C   UNL     1     -12.042  13.981  66.690  1.00  0.00    -0.456 A  
HETATM    5  N   UNL     1     -11.922  14.120  65.325  1.00  0.00    -0.365 NA 
HETATM    6  H   UNL     1     -12.196  14.948  64.797  1.00  0.00     0.000 HD 
HETATM    7  C   UNL     1     -11.377  12.981  64.778  1.00  0.00    -0.317 A  
HETATM    8  C   UNL     1     -11.242  12.506  63.480  1.00  0.00    -0.525 A  
HETATM    9  C   UNL     1     -10.624  11.249  63.335  1.00  0.00    -0.393 A  
HETATM   10  C   UNL     1     -10.036  10.567  64.423  1.00  0.00    -0.395 A  
HETATM   11  C   UNL     1     -10.143  11.077  65.718  1.00  0.00    -0.305 A  
HETATM   12  C   UNL     1      -9.678  10.394  67.000  1.00  0.00    -0.216 C  
HETATM   13  C   UNL     1     -10.939  12.227  65.847  1.00  0.00    -0.338 A  
HETATM   14  C   UNL     1      -8.140  10.159  67.273  1.00  0.00    -0.114 C  
HETATM   15  C   UNL     1      -7.598  11.177  68.352  1.00  0.00    -0.110 C  
HETATM   16  N   UNL     1      -9.903  10.548  69.510  1.00  0.00    -0.187 NA 
HETATM   17  C   UNL     1      -8.445  10.832  69.684  1.00  0.00     0.240 C  
ENDROOT
BRANCH  15  18
HETATM   18  C   UNL     1      -7.449  12.594  67.525  1.00  0.00    -0.155 C  
HETATM   19  N   UNL     1      -7.856  13.872  67.942  1.00  0.00    -0.144 N  
HETATM   20  O   UNL     1      -6.817  12.531  66.471  1.00  0.00     0.294 OA 
BRANCH  19  21
HETATM   21  C   UNL     1      -7.416  15.051  67.107  1.00  0.00    -0.110 C  
BRANCH  21  22
HETATM   22  C   UNL     1      -6.771  16.299  67.760  1.00  0.00    -0.162 C  
HETATM   23  C   UNL     1      -7.328  17.745  67.617  1.00  0.00    -0.200 C  
BRANCH  23  24
HETATM   24  N   UNL     1      -8.741  18.126  67.835  1.00  0.00    -0.256 NA 
HETATM   25  C   UNL     1      -9.430  18.196  66.522  1.00  0.00    -0.304 C  
HETATM   26  C   UNL     1      -8.918  19.447  68.465  1.00  0.00    -0.370 C  
ENDBRANCH  23  24
ENDBRANCH  21  22
ENDBRANCH  19  21
BRANCH  19  27
HETATM   27  C   UNL     1      -8.224  14.125  69.257  1.00  0.00     0.267 C  
HETATM   28  O   UNL     1      -7.440  14.132  70.201  1.00  0.00     0.381 OA 
BRANCH  27  29
HETATM   29  N   UNL     1      -9.556  14.440  69.435  1.00  0.00    -0.404 N  
HETATM   30  H   UNL     1     -10.255  13.698  69.475  1.00  0.00     0.000 HD 
BRANCH  29  31
HETATM   31  C   UNL     1      -9.958  15.819  69.565  1.00  0.00    -0.283 C  
HETATM   32  C   UNL     1     -11.251  15.943  70.338  1.00  0.00    -0.392 C  
ENDBRANCH  29  31
ENDBRANCH  27  29
ENDBRANCH  19  27
ENDBRANCH  15  18
BRANCH  16  33
HETATM   33  C   UNL     1     -10.347   9.137  69.467  1.00  0.00    -0.215 C  
BRANCH  33  34
HETATM   34  C   UNL     1     -10.707   8.481  70.773  1.00  0.00    -0.254 C  
HETATM   35  C   UNL     1     -11.536   8.946  71.716  1.00  0.00    -0.423 C  
ENDBRANCH  33  34
ENDBRANCH  16  33
TORSDOF 9
ENDMDL
MODEL       49
REMARK 921   NORMALIZED FREE ENERGY PREDICTED BY IDOCK:   -5.27 KCAL/MOL
REMARK 922        TOTAL FREE ENERGY PREDICTED BY IDOCK:   -8.75 KCAL/MOL
REMARK 923 INTER-LIGAND FREE ENERGY PREDICTED BY IDOCK:   -7.31 KCAL/MOL
REMARK 924 INTRA-LIGAND FREE ENERGY PREDICTED BY IDOCK:   -1.45 KCAL/MOL
REMARK 927      BINDING AFFINITY PREDICTED BY RF-SCORE:    0.00 PKD
ROOT
HETATM    1  C   UNL     1     -10.142  15.423  67.423  1.00  0.00    -0.233 C  
HETATM    2  C   UNL     1     -11.301  14.532  66.974  1.00  0.00    -0.359 C  
HETATM    3  C   UNL     1     -11.591  13.652  68.130  1.00  0.00    -0.367 A  
HETATM    4  C   UNL     1     -11.894  12.328  68.281  1.00  0.00    -0.310 A  
HETATM    5  N   UNL     1     -12.238  12.147  69.602  1.00  0.00    -0.178 NA 
HETATM    6  H   UNL     1     -12.534  11.262  70.013  1.00  0.00     0.000 HD 
HETATM    7  C   UNL     1     -12.126  13.336  70.289  1.00  0.00    -0.335 A  
HETATM    8  C   UNL     1     -12.540  13.766  71.542  1.00  0.00    -0.405 A  
HETATM    9  C   UNL     1     -12.239  15.100  71.876  1.00  0.00    -0.431 A  
HETATM   10  C   UNL     1     -11.434  15.921  71.056  1.00  0.00    -0.461 A  
HETATM   11  C   UNL     1     -10.989  15.460  69.815  1.00  0.00    -0.294 A  
HETATM   12  C   UNL     1     -10.228  16.270  68.770  1.00  0.00    -0.249 C  
HETATM   13  C   UNL     1     -11.478  14.200  69.431  1.00  0.00    -0.337 A  
HETATM   14  C   UNL     1      -8.758  16.771  69.055  1.00  0.00    -0.176 C  
HETATM   15  C   UNL     1      -7.704  15.909  68.255  1.00  0.00    -0.137 C  
HETATM   16  N   UNL     1      -9.527  16.197  66.346  1.00  0.00    -0.272 NA 
HETATM   17  C   UNL     1      -8.076  16.168  66.703  1.00  0.00    -0.288 C  
ENDROOT
BRANCH  15  18
HETATM   18  C   UNL     1      -7.614  14.499  69.103  1.00  0.00    -0.102 C  
HETATM   19  N   UNL     1      -7.453  13.202  68.589  1.00  0.00    -0.111 N  
HETATM   20  O   UNL     1      -7.580  14.618  70.328  1.00  0.00     0.241 OA 
BRANCH  19  21
HETATM   21  C   UNL     1      -7.176  12.091  69.575  1.00  0.00     0.251 C  
BRANCH  21  22
HETATM   22  C   UNL     1      -7.042  10.621  69.107  1.00  0.00    -0.095 C  
HETATM   23  C   UNL     1      -8.073   9.502  69.435  1.00  0.00    -0.116 C  
BRANCH  23  24
HETATM   24  N   UNL     1      -9.535   9.628  69.247  1.00  0.00    -0.169 NA 
HETATM   25  C   UNL     1     -10.204   9.481  70.564  1.00  0.00    -0.287 C  
HETATM   26  C   UNL     1     -10.120   8.597  68.369  1.00  0.00    -0.191 C  
ENDBRANCH  23  24
ENDBRANCH  21  22
ENDBRANCH  19  21
BRANCH  19  27
HETATM   27  C   UNL     1      -7.093  12.984  67.266  1.00  0.00    -0.044 C  
HETATM   28  O   UNL     1      -5.940  13.030  66.850  1.00  0.00    -0.137 OA 
BRANCH  27  29
HETATM   29  N   UNL     1      -8.138  12.641  66.432  1.00  0.00    -0.233 N  
HETATM   30  H   UNL     1      -8.746  13.366  66.050  1.00  0.00     0.000 HD 
BRANCH  29  31
HETATM   31  C   UNL     1      -8.369  11.256  66.100  1.00  0.00    -0.111 C  
HETATM   32  C   UNL     1      -9.775  11.042  65.589  1.00  0.00    -0.276 C  
ENDBRANCH  29  31
ENDBRANCH  27  29
ENDBRANCH  19  27
ENDBRANCH  15  18
BRANCH  16  33
HETATM   33  C   UNL     1     -10.195  17.510  66.206  1.00  0.00    -0.355 C  
BRANCH  33  34
HETATM   34  C   UNL     1      -9.478  18.716  66.750  1.00  0.00    -0.324 C  
HETATM   35  C   UNL     1      -9.228  19.869  66.116  1.00  0.00    -0.414 C  
ENDBRANCH  33  34
ENDBRANCH  16  33
TORSDOF 9
ENDMDL
MODEL       50
REMARK 921   NORMALIZED FREE ENERGY PREDICTED BY IDOCK:   -5.27 KCAL/MOL
REMARK 922        TOTAL FREE ENERGY PREDICTED BY IDOCK:   -8.75 KCAL/MOL
REMARK 923 INTER-LIGAND FREE ENERGY PREDICTED BY IDOCK:   -7.71 KCAL/MOL
REMARK 924 INTRA-LIGAND FREE ENERGY PREDICTED BY IDOCK:   -1.04 KCAL/MOL
REMARK 927      BINDING AFFINITY PREDICTED BY RF-SCORE:    0.00 PKD
ROOT
HETATM    1  C   UNL     1     -10.582  11.458  66.511  1.00  0.00    -0.263 C  
HETATM    2  C   UNL     1     -11.839  12.221  66.932  1.00  0.00    -0.334 C  
HETATM    3  C   UNL     1     -11.468  12.935  68.176  1.00  0.00    -0.354 A  
HETATM    4  C   UNL     1     -12.086  13.175  69.371  1.00  0.00    -0.231 A  
HETATM    5  N   UNL     1     -11.290  14.064  70.059  1.00  0.00    -0.469 NA 
HETATM    6  H   UNL     1     -11.502  14.446  70.979  1.00  0.00     0.000 HD 
HETATM    7  C   UNL     1     -10.164  14.361  69.323  1.00  0.00    -0.064 A  
HETATM    8  C   UNL     1      -9.172  15.326  69.430  1.00  0.00    -0.233 A  
HETATM    9  C   UNL     1      -8.173  15.307  68.438  1.00  0.00    -0.146 A  
HETATM   10  C   UNL     1      -8.088  14.282  67.471  1.00  0.00    -0.200 A  
HETATM   11  C   UNL     1      -9.071  13.293  67.401  1.00  0.00    -0.216 A  
HETATM   12  C   UNL     1      -9.185  12.205  66.338  1.00  0.00    -0.207 C  
HETATM   13  C   UNL     1     -10.156  13.462  68.277  1.00  0.00    -0.247 A  
HETATM   14  C   UNL     1      -8.099  11.063  66.238  1.00  0.00    -0.159 C  
HETATM   15  C   UNL     1      -8.660   9.701  66.808  1.00  0.00    -0.140 C  
HETATM   16  N   UNL     1     -10.800  10.483  65.445  1.00  0.00     0.041 NA 
HETATM   17  C   UNL     1      -9.908   9.351  65.842  1.00  0.00    -0.291 C  
ENDROOT
BRANCH  15  18
HETATM   18  C   UNL     1      -8.605   9.899  68.442  1.00  0.00    -0.116 C  
HETATM   19  N   UNL     1      -9.224   9.103  69.420  1.00  0.00    -0.152 N  
HETATM   20  O   UNL     1      -7.849  10.783  68.845  1.00  0.00    -0.118 OA 
BRANCH  19  21
HETATM   21  C   UNL     1      -8.848   9.352  70.862  1.00  0.00    -0.103 C  
BRANCH  21  22
HETATM   22  C   UNL     1      -9.451   8.498  72.005  1.00  0.00    -0.364 C  
HETATM   23  C   UNL     1      -8.774   7.226  72.594  1.00  0.00    -0.122 C  
BRANCH  23  24
HETATM   24  N   UNL     1      -7.361   7.152  73.027  1.00  0.00    -0.073 NA 
HETATM   25  C   UNL     1      -7.152   5.885  73.772  1.00  0.00    -0.082 C  
HETATM   26  C   UNL     1      -6.951   8.237  73.936  1.00  0.00    -0.133 C  
ENDBRANCH  23  24
ENDBRANCH  21  22
ENDBRANCH  19  21
BRANCH  19  27
HETATM   27  C   UNL     1      -9.774   7.867  69.109  1.00  0.00    -0.162 C  
HETATM   28  O   UNL     1      -9.130   6.915  68.682  1.00  0.00    -0.133 OA 
BRANCH  27  29
HETATM   29  N   UNL     1     -11.123   7.750  69.377  1.00  0.00    -0.446 N  
HETATM   30  H   UNL     1     -11.757   8.516  69.149  1.00  0.00     0.000 HD 
BRANCH  29  31
HETATM   31  C   UNL     1     -11.635   6.544  69.981  1.00  0.00    -0.390 C  
HETATM   32  C   UNL     1     -12.470   6.854  71.202  1.00  0.00    -0.398 C  
ENDBRANCH  29  31
ENDBRANCH  27  29
ENDBRANCH  19  27
ENDBRANCH  15  18
BRANCH  16  33
HETATM   33  C   UNL     1     -10.598  11.111  64.120  1.00  0.00    -0.368 C  
BRANCH  33  34
HETATM   34  C   UNL     1     -11.781  11.789  63.484  1.00  0.00    -0.485 C  
HETATM   35  C   UNL     1     -12.034  13.104  63.431  1.00  0.00    -0.552 C  
ENDBRANCH  33  34
ENDBRANCH  16  33
TORSDOF 9
ENDMDL
MODEL       51
REMARK 921   NORMALIZED FREE ENERGY PREDICTED BY IDOCK:   -5.26 KCAL/MOL
REMARK 922        TOTAL FREE ENERGY PREDICTED BY IDOCK:   -8.73 KCAL/MOL
REMARK 923 INTER-LIGAND FREE ENERGY PREDICTED BY IDOCK:   -7.50 KCAL/MOL
REMARK 924 INTRA-LIGAND FREE ENERGY PREDICTED BY IDOCK:   -1.24 KCAL/MOL
REMARK 927      BINDING AFFINITY PREDICTED BY RF-SCORE:    0.00 PKD
ROOT
HETATM    1  C   UNL     1      -7.899   9.701  69.487  1.00  0.00    -0.117 C  
HETATM    2  C   UNL     1      -8.657   8.969  70.595  1.00  0.00    -0.245 C  
HETATM    3  C   UNL     1      -9.812   8.328  69.923  1.00  0.00    -0.186 A  
HETATM    4  C   UNL     1     -11.133   8.161  70.227  1.00  0.00    -0.221 A  
HETATM    5  N   UNL     1     -11.656   7.311  69.278  1.00  0.00    -0.314 NA 
HETATM    6  H   UNL     1     -12.621   6.984  69.255  1.00  0.00     0.000 HD 
HETATM    7  C   UNL     1     -10.685   6.967  68.363  1.00  0.00    -0.211 A  
HETATM    8  C   UNL     1     -10.602   6.006  67.364  1.00  0.00    -0.355 A  
HETATM    9  C   UNL     1      -9.396   5.963  66.639  1.00  0.00    -0.156 A  
HETATM   10  C   UNL     1      -8.380   6.929  66.804  1.00  0.00    -0.116 A  
HETATM   11  C   UNL     1      -8.496   7.916  67.785  1.00  0.00    -0.125 A  
HETATM   12  C   UNL     1      -7.432   8.941  68.167  1.00  0.00    -0.092 C  
HETATM   13  C   UNL     1      -9.619   7.803  68.621  1.00  0.00    -0.154 A  
HETATM   14  C   UNL     1      -7.003  10.071  67.151  1.00  0.00    -0.084 C  
HETATM   15  C   UNL     1      -7.613  11.467  67.570  1.00  0.00    -0.117 C  
HETATM   16  N   UNL     1      -6.864  10.613  69.970  1.00  0.00    -0.158 NA 
HETATM   17  C   UNL     1      -6.964  11.764  69.020  1.00  0.00    -0.107 C  
ENDROOT
BRANCH  15  18
HETATM   18  C   UNL     1      -9.194  11.364  67.115  1.00  0.00    -0.166 C  
HETATM   19  N   UNL     1     -10.247  12.212  67.493  1.00  0.00    -0.197 N  
HETATM   20  O   UNL     1      -9.448  10.509  66.267  1.00  0.00    -0.168 OA 
BRANCH  19  21
HETATM   21  C   UNL     1     -11.565  12.050  66.773  1.00  0.00    -0.321 C  
BRANCH  21  22
HETATM   22  C   UNL     1     -12.228  13.241  66.037  1.00  0.00    -0.483 C  
HETATM   23  C   UNL     1     -11.775  13.768  64.644  1.00  0.00    -0.395 C  
BRANCH  23  24
HETATM   24  N   UNL     1     -11.549  12.915  63.457  1.00  0.00    -0.491 NA 
HETATM   25  C   UNL     1     -12.611  11.879  63.400  1.00  0.00    -0.431 C  
HETATM   26  C   UNL     1     -10.266  12.190  63.472  1.00  0.00    -0.424 C  
ENDBRANCH  23  24
ENDBRANCH  21  22
ENDBRANCH  19  21
BRANCH  19  27
HETATM   27  C   UNL     1     -10.013  13.426  68.126  1.00  0.00    -0.237 C  
HETATM   28  O   UNL     1      -9.395  14.357  67.621  1.00  0.00    -0.192 OA 
BRANCH  27  29
HETATM   29  N   UNL     1     -10.588  13.547  69.375  1.00  0.00    -0.433 N  
HETATM   30  H   UNL     1     -10.325  12.905  70.123  1.00  0.00     0.000 HD 
BRANCH  29  31
HETATM   31  C   UNL     1     -11.562  14.582  69.620  1.00  0.00    -0.299 C  
HETATM   32  C   UNL     1     -11.111  15.508  70.727  1.00  0.00    -0.383 C  
ENDBRANCH  29  31
ENDBRANCH  27  29
ENDBRANCH  19  27
ENDBRANCH  15  18
BRANCH  16  33
HETATM   33  C   UNL     1      -5.568   9.908  70.091  1.00  0.00    -0.044 C  
BRANCH  33  34
HETATM   34  C   UNL     1      -5.413   8.927  71.222  1.00  0.00    -0.040 C  
HETATM   35  C   UNL     1      -5.541   7.595  71.167  1.00  0.00    -0.034 C  
ENDBRANCH  33  34
ENDBRANCH  16  33
TORSDOF 9
ENDMDL
MODEL       52
REMARK 921   NORMALIZED FREE ENERGY PREDICTED BY IDOCK:   -5.24 KCAL/MOL
REMARK 922        TOTAL FREE ENERGY PREDICTED BY IDOCK:   -8.71 KCAL/MOL
REMARK 923 INTER-LIGAND FREE ENERGY PREDICTED BY IDOCK:   -7.23 KCAL/MOL
REMARK 924 INTRA-LIGAND FREE ENERGY PREDICTED BY IDOCK:   -1.48 KCAL/MOL
REMARK 927      BINDING AFFINITY PREDICTED BY RF-SCORE:    0.00 PKD
ROOT
HETATM    1  C   UNL     1      -9.333  11.607  65.579  1.00  0.00    -0.156 C  
HETATM    2  C   UNL     1      -8.206  10.582  65.450  1.00  0.00    -0.152 C  
HETATM    3  C   UNL     1      -7.605  10.486  66.802  1.00  0.00    -0.115 A  
HETATM    4  C   UNL     1      -6.330  10.401  67.286  1.00  0.00    -0.062 A  
HETATM    5  N   UNL     1      -6.434  10.150  68.636  1.00  0.00    -0.052 NA 
HETATM    6  H   UNL     1      -5.645  10.015  69.267  1.00  0.00     0.000 HD 
HETATM    7  C   UNL     1      -7.758  10.107  69.011  1.00  0.00    -0.100 A  
HETATM    8  C   UNL     1      -8.421   9.689  70.157  1.00  0.00    -0.231 A  
HETATM    9  C   UNL     1      -9.825   9.793  70.140  1.00  0.00    -0.306 A  
HETATM   10  C   UNL     1     -10.523  10.421  69.086  1.00  0.00    -0.248 A  
HETATM   11  C   UNL     1      -9.839  10.875  67.956  1.00  0.00    -0.185 A  
HETATM   12  C   UNL     1     -10.465  11.452  66.690  1.00  0.00    -0.285 C  
HETATM   13  C   UNL     1      -8.467  10.572  67.923  1.00  0.00    -0.119 A  
HETATM   14  C   UNL     1     -11.221  12.837  66.727  1.00  0.00    -0.338 C  
HETATM   15  C   UNL     1     -10.346  13.975  66.069  1.00  0.00    -0.312 C  
HETATM   16  N   UNL     1      -9.896  12.043  64.303  1.00  0.00    -0.212 NA 
HETATM   17  C   UNL     1     -10.161  13.497  64.536  1.00  0.00    -0.269 C  
ENDROOT
BRANCH  15  18
HETATM   18  C   UNL     1      -9.216  14.323  67.216  1.00  0.00    -0.214 C  
HETATM   19  N   UNL     1      -9.429  14.910  68.474  1.00  0.00    -0.204 N  
HETATM   20  O   UNL     1      -8.076  13.925  66.977  1.00  0.00    -0.128 OA 
BRANCH  19  21
HETATM   21  C   UNL     1      -8.269  14.928  69.441  1.00  0.00    -0.084 C  
BRANCH  21  22
HETATM   22  C   UNL     1      -7.219  16.067  69.411  1.00  0.00    -0.213 C  
HETATM   23  C   UNL     1      -7.212  17.220  68.365  1.00  0.00    -0.220 C  
BRANCH  23  24
HETATM   24  N   UNL     1      -8.391  18.041  68.013  1.00  0.00    -0.253 NA 
HETATM   25  C   UNL     1      -8.548  18.049  66.537  1.00  0.00    -0.258 C  
HETATM   26  C   UNL     1      -8.287  19.453  68.425  1.00  0.00    -0.350 C  
ENDBRANCH  23  24
ENDBRANCH  21  22
ENDBRANCH  19  21
BRANCH  19  27
HETATM   27  C   UNL     1     -10.705  15.044  69.007  1.00  0.00    -0.239 C  
HETATM   28  O   UNL     1     -11.537  15.850  68.605  1.00  0.00    -0.382 OA 
BRANCH  27  29
HETATM   29  N   UNL     1     -11.010  14.143  70.007  1.00  0.00    -0.463 N  
HETATM   30  H   UNL     1     -10.295  13.862  70.677  1.00  0.00     0.000 HD 
BRANCH  29  31
HETATM   31  C   UNL     1     -12.344  13.600  70.103  1.00  0.00    -0.304 C  
HETATM   32  C   UNL     1     -13.100  14.204  71.264  1.00  0.00    -0.420 C  
ENDBRANCH  29  31
ENDBRANCH  27  29
ENDBRANCH  19  27
ENDBRANCH  15  18
BRANCH  16  33
HETATM   33  C   UNL     1     -11.028  11.173  63.912  1.00  0.00    -0.197 C  
BRANCH  33  34
HETATM   34  C   UNL     1     -12.217  11.829  63.262  1.00  0.00    -0.400 C  
HETATM   35  C   UNL     1     -13.389  12.136  63.832  1.00  0.00     0.243 C  
ENDBRANCH  33  34
ENDBRANCH  16  33
TORSDOF 9
ENDMDL
MODEL       53
REMARK 921   NORMALIZED FREE ENERGY PREDICTED BY IDOCK:   -5.24 KCAL/MOL
REMARK 922        TOTAL FREE ENERGY PREDICTED BY IDOCK:   -8.71 KCAL/MOL
REMARK 923 INTER-LIGAND FREE ENERGY PREDICTED BY IDOCK:   -7.52 KCAL/MOL
REMARK 924 INTRA-LIGAND FREE ENERGY PREDICTED BY IDOCK:   -1.19 KCAL/MOL
REMARK 927      BINDING AFFINITY PREDICTED BY RF-SCORE:    0.00 PKD
ROOT
HETATM    1  C   UNL     1      -9.369  12.402  67.492  1.00  0.00    -0.181 C  
HETATM    2  C   UNL     1      -7.856  12.488  67.292  1.00  0.00    -0.160 C  
HETATM    3  C   UNL     1      -7.488  11.264  66.542  1.00  0.00    -0.105 A  
HETATM    4  C   UNL     1      -6.461  10.365  66.610  1.00  0.00    -0.080 A  
HETATM    5  N   UNL     1      -6.581   9.541  65.512  1.00  0.00    -0.070 NA 
HETATM    6  H   UNL     1      -5.943   8.781  65.280  1.00  0.00     0.000 HD 
HETATM    7  C   UNL     1      -7.688   9.894  64.773  1.00  0.00    -0.138 A  
HETATM    8  C   UNL     1      -8.145   9.560  63.505  1.00  0.00    -0.151 A  
HETATM    9  C   UNL     1      -9.348  10.165  63.096  1.00  0.00    -0.333 A  
HETATM   10  C   UNL     1     -10.134  10.951  63.967  1.00  0.00    -0.419 A  
HETATM   11  C   UNL     1      -9.682  11.244  65.255  1.00  0.00    -0.280 A  
HETATM   12  C   UNL     1     -10.352  12.178  66.257  1.00  0.00    -0.250 C  
HETATM   13  C   UNL     1      -8.387  10.790  65.555  1.00  0.00    -0.129 A  
HETATM   14  C   UNL     1     -11.753  11.811  66.886  1.00  0.00    -0.221 C  
HETATM   15  C   UNL     1     -11.590  11.330  68.382  1.00  0.00    -0.378 C  
HETATM   16  N   UNL     1      -9.908  13.384  68.430  1.00  0.00    -0.230 NA 
HETATM   17  C   UNL     1     -10.970  12.613  69.146  1.00  0.00    -0.142 C  
ENDROOT
BRANCH  15  18
HETATM   18  C   UNL     1     -11.012   9.793  68.247  1.00  0.00    -0.164 C  
HETATM   19  N   UNL     1     -10.740   8.889  69.286  1.00  0.00    -0.202 N  
HETATM   20  O   UNL     1     -10.908   9.364  67.098  1.00  0.00    -0.219 OA 
BRANCH  19  21
HETATM   21  C   UNL     1     -10.425   7.462  68.904  1.00  0.00    -0.203 C  
BRANCH  21  22
HETATM   22  C   UNL     1      -8.963   6.989  68.710  1.00  0.00    -0.131 C  
HETATM   23  C   UNL     1      -7.713   7.837  69.087  1.00  0.00    -0.101 C  
BRANCH  23  24
HETATM   24  N   UNL     1      -7.521   8.515  70.387  1.00  0.00    -0.065 NA 
HETATM   25  C   UNL     1      -7.356   9.971  70.150  1.00  0.00    -0.163 C  
HETATM   26  C   UNL     1      -6.321   8.078  71.123  1.00  0.00    -0.034 C  
ENDBRANCH  23  24
ENDBRANCH  21  22
ENDBRANCH  19  21
BRANCH  19  27
HETATM   27  C   UNL     1     -11.179   9.119  70.583  1.00  0.00    -0.270 C  
HETATM   28  O   UNL     1     -10.443   9.434  71.513  1.00  0.00    -0.337 OA 
BRANCH  27  29
HETATM   29  N   UNL     1     -12.545   9.031  70.756  1.00  0.00    -0.494 N  
HETATM   30  H   UNL     1     -13.115   8.533  70.072  1.00  0.00     0.000 HD 
BRANCH  29  31
HETATM   31  C   UNL     1     -13.166   9.643  71.905  1.00  0.00    -0.446 C  
HETATM   32  C   UNL     1     -13.252  11.144  71.746  1.00  0.00    -0.486 C  
ENDBRANCH  29  31
ENDBRANCH  27  29
ENDBRANCH  19  27
ENDBRANCH  15  18
BRANCH  16  33
HETATM   33  C   UNL     1     -10.293  14.623  67.718  1.00  0.00    -0.237 C  
BRANCH  33  34
HETATM   34  C   UNL     1     -11.345  15.492  68.354  1.00  0.00    -0.357 C  
HETATM   35  C   UNL     1     -11.262  16.150  69.518  1.00  0.00    -0.337 C  
ENDBRANCH  33  34
ENDBRANCH  16  33
TORSDOF 9
ENDMDL
MODEL       54
REMARK 921   NORMALIZED FREE ENERGY PREDICTED BY IDOCK:   -5.23 KCAL/MOL
REMARK 922        TOTAL FREE ENERGY PREDICTED BY IDOCK:   -8.69 KCAL/MOL
REMARK 923 INTER-LIGAND FREE ENERGY PREDICTED BY IDOCK:   -9.70 KCAL/MOL
REMARK 924 INTRA-LIGAND FREE ENERGY PREDICTED BY IDOCK:    1.01 KCAL/MOL
REMARK 927      BINDING AFFINITY PREDICTED BY RF-SCORE:    0.00 PKD
ROOT
HETATM    1  C   UNL     1      -9.401  15.050  67.845  1.00  0.00    -0.183 C  
HETATM    2  C   UNL     1      -8.405  14.106  67.172  1.00  0.00    -0.189 C  
HETATM    3  C   UNL     1      -9.168  12.868  66.885  1.00  0.00    -0.234 A  
HETATM    4  C   UNL     1      -8.905  11.530  66.978  1.00  0.00    -0.173 A  
HETATM    5  N   UNL     1      -9.961  10.876  66.384  1.00  0.00    -0.213 NA 
HETATM    6  H   UNL     1     -10.038   9.864  66.282  1.00  0.00     0.000 HD 
HETATM    7  C   UNL     1     -10.898  11.785  65.946  1.00  0.00    -0.291 A  
HETATM    8  C   UNL     1     -12.008  11.699  65.116  1.00  0.00     0.187 A  
HETATM    9  C   UNL     1     -12.716  12.896  64.895  1.00  0.00    -0.474 A  
HETATM   10  C   UNL     1     -12.418  14.090  65.587  1.00  0.00    -0.531 A  
HETATM   11  C   UNL     1     -11.322  14.150  66.451  1.00  0.00    -0.342 A  
HETATM   12  C   UNL     1     -10.800  15.394  67.164  1.00  0.00    -0.321 C  
HETATM   13  C   UNL     1     -10.523  12.996  66.489  1.00  0.00    -0.284 A  
HETATM   14  C   UNL     1     -11.660  16.099  68.284  1.00  0.00    -0.181 C  
HETATM   15  C   UNL     1     -11.078  15.790  69.720  1.00  0.00    -0.322 C  
HETATM   16  N   UNL     1      -8.794  16.237  68.443  1.00  0.00    -0.195 NA 
HETATM   17  C   UNL     1      -9.593  16.427  69.692  1.00  0.00     0.073 C  
ENDROOT
BRANCH  15  18
HETATM   18  C   UNL     1     -11.565  14.245  70.023  1.00  0.00    -0.261 C  
HETATM   19  N   UNL     1     -12.524  13.820  70.957  1.00  0.00    -0.367 N  
HETATM   20  O   UNL     1     -11.107  13.386  69.270  1.00  0.00    -0.235 OA 
BRANCH  19  21
HETATM   21  C   UNL     1     -12.960  12.375  70.900  1.00  0.00     0.023 C  
BRANCH  21  22
HETATM   22  C   UNL     1     -12.063  11.293  70.247  1.00  0.00    -0.459 C  
HETATM   23  C   UNL     1     -11.439  10.095  71.019  1.00  0.00    -0.354 C  
BRANCH  23  24
HETATM   24  N   UNL     1     -12.189   9.197  71.924  1.00  0.00    -0.366 NA 
HETATM   25  C   UNL     1     -11.357   8.002  72.216  1.00  0.00    -0.353 C  
HETATM   26  C   UNL     1     -13.454   8.691  71.360  1.00  0.00    -0.232 C  
ENDBRANCH  23  24
ENDBRANCH  21  22
ENDBRANCH  19  21
BRANCH  19  27
HETATM   27  C   UNL     1     -13.377  14.719  71.583  1.00  0.00    -0.360 C  
HETATM   28  O   UNL     1     -14.103  15.507  70.986  1.00  0.00    -0.513 OA 
BRANCH  27  29
HETATM   29  N   UNL     1     -13.407  14.626  72.959  1.00  0.00    -0.485 N  
HETATM   30  H   UNL     1     -14.210  14.205  73.426  1.00  0.00     0.000 HD 
BRANCH  29  31
HETATM   31  C   UNL     1     -12.300  15.126  73.738  1.00  0.00    -0.578 C  
HETATM   32  C   UNL     1     -12.015  16.576  73.418  1.00  0.00    -0.429 C  
ENDBRANCH  29  31
ENDBRANCH  27  29
ENDBRANCH  19  27
ENDBRANCH  15  18
BRANCH  16  33
HETATM   33  C   UNL     1      -8.744  17.343  67.460  1.00  0.00    -0.219 C  
BRANCH  33  34
HETATM   34  C   UNL     1      -9.084  18.725  67.951  1.00  0.00    -0.318 C  
HETATM   35  C   UNL     1     -10.117  19.490  67.577  1.00  0.00    -0.524 C  
ENDBRANCH  33  34
ENDBRANCH  16  33
TORSDOF 9
ENDMDL
MODEL       55
REMARK 921   NORMALIZED FREE ENERGY PREDICTED BY IDOCK:   -5.20 KCAL/MOL
REMARK 922        TOTAL FREE ENERGY PREDICTED BY IDOCK:   -8.64 KCAL/MOL
REMARK 923 INTER-LIGAND FREE ENERGY PREDICTED BY IDOCK:   -6.90 KCAL/MOL
REMARK 924 INTRA-LIGAND FREE ENERGY PREDICTED BY IDOCK:   -1.75 KCAL/MOL
REMARK 927      BINDING AFFINITY PREDICTED BY RF-SCORE:    0.00 PKD
ROOT
HETATM    1  C   UNL     1     -10.461   9.148  69.568  1.00  0.00    -0.219 C  
HETATM    2  C   UNL     1     -11.826   9.048  70.249  1.00  0.00     0.076 C  
HETATM    3  C   UNL     1     -11.696   7.946  71.232  1.00  0.00    -0.313 A  
HETATM    4  C   UNL     1     -12.494   6.910  71.628  1.00  0.00    -0.375 A  
HETATM    5  N   UNL     1     -11.882   6.334  72.720  1.00  0.00    -0.504 NA 
HETATM    6  H   UNL     1     -12.254   5.546  73.249  1.00  0.00     0.000 HD 
HETATM    7  C   UNL     1     -10.696   6.977  72.994  1.00  0.00    -0.305 A  
HETATM    8  C   UNL     1      -9.816   6.957  74.068  1.00  0.00    -0.354 A  
HETATM    9  C   UNL     1      -8.691   7.797  73.969  1.00  0.00    -0.316 A  
HETATM   10  C   UNL     1      -8.382   8.512  72.791  1.00  0.00    -0.140 A  
HETATM   11  C   UNL     1      -9.256   8.489  71.702  1.00  0.00    -0.304 A  
HETATM   12  C   UNL     1      -9.124   9.306  70.421  1.00  0.00    -0.288 C  
HETATM   13  C   UNL     1     -10.463   7.803  71.914  1.00  0.00    -0.268 A  
HETATM   14  C   UNL     1      -7.939   9.036  69.413  1.00  0.00    -0.100 C  
HETATM   15  C   UNL     1      -8.453   8.264  68.133  1.00  0.00    -0.132 C  
HETATM   16  N   UNL     1     -10.442  10.004  68.384  1.00  0.00    -0.194 NA 
HETATM   17  C   UNL     1      -9.518   9.276  67.461  1.00  0.00    -0.132 C  
ENDROOT
BRANCH  15  18
HETATM   18  C   UNL     1      -8.644   6.712  68.653  1.00  0.00    -0.125 C  
HETATM   19  N   UNL     1      -9.613   5.785  68.236  1.00  0.00    -0.117 N  
HETATM   20  O   UNL     1      -7.771   6.296  69.415  1.00  0.00    -0.096 OA 
BRANCH  19  21
HETATM   21  C   UNL     1      -9.452   4.355  68.693  1.00  0.00    -0.155 C  
BRANCH  21  22
HETATM   22  C   UNL     1      -9.874   3.918  70.118  1.00  0.00    -0.163 C  
HETATM   23  C   UNL     1      -8.947   3.154  71.108  1.00  0.00    -0.099 C  
BRANCH  23  24
HETATM   24  N   UNL     1      -7.561   3.552  71.436  1.00  0.00    -0.050 NA 
HETATM   25  C   UNL     1      -6.824   2.364  71.937  1.00  0.00    -0.022 C  
HETATM   26  C   UNL     1      -7.461   4.575  72.493  1.00  0.00    -0.083 C  
ENDBRANCH  23  24
ENDBRANCH  21  22
ENDBRANCH  19  21
BRANCH  19  27
HETATM   27  C   UNL     1     -10.398   6.011  67.113  1.00  0.00    -0.230 C  
HETATM   28  O   UNL     1     -11.404   6.712  67.106  1.00  0.00    -0.343 OA 
BRANCH  27  29
HETATM   29  N   UNL     1      -9.928   5.429  65.953  1.00  0.00    -0.360 N  
HETATM   30  H   UNL     1      -9.019   5.700  65.577  1.00  0.00     0.000 HD 
BRANCH  29  31
HETATM   31  C   UNL     1     -10.725   4.437  65.272  1.00  0.00    -0.117 C  
HETATM   32  C   UNL     1      -9.929   3.743  64.191  1.00  0.00    -0.193 C  
ENDBRANCH  29  31
ENDBRANCH  27  29
ENDBRANCH  19  27
ENDBRANCH  15  18
BRANCH  16  33
HETATM   33  C   UNL     1     -10.112  11.397  68.759  1.00  0.00    -0.188 C  
BRANCH  33  34
HETATM   34  C   UNL     1     -11.237  12.398  68.776  1.00  0.00    -0.318 C  
HETATM   35  C   UNL     1     -11.928  12.827  69.840  1.00  0.00    -0.368 C  
ENDBRANCH  33  34
ENDBRANCH  16  33
TORSDOF 9
ENDMDL
MODEL       56
REMARK 921   NORMALIZED FREE ENERGY PREDICTED BY IDOCK:   -5.18 KCAL/MOL
REMARK 922        TOTAL FREE ENERGY PREDICTED BY IDOCK:   -8.62 KCAL/MOL
REMARK 923 INTER-LIGAND FREE ENERGY PREDICTED BY IDOCK:   -7.17 KCAL/MOL
REMARK 924 INTRA-LIGAND FREE ENERGY PREDICTED BY IDOCK:   -1.45 KCAL/MOL
REMARK 927      BINDING AFFINITY PREDICTED BY RF-SCORE:    0.00 PKD
ROOT
HETATM    1  C   UNL     1      -9.102   6.134  70.354  1.00  0.00    -0.153 C  
HETATM    2  C   UNL     1      -9.917   5.198  69.462  1.00  0.00    -0.301 C  
HETATM    3  C   UNL     1      -9.875   5.806  68.111  1.00  0.00    -0.162 A  
HETATM    4  C   UNL     1     -10.785   5.993  67.109  1.00  0.00    -0.330 A  
HETATM    5  N   UNL     1     -10.084   6.459  66.018  1.00  0.00    -0.369 NA 
HETATM    6  H   UNL     1     -10.494   6.671  65.109  1.00  0.00     0.000 HD 
HETATM    7  C   UNL     1      -8.751   6.596  66.333  1.00  0.00    -0.141 A  
HETATM    8  C   UNL     1      -7.602   6.808  65.584  1.00  0.00    -0.090 A  
HETATM    9  C   UNL     1      -6.392   6.873  66.300  1.00  0.00    -0.050 A  
HETATM   10  C   UNL     1      -6.348   6.874  67.711  1.00  0.00    -0.048 A  
HETATM   11  C   UNL     1      -7.518   6.701  68.454  1.00  0.00    -0.095 A  
HETATM   12  C   UNL     1      -7.613   6.550  69.969  1.00  0.00    -0.100 C  
HETATM   13  C   UNL     1      -8.674   6.438  67.701  1.00  0.00    -0.114 A  
HETATM   14  C   UNL     1      -7.245   7.754  70.922  1.00  0.00    -0.054 C  
HETATM   15  C   UNL     1      -8.548   8.412  71.527  1.00  0.00    -0.215 C  
HETATM   16  N   UNL     1      -9.225   5.858  71.784  1.00  0.00    -0.148 NA 
HETATM   17  C   UNL     1      -9.228   7.226  72.388  1.00  0.00    -0.134 C  
ENDROOT
BRANCH  15  18
HETATM   18  C   UNL     1      -9.157   9.306  70.284  1.00  0.00    -0.237 C  
HETATM   19  N   UNL     1     -10.509   9.526  69.974  1.00  0.00    -0.228 N  
HETATM   20  O   UNL     1      -8.328   9.931  69.622  1.00  0.00    -0.142 OA 
BRANCH  19  21
HETATM   21  C   UNL     1     -10.823  10.561  68.919  1.00  0.00    -0.235 C  
BRANCH  21  22
HETATM   22  C   UNL     1     -10.450  10.328  67.434  1.00  0.00    -0.303 C  
HETATM   23  C   UNL     1     -10.901  11.252  66.265  1.00  0.00    -0.238 C  
BRANCH  23  24
HETATM   24  N   UNL     1     -10.774  12.725  66.263  1.00  0.00    -0.267 NA 
HETATM   25  C   UNL     1      -9.513  13.101  66.952  1.00  0.00    -0.244 C  
HETATM   26  C   UNL     1     -11.858  13.424  66.977  1.00  0.00    -0.394 C  
ENDBRANCH  23  24
ENDBRANCH  21  22
ENDBRANCH  19  21
BRANCH  19  27
HETATM   27  C   UNL     1     -11.522   9.198  70.865  1.00  0.00    -0.296 C  
HETATM   28  O   UNL     1     -11.928   9.944  71.751  1.00  0.00    -0.381 OA 
BRANCH  27  29
HETATM   29  N   UNL     1     -12.106   7.966  70.649  1.00  0.00    -0.492 N  
HETATM   30  H   UNL     1     -11.958   7.479  69.765  1.00  0.00     0.000 HD 
BRANCH  29  31
HETATM   31  C   UNL     1     -12.926   7.369  71.675  1.00  0.00    -0.366 C  
HETATM   32  C   UNL     1     -14.381   7.738  71.497  1.00  0.00    -0.574 C  
ENDBRANCH  29  31
ENDBRANCH  27  29
ENDBRANCH  19  27
ENDBRANCH  15  18
BRANCH  16  33
HETATM   33  C   UNL     1      -8.186   4.897  72.217  1.00  0.00    -0.119 C  
BRANCH  33  34
HETATM   34  C   UNL     1      -7.619   5.062  73.601  1.00  0.00    -0.092 C  
HETATM   35  C   UNL     1      -6.586   4.403  74.141  1.00  0.00    -0.054 C  
ENDBRANCH  33  34
ENDBRANCH  16  33
TORSDOF 9
ENDMDL
MODEL       57
REMARK 921   NORMALIZED FREE ENERGY PREDICTED BY IDOCK:   -5.18 KCAL/MOL
REMARK 922        TOTAL FREE ENERGY PREDICTED BY IDOCK:   -8.61 KCAL/MOL
REMARK 923 INTER-LIGAND FREE ENERGY PREDICTED BY IDOCK:   -6.66 KCAL/MOL
REMARK 924 INTRA-LIGAND FREE ENERGY PREDICTED BY IDOCK:   -1.95 KCAL/MOL
REMARK 927      BINDING AFFINITY PREDICTED BY RF-SCORE:    0.00 PKD
ROOT
HETATM    1  C   UNL     1      -9.248   7.479  70.903  1.00  0.00    -0.153 C  
HETATM    2  C   UNL     1      -8.268   8.625  71.153  1.00  0.00    -0.187 C  
HETATM    3  C   UNL     1      -8.637   9.678  70.178  1.00  0.00    -0.243 A  
HETATM    4  C   UNL     1      -7.939  10.533  69.372  1.00  0.00    -0.140 A  
HETATM    5  N   UNL     1      -8.856  11.406  68.830  1.00  0.00    -0.364 NA 
HETATM    6  H   UNL     1      -8.628  12.175  68.200  1.00  0.00     0.000 HD 
HETATM    7  C   UNL     1     -10.124  11.091  69.262  1.00  0.00    -0.095 A  
HETATM    8  C   UNL     1     -11.349  11.743  69.209  1.00  0.00    -0.348 A  
HETATM    9  C   UNL     1     -12.439  11.074  69.798  1.00  0.00    -0.251 A  
HETATM   10  C   UNL     1     -12.341   9.753  70.287  1.00  0.00     0.009 A  
HETATM   11  C   UNL     1     -11.110   9.094  70.296  1.00  0.00    -0.272 A  
HETATM   12  C   UNL     1     -10.823   7.725  70.906  1.00  0.00    -0.246 C  
HETATM   13  C   UNL     1     -10.011   9.866  69.887  1.00  0.00    -0.292 A  
HETATM   14  C   UNL     1     -11.462   6.420  70.290  1.00  0.00    -0.468 C  
HETATM   15  C   UNL     1     -10.387   5.596  69.477  1.00  0.00    -0.345 C  
HETATM   16  N   UNL     1      -8.903   6.233  71.585  1.00  0.00    -0.138 NA 
HETATM   17  C   UNL     1      -9.280   5.189  70.583  1.00  0.00    -0.147 C  
ENDROOT
BRANCH  15  18
HETATM   18  C   UNL     1     -10.222   6.434  68.069  1.00  0.00    -0.164 C  
HETATM   19  N   UNL     1      -9.031   6.730  67.386  1.00  0.00    -0.116 N  
HETATM   20  O   UNL     1     -11.274   6.740  67.507  1.00  0.00    -0.287 OA 
BRANCH  19  21
HETATM   21  C   UNL     1      -9.150   7.321  66.001  1.00  0.00    -0.075 C  
BRANCH  21  22
HETATM   22  C   UNL     1      -8.269   8.517  65.562  1.00  0.00    -0.138 C  
HETATM   23  C   UNL     1      -8.674   9.542  64.463  1.00  0.00    -0.205 C  
BRANCH  23  24
HETATM   24  N   UNL     1      -9.978  10.236  64.402  1.00  0.00    -0.317 NA 
HETATM   25  C   UNL     1      -9.982  11.154  63.236  1.00  0.00    -0.379 C  
HETATM   26  C   UNL     1     -10.274  11.068  65.583  1.00  0.00    -0.260 C  
ENDBRANCH  23  24
ENDBRANCH  21  22
ENDBRANCH  19  21
BRANCH  19  27
HETATM   27  C   UNL     1      -7.832   6.111  67.714  1.00  0.00    -0.105 C  
HETATM   28  O   UNL     1      -7.022   6.563  68.517  1.00  0.00    -0.074 OA 
BRANCH  27  29
HETATM   29  N   UNL     1      -7.629   4.888  67.109  1.00  0.00    -0.086 N  
HETATM   30  H   UNL     1      -7.659   4.809  66.092  1.00  0.00     0.000 HD 
BRANCH  29  31
HETATM   31  C   UNL     1      -7.373   3.720  67.917  1.00  0.00    -0.062 C  
HETATM   32  C   UNL     1      -6.902   2.560  67.070  1.00  0.00    -0.041 C  
ENDBRANCH  29  31
ENDBRANCH  27  29
ENDBRANCH  19  27
ENDBRANCH  15  18
BRANCH  16  33
HETATM   33  C   UNL     1      -9.530   6.186  72.924  1.00  0.00    -0.150 C  
BRANCH  33  34
HETATM   34  C   UNL     1      -9.944   4.838  73.452  1.00  0.00    -0.184 C  
HETATM   35  C   UNL     1     -11.191   4.384  73.634  1.00  0.00    -0.335 C  
ENDBRANCH  33  34
ENDBRANCH  16  33
TORSDOF 9
ENDMDL
MODEL       58
REMARK 921   NORMALIZED FREE ENERGY PREDICTED BY IDOCK:   -5.17 KCAL/MOL
REMARK 922        TOTAL FREE ENERGY PREDICTED BY IDOCK:   -8.59 KCAL/MOL
REMARK 923 INTER-LIGAND FREE ENERGY PREDICTED BY IDOCK:   -7.46 KCAL/MOL
REMARK 924 INTRA-LIGAND FREE ENERGY PREDICTED BY IDOCK:   -1.13 KCAL/MOL
REMARK 927      BINDING AFFINITY PREDICTED BY RF-SCORE:    0.00 PKD
ROOT
HETATM    1  C   UNL     1      -8.212   7.295  66.401  1.00  0.00    -0.120 C  
HETATM    2  C   UNL     1      -7.159   7.436  65.302  1.00  0.00    -0.064 C  
HETATM    3  C   UNL     1      -6.810   8.876  65.274  1.00  0.00    -0.072 A  
HETATM    4  C   UNL     1      -6.574   9.791  64.287  1.00  0.00    -0.119 A  
HETATM    5  N   UNL     1      -6.112  10.932  64.906  1.00  0.00    -0.371 NA 
HETATM    6  H   UNL     1      -5.832  11.785  64.424  1.00  0.00     0.000 HD 
HETATM    7  C   UNL     1      -6.085  10.754  66.271  1.00  0.00    -0.126 A  
HETATM    8  C   UNL     1      -5.524  11.465  67.324  1.00  0.00    -0.065 A  
HETATM    9  C   UNL     1      -5.710  10.926  68.611  1.00  0.00    -0.039 A  
HETATM   10  C   UNL     1      -6.541   9.810  68.850  1.00  0.00    -0.046 A  
HETATM   11  C   UNL     1      -7.133   9.128  67.785  1.00  0.00    -0.079 A  
HETATM   12  C   UNL     1      -7.943   7.839  67.874  1.00  0.00    -0.125 C  
HETATM   13  C   UNL     1      -6.761   9.574  66.506  1.00  0.00    -0.075 A  
HETATM   14  C   UNL     1      -9.345   7.820  68.600  1.00  0.00    -0.148 C  
HETATM   15  C   UNL     1     -10.523   7.757  67.550  1.00  0.00    -0.338 C  
HETATM   16  N   UNL     1      -8.883   5.997  66.427  1.00  0.00    -0.132 NA 
HETATM   17  C   UNL     1     -10.291   6.356  66.778  1.00  0.00    -0.213 C  
ENDROOT
BRANCH  15  18
HETATM   18  C   UNL     1     -10.614   9.293  66.960  1.00  0.00    -0.193 C  
HETATM   19  N   UNL     1     -10.960  10.458  67.663  1.00  0.00    -0.307 N  
HETATM   20  O   UNL     1     -10.233   9.439  65.799  1.00  0.00    -0.231 OA 
BRANCH  19  21
HETATM   21  C   UNL     1     -10.760  11.781  66.961  1.00  0.00    -0.246 C  
BRANCH  21  22
HETATM   22  C   UNL     1     -11.963  12.691  66.610  1.00  0.00    -0.382 C  
HETATM   23  C   UNL     1     -12.069  13.535  65.307  1.00  0.00    -0.411 C  
BRANCH  23  24
HETATM   24  N   UNL     1     -11.825  13.011  63.946  1.00  0.00    -0.443 NA 
HETATM   25  C   UNL     1     -12.752  11.879  63.693  1.00  0.00    -0.390 C  
HETATM   26  C   UNL     1     -10.464  12.483  63.738  1.00  0.00    -0.419 C  
ENDBRANCH  23  24
ENDBRANCH  21  22
ENDBRANCH  19  21
BRANCH  19  27
HETATM   27  C   UNL     1     -11.031  10.477  69.050  1.00  0.00    -0.243 C  
HETATM   28  O   UNL     1     -10.065  10.656  69.785  1.00  0.00    -0.162 OA 
BRANCH  27  29
HETATM   29  N   UNL     1     -12.303  10.338  69.566  1.00  0.00    -0.517 N  
HETATM   30  H   UNL     1     -12.999   9.784  69.068  1.00  0.00     0.000 HD 
BRANCH  29  31
HETATM   31  C   UNL     1     -12.647  10.979  70.812  1.00  0.00    -0.369 C  
HETATM   32  C   UNL     1     -13.151   9.976  71.824  1.00  0.00    -0.562 C  
ENDBRANCH  29  31
ENDBRANCH  27  29
ENDBRANCH  19  27
ENDBRANCH  15  18
BRANCH  16  33
HETATM   33  C   UNL     1      -8.155   5.056  67.308  1.00  0.00    -0.107 C  
BRANCH  33  34
HETATM   34  C   UNL     1      -8.969   4.045  68.070  1.00  0.00    -0.153 C  
HETATM   35  C   UNL     1      -9.054   3.905  69.400  1.00  0.00    -0.196 C  
ENDBRANCH  33  34
ENDBRANCH  16  33
TORSDOF 9
ENDMDL
MODEL       59
REMARK 921   NORMALIZED FREE ENERGY PREDICTED BY IDOCK:   -5.15 KCAL/MOL
REMARK 922        TOTAL FREE ENERGY PREDICTED BY IDOCK:   -8.57 KCAL/MOL
REMARK 923 INTER-LIGAND FREE ENERGY PREDICTED BY IDOCK:   -6.85 KCAL/MOL
REMARK 924 INTRA-LIGAND FREE ENERGY PREDICTED BY IDOCK:   -1.72 KCAL/MOL
REMARK 927      BINDING AFFINITY PREDICTED BY RF-SCORE:    0.00 PKD
ROOT
HETATM    1  C   UNL     1      -8.434   6.706  69.643  1.00  0.00    -0.132 C  
HETATM    2  C   UNL     1      -7.181   7.286  70.299  1.00  0.00    -0.067 C  
HETATM    3  C   UNL     1      -7.524   7.444  71.732  1.00  0.00    -0.083 A  
HETATM    4  C   UNL     1      -7.297   8.404  72.678  1.00  0.00    -0.073 A  
HETATM    5  N   UNL     1      -7.711   7.880  73.883  1.00  0.00    -0.151 NA 
HETATM    6  H   UNL     1      -7.648   8.360  74.780  1.00  0.00     0.000 HD 
HETATM    7  C   UNL     1      -8.224   6.616  73.700  1.00  0.00    -0.113 A  
HETATM    8  C   UNL     1      -8.569   5.583  74.561  1.00  0.00    -0.110 A  
HETATM    9  C   UNL     1      -9.056   4.406  73.962  1.00  0.00    -0.110 A  
HETATM   10  C   UNL     1      -9.325   4.317  72.579  1.00  0.00    -0.155 A  
HETATM   11  C   UNL     1      -9.012   5.380  71.729  1.00  0.00    -0.146 A  
HETATM   12  C   UNL     1      -9.122   5.384  70.208  1.00  0.00    -0.166 C  
HETATM   13  C   UNL     1      -8.343   6.456  72.335  1.00  0.00    -0.106 A  
HETATM   14  C   UNL     1     -10.533   5.302  69.504  1.00  0.00    -0.304 C  
HETATM   15  C   UNL     1     -10.954   6.708  68.919  1.00  0.00    -0.325 C  
HETATM   16  N   UNL     1      -8.403   6.708  68.182  1.00  0.00    -0.117 NA 
HETATM   17  C   UNL     1      -9.816   7.036  67.820  1.00  0.00    -0.139 C  
ENDROOT
BRANCH  15  18
HETATM   18  C   UNL     1     -11.430   7.564  70.243  1.00  0.00    -0.152 C  
HETATM   19  N   UNL     1     -11.143   8.907  70.540  1.00  0.00    -0.247 N  
HETATM   20  O   UNL     1     -12.210   6.985  70.999  1.00  0.00    -0.361 OA 
BRANCH  19  21
HETATM   21  C   UNL     1     -11.873   9.535  71.704  1.00  0.00    -0.397 C  
BRANCH  21  22
HETATM   22  C   UNL     1     -13.231  10.252  71.504  1.00  0.00    -0.484 C  
HETATM   23  C   UNL     1     -13.534  11.700  71.989  1.00  0.00    -0.199 C  
BRANCH  23  24
HETATM   24  N   UNL     1     -12.664  12.869  71.735  1.00  0.00    -0.202 NA 
HETATM   25  C   UNL     1     -13.405  14.106  72.087  1.00  0.00    -0.436 C  
HETATM   26  C   UNL     1     -12.253  13.020  70.327  1.00  0.00    -0.296 C  
ENDBRANCH  23  24
ENDBRANCH  21  22
ENDBRANCH  19  21
BRANCH  19  27
HETATM   27  C   UNL     1     -10.606   9.763  69.587  1.00  0.00    -0.239 C  
HETATM   28  O   UNL     1      -9.449  10.170  69.602  1.00  0.00    -0.222 OA 
BRANCH  27  29
HETATM   29  N   UNL     1     -11.463  10.090  68.556  1.00  0.00    -0.520 N  
HETATM   30  H   UNL     1     -12.472  10.088  68.709  1.00  0.00     0.000 HD 
BRANCH  29  31
HETATM   31  C   UNL     1     -10.930  10.434  67.260  1.00  0.00    -0.240 C  
HETATM   32  C   UNL     1     -11.288  11.853  66.880  1.00  0.00    -0.392 C  
ENDBRANCH  29  31
ENDBRANCH  27  29
ENDBRANCH  19  27
ENDBRANCH  15  18
BRANCH  16  33
HETATM   33  C   UNL     1      -7.819   5.446  67.676  1.00  0.00    -0.100 C  
BRANCH  33  34
HETATM   34  C   UNL     1      -6.577   5.544  66.831  1.00  0.00    -0.056 C  
HETATM   35  C   UNL     1      -5.464   6.239  67.098  1.00  0.00    -0.009 C  
ENDBRANCH  33  34
ENDBRANCH  16  33
TORSDOF 9
ENDMDL
MODEL       60
REMARK 921   NORMALIZED FREE ENERGY PREDICTED BY IDOCK:   -5.13 KCAL/MOL
REMARK 922        TOTAL FREE ENERGY PREDICTED BY IDOCK:   -8.54 KCAL/MOL
REMARK 923 INTER-LIGAND FREE ENERGY PREDICTED BY IDOCK:   -7.20 KCAL/MOL
REMARK 924 INTRA-LIGAND FREE ENERGY PREDICTED BY IDOCK:   -1.34 KCAL/MOL
REMARK 927      BINDING AFFINITY PREDICTED BY RF-SCORE:    0.00 PKD
ROOT
HETATM    1  C   UNL     1      -8.977  10.987  66.385  1.00  0.00    -0.181 C  
HETATM    2  C   UNL     1      -7.508  11.104  66.789  1.00  0.00    -0.146 C  
HETATM    3  C   UNL     1      -7.495  10.987  68.266  1.00  0.00    -0.092 A  
HETATM    4  C   UNL     1      -6.829  11.620  69.278  1.00  0.00    -0.104 A  
HETATM    5  N   UNL     1      -7.115  10.930  70.435  1.00  0.00    -0.442 NA 
HETATM    6  H   UNL     1      -6.743  11.156  71.356  1.00  0.00     0.000 HD 
HETATM    7  C   UNL     1      -7.978   9.891  70.167  1.00  0.00    -0.162 A  
HETATM    8  C   UNL     1      -8.406   8.785  70.889  1.00  0.00    -0.196 A  
HETATM    9  C   UNL     1      -9.305   7.922  70.235  1.00  0.00    -0.159 A  
HETATM   10  C   UNL     1      -9.864   8.226  68.975  1.00  0.00    -0.176 A  
HETATM   11  C   UNL     1      -9.455   9.364  68.277  1.00  0.00    -0.147 A  
HETATM   12  C   UNL     1      -9.867   9.755  66.861  1.00  0.00    -0.256 C  
HETATM   13  C   UNL     1      -8.410  10.091  68.873  1.00  0.00    -0.130 A  
HETATM   14  C   UNL     1     -11.361  10.156  66.541  1.00  0.00     0.745 C  
HETATM   15  C   UNL     1     -11.495  11.717  66.346  1.00  0.00    -0.309 C  
HETATM   16  N   UNL     1      -9.245  11.330  64.990  1.00  0.00    -0.175 NA 
HETATM   17  C   UNL     1     -10.559  12.039  65.067  1.00  0.00    -0.289 C  
ENDROOT
BRANCH  15  18
HETATM   18  C   UNL     1     -11.441  12.318  67.879  1.00  0.00    -0.330 C  
HETATM   19  N   UNL     1     -11.164  13.638  68.269  1.00  0.00    -0.259 N  
HETATM   20  O   UNL     1     -11.785  11.538  68.767  1.00  0.00    -0.284 OA 
BRANCH  19  21
HETATM   21  C   UNL     1     -11.389  13.998  69.719  1.00  0.00    -0.179 C  
BRANCH  21  22
HETATM   22  C   UNL     1     -12.195  15.260  70.115  1.00  0.00    -0.402 C  
HETATM   23  C   UNL     1     -13.496  15.232  70.970  1.00  0.00    -0.452 C  
BRANCH  23  24
HETATM   24  N   UNL     1     -13.644  14.504  72.248  1.00  0.00    -0.399 NA 
HETATM   25  C   UNL     1     -12.566  14.933  73.175  1.00  0.00    -0.452 C  
HETATM   26  C   UNL     1     -13.524  13.040  72.125  1.00  0.00    -0.542 C  
ENDBRANCH  23  24
ENDBRANCH  21  22
ENDBRANCH  19  21
BRANCH  19  27
HETATM   27  C   UNL     1     -11.145  14.679  67.350  1.00  0.00    -0.326 C  
HETATM   28  O   UNL     1     -12.015  14.868  66.506  1.00  0.00    -0.237 OA 
BRANCH  27  29
HETATM   29  N   UNL     1     -10.085  15.552  67.488  1.00  0.00    -0.239 N  
HETATM   30  H   UNL     1     -10.081  16.235  68.246  1.00  0.00     0.000 HD 
BRANCH  29  31
HETATM   31  C   UNL     1      -8.983  15.499  66.558  1.00  0.00    -0.312 C  
HETATM   32  C   UNL     1      -7.913  14.542  67.032  1.00  0.00    -0.074 C  
ENDBRANCH  29  31
ENDBRANCH  27  29
ENDBRANCH  19  27
ENDBRANCH  15  18
BRANCH  16  33
HETATM   33  C   UNL     1      -9.141  10.128  64.133  1.00  0.00    -0.251 C  
BRANCH  33  34
HETATM   34  C   UNL     1      -7.911   9.989  63.276  1.00  0.00    -0.150 C  
HETATM   35  C   UNL     1      -6.778   9.342  63.579  1.00  0.00    -0.092 C  
ENDBRANCH  33  34
ENDBRANCH  16  33
TORSDOF 9
ENDMDL
MODEL       61
REMARK 921   NORMALIZED FREE ENERGY PREDICTED BY IDOCK:   -5.12 KCAL/MOL
REMARK 922        TOTAL FREE ENERGY PREDICTED BY IDOCK:   -8.52 KCAL/MOL
REMARK 923 INTER-LIGAND FREE ENERGY PREDICTED BY IDOCK:   -6.87 KCAL/MOL
REMARK 924 INTRA-LIGAND FREE ENERGY PREDICTED BY IDOCK:   -1.66 KCAL/MOL
REMARK 927      BINDING AFFINITY PREDICTED BY RF-SCORE:    0.00 PKD
ROOT
HETATM    1  C   UNL     1     -10.915  14.357  69.556  1.00  0.00    -0.197 C  
HETATM    2  C   UNL     1     -10.107  15.447  70.261  1.00  0.00    -0.053 C  
HETATM    3  C   UNL     1      -8.947  15.711  69.376  1.00  0.00    -0.265 A  
HETATM    4  C   UNL     1      -7.614  15.935  69.576  1.00  0.00    -0.143 A  
HETATM    5  N   UNL     1      -7.086  16.301  68.358  1.00  0.00    -0.132 NA 
HETATM    6  H   UNL     1      -6.111  16.551  68.196  1.00  0.00     0.000 HD 
HETATM    7  C   UNL     1      -8.065  16.279  67.390  1.00  0.00    -0.155 A  
HETATM    8  C   UNL     1      -8.140  16.750  66.086  1.00  0.00    -0.293 A  
HETATM    9  C   UNL     1      -9.360  16.540  65.415  1.00  0.00     0.559 A  
HETATM   10  C   UNL     1     -10.404  15.768  65.969  1.00  0.00    -0.356 A  
HETATM   11  C   UNL     1     -10.298  15.265  67.267  1.00  0.00    -0.264 A  
HETATM   12  C   UNL     1     -11.386  14.529  68.043  1.00  0.00    -0.326 C  
HETATM   13  C   UNL     1      -9.153  15.665  67.975  1.00  0.00    -0.183 A  
HETATM   14  C   UNL     1     -11.876  13.101  67.583  1.00  0.00    -0.405 C  
HETATM   15  C   UNL     1     -11.303  11.975  68.532  1.00  0.00    -0.323 C  
HETATM   16  N   UNL     1     -11.968  13.765  70.377  1.00  0.00    -0.327 NA 
HETATM   17  C   UNL     1     -11.928  12.324  69.981  1.00  0.00    -0.304 C  
ENDROOT
BRANCH  15  18
HETATM   18  C   UNL     1      -9.731  11.819  68.063  1.00  0.00    -0.185 C  
HETATM   19  N   UNL     1      -9.252  11.396  66.813  1.00  0.00    -0.172 N  
HETATM   20  O   UNL     1      -8.894  12.219  68.871  1.00  0.00     0.072 OA 
BRANCH  19  21
HETATM   21  C   UNL     1      -7.772  11.544  66.547  1.00  0.00    -0.052 C  
BRANCH  21  22
HETATM   22  C   UNL     1      -6.947  10.382  65.941  1.00  0.00    -0.131 C  
HETATM   23  C   UNL     1      -7.354   9.597  64.660  1.00  0.00    -0.123 C  
BRANCH  23  24
HETATM   24  N   UNL     1      -7.760  10.226  63.385  1.00  0.00    -0.148 NA 
HETATM   25  C   UNL     1      -8.760   9.356  62.715  1.00  0.00    -0.229 C  
HETATM   26  C   UNL     1      -6.657  10.403  62.422  1.00  0.00    -0.139 C  
ENDBRANCH  23  24
ENDBRANCH  21  22
ENDBRANCH  19  21
BRANCH  19  27
HETATM   27  C   UNL     1     -10.089  11.293  65.710  1.00  0.00    -0.247 C  
HETATM   28  O   UNL     1     -10.917  10.400  65.556  1.00  0.00     0.120 OA 
BRANCH  27  29
HETATM   29  N   UNL     1      -9.975  12.322  64.798  1.00  0.00    -0.422 N  
HETATM   30  H   UNL     1      -9.296  13.067  64.951  1.00  0.00     0.000 HD 
BRANCH  29  31
HETATM   31  C   UNL     1     -10.817  12.342  63.627  1.00  0.00    -0.462 C  
HETATM   32  C   UNL     1     -12.036  13.210  63.843  1.00  0.00    -0.550 C  
ENDBRANCH  29  31
ENDBRANCH  27  29
ENDBRANCH  19  27
ENDBRANCH  15  18
BRANCH  16  33
HETATM   33  C   UNL     1     -13.236  14.509  70.208  1.00  0.00     0.162 C  
BRANCH  33  34
HETATM   34  C   UNL     1     -14.005  14.865  71.453  1.00  0.00    -0.544 C  
HETATM   35  C   UNL     1     -13.565  15.561  72.509  1.00  0.00    -0.646 C  
ENDBRANCH  33  34
ENDBRANCH  16  33
TORSDOF 9
ENDMDL
MODEL       62
REMARK 921   NORMALIZED FREE ENERGY PREDICTED BY IDOCK:   -5.11 KCAL/MOL
REMARK 922        TOTAL FREE ENERGY PREDICTED BY IDOCK:   -8.51 KCAL/MOL
REMARK 923 INTER-LIGAND FREE ENERGY PREDICTED BY IDOCK:   -6.50 KCAL/MOL
REMARK 924 INTRA-LIGAND FREE ENERGY PREDICTED BY IDOCK:   -2.01 KCAL/MOL
REMARK 927      BINDING AFFINITY PREDICTED BY RF-SCORE:    0.00 PKD
ROOT
HETATM    1  C   UNL     1     -10.565   7.570  70.523  1.00  0.00    -0.225 C  
HETATM    2  C   UNL     1     -11.209   6.186  70.615  1.00  0.00    -0.387 C  
HETATM    3  C   UNL     1     -10.090   5.223  70.491  1.00  0.00    -0.315 A  
HETATM    4  C   UNL     1      -9.907   4.038  69.835  1.00  0.00    -0.115 A  
HETATM    5  N   UNL     1      -8.701   3.529  70.263  1.00  0.00    -0.062 NA 
HETATM    6  H   UNL     1      -8.303   2.640  69.963  1.00  0.00     0.000 HD 
HETATM    7  C   UNL     1      -8.111   4.395  71.156  1.00  0.00    -0.081 A  
HETATM    8  C   UNL     1      -7.038   4.291  72.032  1.00  0.00    -0.055 A  
HETATM    9  C   UNL     1      -6.755   5.429  72.810  1.00  0.00    -0.072 A  
HETATM   10  C   UNL     1      -7.417   6.661  72.616  1.00  0.00    -0.092 A  
HETATM   11  C   UNL     1      -8.467   6.763  71.701  1.00  0.00    -0.115 A  
HETATM   12  C   UNL     1      -9.357   7.981  71.477  1.00  0.00    -0.196 C  
HETATM   13  C   UNL     1      -8.852   5.556  71.093  1.00  0.00    -0.142 A  
HETATM   14  C   UNL     1      -8.762   9.310  70.866  1.00  0.00    -0.234 C  
HETATM   15  C   UNL     1      -9.202   9.483  69.359  1.00  0.00    -0.181 C  
HETATM   16  N   UNL     1     -11.518   8.667  70.369  1.00  0.00    -0.196 NA 
HETATM   17  C   UNL     1     -10.814   9.590  69.427  1.00  0.00    -0.206 C  
ENDROOT
BRANCH  15  18
HETATM   18  C   UNL     1      -8.242   8.426  68.538  1.00  0.00    -0.124 C  
HETATM   19  N   UNL     1      -8.586   7.655  67.415  1.00  0.00    -0.124 N  
HETATM   20  O   UNL     1      -7.064   8.393  68.892  1.00  0.00    -0.064 OA 
BRANCH  19  21
HETATM   21  C   UNL     1      -7.472   6.925  66.703  1.00  0.00    -0.082 C  
BRANCH  21  22
HETATM   22  C   UNL     1      -7.161   5.440  67.015  1.00  0.00    -0.078 C  
HETATM   23  C   UNL     1      -7.940   4.238  66.406  1.00  0.00    -0.098 C  
BRANCH  23  24
HETATM   24  N   UNL     1      -8.234   4.071  64.966  1.00  0.00    -0.100 NA 
HETATM   25  C   UNL     1      -9.686   4.286  64.742  1.00  0.00    -0.164 C  
HETATM   26  C   UNL     1      -7.930   2.728  64.440  1.00  0.00    -0.082 C  
ENDBRANCH  23  24
ENDBRANCH  21  22
ENDBRANCH  19  21
BRANCH  19  27
HETATM   27  C   UNL     1      -9.751   7.894  66.699  1.00  0.00    -0.235 C  
HETATM   28  O   UNL     1     -10.837   7.389  66.962  1.00  0.00    -0.354 OA 
BRANCH  27  29
HETATM   29  N   UNL     1      -9.623   8.814  65.677  1.00  0.00    -0.458 N  
HETATM   30  H   UNL     1      -9.130   8.561  64.821  1.00  0.00     0.000 HD 
BRANCH  29  31
HETATM   31  C   UNL     1     -10.188  10.133  65.822  1.00  0.00    -0.213 C  
HETATM   32  C   UNL     1      -9.110  11.169  66.050  1.00  0.00    -0.217 C  
ENDBRANCH  29  31
ENDBRANCH  27  29
ENDBRANCH  19  27
ENDBRANCH  15  18
BRANCH  16  33
HETATM   33  C   UNL     1     -11.928   9.186  71.692  1.00  0.00    -0.367 C  
BRANCH  33  34
HETATM   34  C   UNL     1     -13.056  10.183  71.729  1.00  0.00    -0.568 C  
HETATM   35  C   UNL     1     -12.960  11.519  71.730  1.00  0.00    -0.500 C  
ENDBRANCH  33  34
ENDBRANCH  16  33
TORSDOF 9
ENDMDL
MODEL       63
REMARK 921   NORMALIZED FREE ENERGY PREDICTED BY IDOCK:   -5.11 KCAL/MOL
REMARK 922        TOTAL FREE ENERGY PREDICTED BY IDOCK:   -8.50 KCAL/MOL
REMARK 923 INTER-LIGAND FREE ENERGY PREDICTED BY IDOCK:   -6.66 KCAL/MOL
REMARK 924 INTRA-LIGAND FREE ENERGY PREDICTED BY IDOCK:   -1.84 KCAL/MOL
REMARK 927      BINDING AFFINITY PREDICTED BY RF-SCORE:    0.00 PKD
ROOT
HETATM    1  C   UNL     1     -10.674   8.435  70.974  1.00  0.00    -0.223 C  
HETATM    2  C   UNL     1     -10.277   9.698  70.209  1.00  0.00    -0.333 C  
HETATM    3  C   UNL     1      -9.353   9.240  69.145  1.00  0.00    -0.157 A  
HETATM    4  C   UNL     1      -8.184   9.709  68.616  1.00  0.00    -0.105 A  
HETATM    5  N   UNL     1      -7.904   8.929  67.516  1.00  0.00    -0.101 NA 
HETATM    6  H   UNL     1      -7.100   9.053  66.901  1.00  0.00     0.000 HD 
HETATM    7  C   UNL     1      -8.867   7.956  67.367  1.00  0.00    -0.127 A  
HETATM    8  C   UNL     1      -9.191   7.072  66.347  1.00  0.00    -0.186 A  
HETATM    9  C   UNL     1     -10.290   6.224  66.581  1.00  0.00    -0.235 A  
HETATM   10  C   UNL     1     -10.942   6.160  67.832  1.00  0.00    -0.399 A  
HETATM   11  C   UNL     1     -10.578   7.028  68.863  1.00  0.00    -0.233 A  
HETATM   12  C   UNL     1     -11.270   7.166  70.216  1.00  0.00    -0.309 C  
HETATM   13  C   UNL     1      -9.615   7.993  68.525  1.00  0.00    -0.159 A  
HETATM   14  C   UNL     1     -11.233   5.985  71.263  1.00  0.00    -0.323 C  
HETATM   15  C   UNL     1     -10.230   6.307  72.440  1.00  0.00    -0.208 C  
HETATM   16  N   UNL     1     -11.384   8.689  72.226  1.00  0.00    -0.363 NA 
HETATM   17  C   UNL     1     -10.845   7.630  73.134  1.00  0.00    -0.382 C  
ENDROOT
BRANCH  15  18
HETATM   18  C   UNL     1      -8.743   6.049  71.779  1.00  0.00    -0.138 C  
HETATM   19  N   UNL     1      -8.224   4.838  71.290  1.00  0.00    -0.100 N  
HETATM   20  O   UNL     1      -8.057   7.056  71.603  1.00  0.00    -0.103 OA 
BRANCH  19  21
HETATM   21  C   UNL     1      -6.921   4.895  70.530  1.00  0.00    -0.044 C  
BRANCH  21  22
HETATM   22  C   UNL     1      -6.857   5.461  69.090  1.00  0.00    -0.054 C  
HETATM   23  C   UNL     1      -6.778   4.582  67.808  1.00  0.00    -0.051 C  
BRANCH  23  24
HETATM   24  N   UNL     1      -7.667   3.435  67.521  1.00  0.00    -0.076 NA 
HETATM   25  C   UNL     1      -6.940   2.175  67.821  1.00  0.00    -0.043 C  
HETATM   26  C   UNL     1      -8.092   3.340  66.112  1.00  0.00    -0.092 C  
ENDBRANCH  23  24
ENDBRANCH  21  22
ENDBRANCH  19  21
BRANCH  19  27
HETATM   27  C   UNL     1      -9.037   3.732  71.080  1.00  0.00    -0.114 C  
HETATM   28  O   UNL     1      -9.565   3.460  70.007  1.00  0.00    -0.181 OA 
BRANCH  27  29
HETATM   29  N   UNL     1      -9.169   2.896  72.171  1.00  0.00    -0.090 N  
HETATM   30  H   UNL     1      -8.387   2.766  72.812  1.00  0.00     0.000 HD 
BRANCH  29  31
HETATM   31  C   UNL     1     -10.415   2.206  72.401  1.00  0.00    -0.093 C  
HETATM   32  C   UNL     1     -11.178   2.824  73.551  1.00  0.00    -0.300 C  
ENDBRANCH  29  31
ENDBRANCH  27  29
ENDBRANCH  19  27
ENDBRANCH  15  18
BRANCH  16  33
HETATM   33  C   UNL     1     -12.844   8.742  71.991  1.00  0.00    -0.390 C  
BRANCH  33  34
HETATM   34  C   UNL     1     -13.525  10.076  72.144  1.00  0.00    -0.420 C  
HETATM   35  C   UNL     1     -13.073  11.271  71.742  1.00  0.00    -0.527 C  
ENDBRANCH  33  34
ENDBRANCH  16  33
TORSDOF 9
ENDMDL
MODEL       64
REMARK 921   NORMALIZED FREE ENERGY PREDICTED BY IDOCK:   -5.10 KCAL/MOL
REMARK 922        TOTAL FREE ENERGY PREDICTED BY IDOCK:   -8.49 KCAL/MOL
REMARK 923 INTER-LIGAND FREE ENERGY PREDICTED BY IDOCK:   -6.87 KCAL/MOL
REMARK 924 INTRA-LIGAND FREE ENERGY PREDICTED BY IDOCK:   -1.62 KCAL/MOL
REMARK 927      BINDING AFFINITY PREDICTED BY RF-SCORE:    0.00 PKD
ROOT
HETATM    1  C   UNL     1     -11.207  11.260  68.506  1.00  0.00    -0.252 C  
HETATM    2  C   UNL     1     -11.847  10.667  69.761  1.00  0.00    -0.377 C  
HETATM    3  C   UNL     1     -11.008   9.499  70.117  1.00  0.00    -0.302 A  
HETATM    4  C   UNL     1     -11.260   8.228  70.553  1.00  0.00    -0.239 A  
HETATM    5  N   UNL     1     -10.043   7.675  70.886  1.00  0.00    -0.191 NA 
HETATM    6  H   UNL     1      -9.913   6.737  71.264  1.00  0.00     0.000 HD 
HETATM    7  C   UNL     1      -9.029   8.571  70.635  1.00  0.00    -0.160 A  
HETATM    8  C   UNL     1      -7.683   8.622  70.974  1.00  0.00    -0.120 A  
HETATM    9  C   UNL     1      -6.969   9.749  70.528  1.00  0.00    -0.131 A  
HETATM   10  C   UNL     1      -7.535  10.708  69.660  1.00  0.00    -0.121 A  
HETATM   11  C   UNL     1      -8.879  10.622  69.293  1.00  0.00    -0.092 A  
HETATM   12  C   UNL     1      -9.661  11.644  68.474  1.00  0.00    -0.181 C  
HETATM   13  C   UNL     1      -9.609   9.597  69.919  1.00  0.00    -0.260 A  
HETATM   14  C   UNL     1      -9.313  11.892  66.954  1.00  0.00    -0.198 C  
HETATM   15  C   UNL     1     -10.397  11.232  66.013  1.00  0.00    -0.302 C  
HETATM   16  N   UNL     1     -12.021  12.272  67.837  1.00  0.00    -0.480 NA 
HETATM   17  C   UNL     1     -11.768  11.999  66.389  1.00  0.00    -0.252 C  
ENDROOT
BRANCH  15  18
HETATM   18  C   UNL     1     -10.033   9.625  66.052  1.00  0.00    -0.274 C  
HETATM   19  N   UNL     1      -8.917   8.988  65.487  1.00  0.00    -0.196 N  
HETATM   20  O   UNL     1     -10.776   8.929  66.746  1.00  0.00    -0.198 OA 
BRANCH  19  21
HETATM   21  C   UNL     1      -8.687   7.538  65.843  1.00  0.00    -0.147 C  
BRANCH  21  22
HETATM   22  C   UNL     1      -8.368   7.112  67.297  1.00  0.00    -0.119 C  
HETATM   23  C   UNL     1      -8.974   5.858  67.993  1.00  0.00    -0.118 C  
BRANCH  23  24
HETATM   24  N   UNL     1      -9.005   4.503  67.401  1.00  0.00    -0.110 NA 
HETATM   25  C   UNL     1     -10.058   4.458  66.355  1.00  0.00    -0.209 C  
HETATM   26  C   UNL     1      -9.331   3.433  68.362  1.00  0.00    -0.177 C  
ENDBRANCH  23  24
ENDBRANCH  21  22
ENDBRANCH  19  21
BRANCH  19  27
HETATM   27  C   UNL     1      -7.826   9.711  65.022  1.00  0.00    -0.118 C  
HETATM   28  O   UNL     1      -7.774  10.244  63.919  1.00  0.00    -0.151 OA 
BRANCH  27  29
HETATM   29  N   UNL     1      -6.795   9.850  65.930  1.00  0.00    -0.096 N  
HETATM   30  H   UNL     1      -6.801   9.312  66.796  1.00  0.00     0.000 HD 
BRANCH  29  31
HETATM   31  C   UNL     1      -5.710  10.759  65.651  1.00  0.00    -0.128 C  
HETATM   32  C   UNL     1      -5.430  11.657  66.835  1.00  0.00    -0.129 C  
ENDBRANCH  29  31
ENDBRANCH  27  29
ENDBRANCH  19  27
ENDBRANCH  15  18
BRANCH  16  33
HETATM   33  C   UNL     1     -11.711  13.619  68.366  1.00  0.00    -0.358 C  
BRANCH  33  34
HETATM   34  C   UNL     1     -11.724  14.768  67.395  1.00  0.00    -0.371 C  
HETATM   35  C   UNL     1     -10.709  15.586  67.087  1.00  0.00    -0.315 C  
ENDBRANCH  33  34
ENDBRANCH  16  33
TORSDOF 9
ENDMDL
MODEL       65
REMARK 921   NORMALIZED FREE ENERGY PREDICTED BY IDOCK:   -5.09 KCAL/MOL
REMARK 922        TOTAL FREE ENERGY PREDICTED BY IDOCK:   -8.48 KCAL/MOL
REMARK 923 INTER-LIGAND FREE ENERGY PREDICTED BY IDOCK:   -6.67 KCAL/MOL
REMARK 924 INTRA-LIGAND FREE ENERGY PREDICTED BY IDOCK:   -1.81 KCAL/MOL
REMARK 927      BINDING AFFINITY PREDICTED BY RF-SCORE:    0.00 PKD
ROOT
HETATM    1  C   UNL     1      -9.003  10.575  66.260  1.00  0.00    -0.158 C  
HETATM    2  C   UNL     1     -10.316  11.185  65.770  1.00  0.00    -0.316 C  
HETATM    3  C   UNL     1     -10.768  12.077  66.863  1.00  0.00    -0.282 A  
HETATM    4  C   UNL     1     -11.973  12.351  67.448  1.00  0.00    -0.175 A  
HETATM    5  N   UNL     1     -11.769  13.417  68.296  1.00  0.00    -0.336 NA 
HETATM    6  H   UNL     1     -12.493  13.862  68.859  1.00  0.00     0.000 HD 
HETATM    7  C   UNL     1     -10.445  13.795  68.274  1.00  0.00    -0.248 A  
HETATM    8  C   UNL     1      -9.753  14.902  68.747  1.00  0.00    -0.225 A  
HETATM    9  C   UNL     1      -8.367  14.923  68.501  1.00  0.00    -0.160 A  
HETATM   10  C   UNL     1      -7.682  13.823  67.940  1.00  0.00    -0.161 A  
HETATM   11  C   UNL     1      -8.387  12.698  67.507  1.00  0.00    -0.177 A  
HETATM   12  C   UNL     1      -7.806  11.496  66.769  1.00  0.00    -0.146 C  
HETATM   13  C   UNL     1      -9.786  12.799  67.585  1.00  0.00    -0.205 A  
HETATM   14  C   UNL     1      -6.793  10.522  67.490  1.00  0.00    -0.075 C  
HETATM   15  C   UNL     1      -7.498   9.162  67.876  1.00  0.00    -0.084 C  
HETATM   16  N   UNL     1      -8.512   9.469  65.442  1.00  0.00    -0.140 NA 
HETATM   17  C   UNL     1      -7.944   8.530  66.457  1.00  0.00    -0.099 C  
ENDROOT
BRANCH  15  18
HETATM   18  C   UNL     1      -8.402   9.543  69.200  1.00  0.00    -0.125 C  
HETATM   19  N   UNL     1      -9.680   9.062  69.528  1.00  0.00    -0.167 N  
HETATM   20  O   UNL     1      -7.842  10.247  70.041  1.00  0.00    -0.157 OA 
BRANCH  19  21
HETATM   21  C   UNL     1     -10.214   9.384  70.903  1.00  0.00    -0.303 C  
BRANCH  21  22
HETATM   22  C   UNL     1      -9.772   8.570  72.145  1.00  0.00    -0.387 C  
HETATM   23  C   UNL     1     -10.653   7.493  72.842  1.00  0.00    -0.337 C  
BRANCH  23  24
HETATM   24  N   UNL     1     -11.352   6.397  72.137  1.00  0.00    -0.276 NA 
HETATM   25  C   UNL     1     -12.775   6.777  71.946  1.00  0.00    -0.255 C  
HETATM   26  C   UNL     1     -11.362   5.118  72.870  1.00  0.00    -0.282 C  
ENDBRANCH  23  24
ENDBRANCH  21  22
ENDBRANCH  19  21
BRANCH  19  27
HETATM   27  C   UNL     1     -10.241   7.979  68.864  1.00  0.00    -0.209 C  
HETATM   28  O   UNL     1     -10.869   8.067  67.814  1.00  0.00    -0.146 OA 
BRANCH  27  29
HETATM   29  N   UNL     1      -9.989   6.752  69.442  1.00  0.00    -0.156 N  
HETATM   30  H   UNL     1     -10.717   6.281  69.980  1.00  0.00     0.000 HD 
BRANCH  29  31
HETATM   31  C   UNL     1      -8.695   6.135  69.285  1.00  0.00    -0.122 C  
HETATM   32  C   UNL     1      -8.365   5.246  70.463  1.00  0.00    -0.112 C  
ENDBRANCH  29  31
ENDBRANCH  27  29
ENDBRANCH  19  27
ENDBRANCH  15  18
BRANCH  16  33
HETATM   33  C   UNL     1      -7.624   9.972  64.370  1.00  0.00    -0.145 C  
BRANCH  33  34
HETATM   34  C   UNL     1      -8.155   9.954  62.961  1.00  0.00    -0.147 C  
HETATM   35  C   UNL     1      -8.970  10.848  62.387  1.00  0.00    -0.353 C  
ENDBRANCH  33  34
ENDBRANCH  16  33
TORSDOF 9
ENDMDL
MODEL       66
REMARK 921   NORMALIZED FREE ENERGY PREDICTED BY IDOCK:   -5.07 KCAL/MOL
REMARK 922        TOTAL FREE ENERGY PREDICTED BY IDOCK:   -8.44 KCAL/MOL
REMARK 923 INTER-LIGAND FREE ENERGY PREDICTED BY IDOCK:   -6.49 KCAL/MOL
REMARK 924 INTRA-LIGAND FREE ENERGY PREDICTED BY IDOCK:   -1.96 KCAL/MOL
REMARK 927      BINDING AFFINITY PREDICTED BY RF-SCORE:    0.00 PKD
ROOT
HETATM    1  C   UNL     1      -8.069   6.378  67.813  1.00  0.00    -0.115 C  
HETATM    2  C   UNL     1      -6.736   6.386  68.561  1.00  0.00    -0.068 C  
HETATM    3  C   UNL     1      -7.033   5.822  69.899  1.00  0.00    -0.066 A  
HETATM    4  C   UNL     1      -6.656   6.124  71.178  1.00  0.00    -0.050 A  
HETATM    5  N   UNL     1      -7.126   5.109  71.981  1.00  0.00    -0.080 NA 
HETATM    6  H   UNL     1      -6.981   5.047  72.988  1.00  0.00     0.000 HD 
HETATM    7  C   UNL     1      -7.820   4.189  71.227  1.00  0.00    -0.071 A  
HETATM    8  C   UNL     1      -8.299   2.910  71.471  1.00  0.00    -0.081 A  
HETATM    9  C   UNL     1      -8.961   2.276  70.402  1.00  0.00    -0.154 A  
HETATM   10  C   UNL     1      -9.259   2.944  69.195  1.00  0.00    -0.220 A  
HETATM   11  C   UNL     1      -8.806   4.247  68.978  1.00  0.00    -0.136 A  
HETATM   12  C   UNL     1      -8.935   5.046  67.686  1.00  0.00    -0.115 C  
HETATM   13  C   UNL     1      -7.979   4.770  69.986  1.00  0.00    -0.069 A  
HETATM   14  C   UNL     1     -10.352   5.505  67.162  1.00  0.00    -0.301 C  
HETATM   15  C   UNL     1     -10.572   7.049  67.411  1.00  0.00    -0.372 C  
HETATM   16  N   UNL     1      -8.058   7.128  66.558  1.00  0.00    -0.111 NA 
HETATM   17  C   UNL     1      -9.413   7.760  66.537  1.00  0.00    -0.201 C  
ENDROOT
BRANCH  15  18
HETATM   18  C   UNL     1     -10.900   7.152  69.022  1.00  0.00    -0.146 C  
HETATM   19  N   UNL     1     -10.613   8.222  69.886  1.00  0.00    -0.231 N  
HETATM   20  O   UNL     1     -11.563   6.226  69.489  1.00  0.00    -0.423 OA 
BRANCH  19  21
HETATM   21  C   UNL     1     -11.207   8.176  71.273  1.00  0.00    -0.260 C  
BRANCH  21  22
HETATM   22  C   UNL     1     -10.308   8.264  72.532  1.00  0.00    -0.401 C  
HETATM   23  C   UNL     1     -10.247   7.173  73.640  1.00  0.00    -0.359 C  
BRANCH  23  24
HETATM   24  N   UNL     1     -10.072   5.727  73.384  1.00  0.00    -0.184 NA 
HETATM   25  C   UNL     1     -11.385   5.139  73.019  1.00  0.00    -0.309 C  
HETATM   26  C   UNL     1      -9.588   4.963  74.549  1.00  0.00    -0.141 C  
ENDBRANCH  23  24
ENDBRANCH  21  22
ENDBRANCH  19  21
BRANCH  19  27
HETATM   27  C   UNL     1     -10.222   9.463  69.400  1.00  0.00    -0.207 C  
HETATM   28  O   UNL     1      -9.082   9.908  69.486  1.00  0.00    -0.194 OA 
BRANCH  27  29
HETATM   29  N   UNL     1     -11.211  10.162  68.738  1.00  0.00    -0.412 N  
HETATM   30  H   UNL     1     -11.741   9.713  67.991  1.00  0.00     0.000 HD 
BRANCH  29  31
HETATM   31  C   UNL     1     -11.494  11.528  69.104  1.00  0.00    -0.297 C  
HETATM   32  C   UNL     1     -11.912  11.632  70.553  1.00  0.00    -0.413 C  
ENDBRANCH  29  31
ENDBRANCH  27  29
ENDBRANCH  19  27
ENDBRANCH  15  18
BRANCH  16  33
HETATM   33  C   UNL     1      -7.671   6.248  65.433  1.00  0.00    -0.097 C  
BRANCH  33  34
HETATM   34  C   UNL     1      -7.632   6.855  64.057  1.00  0.00    -0.112 C  
HETATM   35  C   UNL     1      -7.745   6.219  62.883  1.00  0.00    -0.089 C  
ENDBRANCH  33  34
ENDBRANCH  16  33
TORSDOF 9
ENDMDL
MODEL       67
REMARK 921   NORMALIZED FREE ENERGY PREDICTED BY IDOCK:   -5.02 KCAL/MOL
REMARK 922        TOTAL FREE ENERGY PREDICTED BY IDOCK:   -8.38 KCAL/MOL
REMARK 923 INTER-LIGAND FREE ENERGY PREDICTED BY IDOCK:   -6.60 KCAL/MOL
REMARK 924 INTRA-LIGAND FREE ENERGY PREDICTED BY IDOCK:   -1.78 KCAL/MOL
REMARK 927      BINDING AFFINITY PREDICTED BY RF-SCORE:    0.00 PKD
ROOT
HETATM    1  C   UNL     1      -7.926   9.847  66.823  1.00  0.00    -0.116 C  
HETATM    2  C   UNL     1      -6.733  10.661  67.324  1.00  0.00    -0.078 C  
HETATM    3  C   UNL     1      -6.658  10.395  68.780  1.00  0.00    -0.052 A  
HETATM    4  C   UNL     1      -6.419  11.158  69.888  1.00  0.00    -0.142 A  
HETATM    5  N   UNL     1      -6.301  10.289  70.951  1.00  0.00    -0.320 NA 
HETATM    6  H   UNL     1      -6.100  10.565  71.911  1.00  0.00     0.000 HD 
HETATM    7  C   UNL     1      -6.494   8.993  70.528  1.00  0.00    -0.051 A  
HETATM    8  C   UNL     1      -6.280   7.750  71.108  1.00  0.00    -0.034 A  
HETATM    9  C   UNL     1      -6.597   6.629  70.317  1.00  0.00    -0.045 A  
HETATM   10  C   UNL     1      -7.235   6.745  69.063  1.00  0.00    -0.091 A  
HETATM   11  C   UNL     1      -7.482   8.003  68.509  1.00  0.00    -0.102 A  
HETATM   12  C   UNL     1      -8.040   8.286  67.118  1.00  0.00    -0.108 C  
HETATM   13  C   UNL     1      -6.970   9.090  69.237  1.00  0.00    -0.057 A  
HETATM   14  C   UNL     1      -9.524   7.888  66.751  1.00  0.00    -0.257 C  
HETATM   15  C   UNL     1     -10.454   9.164  66.707  1.00  0.00    -0.266 C  
HETATM   16  N   UNL     1      -8.336  10.162  65.456  1.00  0.00    -0.151 NA 
HETATM   17  C   UNL     1      -9.827  10.072  65.526  1.00  0.00    -0.303 C  
ENDROOT
BRANCH  15  18
HETATM   18  C   UNL     1     -10.719   9.520  68.294  1.00  0.00    -0.194 C  
HETATM   19  N   UNL     1     -10.878  10.792  68.868  1.00  0.00    -0.210 N  
HETATM   20  O   UNL     1     -10.899   8.552  69.033  1.00  0.00    -0.140 OA 
BRANCH  19  21
HETATM   21  C   UNL     1     -11.330  10.855  70.308  1.00  0.00    -0.256 C  
BRANCH  21  22
HETATM   22  C   UNL     1     -12.780  11.257  70.676  1.00  0.00    -0.314 C  
HETATM   23  C   UNL     1     -13.144  12.347  71.726  1.00  0.00    -0.342 C  
BRANCH  23  24
HETATM   24  N   UNL     1     -12.556  13.703  71.766  1.00  0.00    -0.251 NA 
HETATM   25  C   UNL     1     -13.313  14.528  72.741  1.00  0.00    -0.507 C  
HETATM   26  C   UNL     1     -12.616  14.425  70.481  1.00  0.00    -0.353 C  
ENDBRANCH  23  24
ENDBRANCH  21  22
ENDBRANCH  19  21
BRANCH  19  27
HETATM   27  C   UNL     1     -11.081  11.922  68.087  1.00  0.00    -0.242 C  
HETATM   28  O   UNL     1     -12.022  12.064  67.313  1.00  0.00    -0.591 OA 
BRANCH  27  29
HETATM   29  N   UNL     1     -10.164  12.934  68.285  1.00  0.00    -0.241 N  
HETATM   30  H   UNL     1     -10.125  13.419  69.182  1.00  0.00     0.000 HD 
BRANCH  29  31
HETATM   31  C   UNL     1      -9.262  13.306  67.223  1.00  0.00    -0.222 C  
HETATM   32  C   UNL     1      -8.382  14.465  67.631  1.00  0.00    -0.186 C  
ENDBRANCH  29  31
ENDBRANCH  27  29
ENDBRANCH  19  27
ENDBRANCH  15  18
BRANCH  16  33
HETATM   33  C   UNL     1      -7.621   9.299  64.490  1.00  0.00    -0.107 C  
BRANCH  33  34
HETATM   34  C   UNL     1      -6.462   9.904  63.742  1.00  0.00    -0.126 C  
HETATM   35  C   UNL     1      -6.475  10.433  62.512  1.00  0.00    -0.146 C  
ENDBRANCH  33  34
ENDBRANCH  16  33
TORSDOF 9
ENDMDL
MODEL       68
REMARK 921   NORMALIZED FREE ENERGY PREDICTED BY IDOCK:   -4.98 KCAL/MOL
REMARK 922        TOTAL FREE ENERGY PREDICTED BY IDOCK:   -8.30 KCAL/MOL
REMARK 923 INTER-LIGAND FREE ENERGY PREDICTED BY IDOCK:   -7.13 KCAL/MOL
REMARK 924 INTRA-LIGAND FREE ENERGY PREDICTED BY IDOCK:   -1.17 KCAL/MOL
REMARK 927      BINDING AFFINITY PREDICTED BY RF-SCORE:    0.00 PKD
ROOT
HETATM    1  C   UNL     1      -8.673   6.223  68.744  1.00  0.00    -0.121 C  
HETATM    2  C   UNL     1      -7.352   6.202  69.512  1.00  0.00    -0.080 C  
HETATM    3  C   UNL     1      -7.518   7.183  70.610  1.00  0.00    -0.081 A  
HETATM    4  C   UNL     1      -6.724   8.142  71.174  1.00  0.00    -0.044 A  
HETATM    5  N   UNL     1      -7.390   8.603  72.288  1.00  0.00    -0.288 NA 
HETATM    6  H   UNL     1      -7.034   9.312  72.929  1.00  0.00     0.000 HD 
HETATM    7  C   UNL     1      -8.605   7.968  72.413  1.00  0.00    -0.163 A  
HETATM    8  C   UNL     1      -9.549   7.886  73.428  1.00  0.00    -0.331 A  
HETATM    9  C   UNL     1     -10.684   7.097  73.163  1.00  0.00    -0.385 A  
HETATM   10  C   UNL     1     -10.935   6.536  71.892  1.00  0.00    -0.288 A  
HETATM   11  C   UNL     1      -9.995   6.661  70.867  1.00  0.00    -0.204 A  
HETATM   12  C   UNL     1     -10.064   6.005  69.491  1.00  0.00    -0.246 C  
HETATM   13  C   UNL     1      -8.788   7.282  71.230  1.00  0.00    -0.135 A  
HETATM   14  C   UNL     1     -11.178   6.427  68.455  1.00  0.00    -0.297 C  
HETATM   15  C   UNL     1     -10.569   7.329  67.309  1.00  0.00    -0.395 C  
HETATM   16  N   UNL     1      -8.638   5.513  67.468  1.00  0.00    -0.109 NA 
HETATM   17  C   UNL     1      -9.486   6.372  66.585  1.00  0.00    -0.161 C  
ENDROOT
BRANCH  15  18
HETATM   18  C   UNL     1     -10.377   8.802  68.021  1.00  0.00    -0.220 C  
HETATM   19  N   UNL     1      -9.681   9.911  67.513  1.00  0.00    -0.156 N  
HETATM   20  O   UNL     1     -11.003   8.972  69.067  1.00  0.00    -0.120 OA 
BRANCH  19  21
HETATM   21  C   UNL     1      -9.829  11.223  68.247  1.00  0.00    -0.197 C  
BRANCH  21  22
HETATM   22  C   UNL     1      -9.004  12.468  67.837  1.00  0.00    -0.188 C  
HETATM   23  C   UNL     1      -9.586  13.685  67.062  1.00  0.00    -0.251 C  
BRANCH  23  24
HETATM   24  N   UNL     1     -10.830  14.396  67.429  1.00  0.00    -0.287 NA 
HETATM   25  C   UNL     1     -11.923  13.951  66.528  1.00  0.00    -0.439 C  
HETATM   26  C   UNL     1     -10.750  15.862  67.289  1.00  0.00    -0.306 C  
ENDBRANCH  23  24
ENDBRANCH  21  22
ENDBRANCH  19  21
BRANCH  19  27
HETATM   27  C   UNL     1      -9.269   9.966  66.188  1.00  0.00    -0.168 C  
HETATM   28  O   UNL     1      -8.147   9.653  65.804  1.00  0.00    -0.109 OA 
BRANCH  27  29
HETATM   29  N   UNL     1     -10.248  10.347  65.293  1.00  0.00    -0.291 N  
HETATM   30  H   UNL     1     -11.220  10.086  65.458  1.00  0.00     0.000 HD 
BRANCH  29  31
HETATM   31  C   UNL     1      -9.894  11.113  64.123  1.00  0.00    -0.291 C  
HETATM   32  C   UNL     1     -11.083  11.878  63.588  1.00  0.00    -0.517 C  
ENDBRANCH  29  31
ENDBRANCH  27  29
ENDBRANCH  19  27
ENDBRANCH  15  18
BRANCH  16  33
HETATM   33  C   UNL     1      -9.021   4.096  67.653  1.00  0.00    -0.121 C  
BRANCH  33  34
HETATM   34  C   UNL     1      -7.938   3.059  67.514  1.00  0.00    -0.076 C  
HETATM   35  C   UNL     1      -8.076   1.788  67.114  1.00  0.00    -0.068 C  
ENDBRANCH  33  34
ENDBRANCH  16  33
TORSDOF 9
ENDMDL
MODEL       69
REMARK 921   NORMALIZED FREE ENERGY PREDICTED BY IDOCK:   -4.97 KCAL/MOL
REMARK 922        TOTAL FREE ENERGY PREDICTED BY IDOCK:   -8.30 KCAL/MOL
REMARK 923 INTER-LIGAND FREE ENERGY PREDICTED BY IDOCK:   -6.90 KCAL/MOL
REMARK 924 INTRA-LIGAND FREE ENERGY PREDICTED BY IDOCK:   -1.41 KCAL/MOL
REMARK 927      BINDING AFFINITY PREDICTED BY RF-SCORE:    0.00 PKD
ROOT
HETATM    1  C   UNL     1      -8.756   6.249  68.016  1.00  0.00    -0.114 C  
HETATM    2  C   UNL     1      -7.836   5.611  69.057  1.00  0.00    -0.096 C  
HETATM    3  C   UNL     1      -7.836   6.544  70.208  1.00  0.00    -0.107 A  
HETATM    4  C   UNL     1      -6.882   7.021  71.062  1.00  0.00    -0.057 A  
HETATM    5  N   UNL     1      -7.545   7.722  72.045  1.00  0.00    -0.076 NA 
HETATM    6  H   UNL     1      -7.096   8.179  72.839  1.00  0.00     0.000 HD 
HETATM    7  C   UNL     1      -8.900   7.716  71.802  1.00  0.00    -0.116 A  
HETATM    8  C   UNL     1     -10.014   8.065  72.554  1.00  0.00    -0.338 A  
HETATM    9  C   UNL     1     -11.265   7.891  71.933  1.00  0.00    -0.320 A  
HETATM   10  C   UNL     1     -11.391   7.526  70.575  1.00  0.00    -0.279 A  
HETATM   11  C   UNL     1     -10.259   7.218  69.818  1.00  0.00    -0.214 A  
HETATM   12  C   UNL     1     -10.243   6.686  68.389  1.00  0.00    -0.188 C  
HETATM   13  C   UNL     1      -9.046   7.208  70.528  1.00  0.00    -0.155 A  
HETATM   14  C   UNL     1     -10.737   7.588  67.190  1.00  0.00    -0.379 C  
HETATM   15  C   UNL     1      -9.514   8.123  66.346  1.00  0.00    -0.285 C  
HETATM   16  N   UNL     1      -8.701   5.620  66.698  1.00  0.00    -0.116 NA 
HETATM   17  C   UNL     1      -8.816   6.785  65.768  1.00  0.00    -0.069 C  
ENDROOT
BRANCH  15  18
HETATM   18  C   UNL     1      -8.888   9.332  67.273  1.00  0.00    -0.124 C  
HETATM   19  N   UNL     1      -9.514  10.531  67.650  1.00  0.00    -0.149 N  
HETATM   20  O   UNL     1      -7.786   9.102  67.773  1.00  0.00    -0.099 OA 
BRANCH  19  21
HETATM   21  C   UNL     1      -8.821  11.385  68.685  1.00  0.00    -0.125 C  
BRANCH  21  22
HETATM   22  C   UNL     1      -8.260  12.783  68.325  1.00  0.00    -0.159 C  
HETATM   23  C   UNL     1      -9.028  13.840  67.478  1.00  0.00    -0.201 C  
BRANCH  23  24
HETATM   24  N   UNL     1     -10.426  14.255  67.722  1.00  0.00    -0.244 NA 
HETATM   25  C   UNL     1     -10.760  15.381  66.813  1.00  0.00    -0.310 C  
HETATM   26  C   UNL     1     -10.682  14.740  69.090  1.00  0.00    -0.254 C  
ENDBRANCH  23  24
ENDBRANCH  21  22
ENDBRANCH  19  21
BRANCH  19  27
HETATM   27  C   UNL     1     -10.878  10.725  67.474  1.00  0.00    -0.288 C  
HETATM   28  O   UNL     1     -11.390  11.093  66.422  1.00  0.00    -0.238 OA 
BRANCH  27  29
HETATM   29  N   UNL     1     -11.654  10.409  68.571  1.00  0.00    -0.516 N  
HETATM   30  H   UNL     1     -11.810   9.432  68.821  1.00  0.00     0.000 HD 
BRANCH  29  31
HETATM   31  C   UNL     1     -12.243  11.461  69.362  1.00  0.00    -0.221 C  
HETATM   32  C   UNL     1     -12.146  11.156  70.839  1.00  0.00    -0.427 C  
ENDBRANCH  29  31
ENDBRANCH  27  29
ENDBRANCH  19  27
ENDBRANCH  15  18
BRANCH  16  33
HETATM   33  C   UNL     1      -9.704   4.536  66.600  1.00  0.00    -0.207 C  
BRANCH  33  34
HETATM   34  C   UNL     1     -10.481   4.423  65.316  1.00  0.00    -0.204 C  
HETATM   35  C   UNL     1     -10.179   3.677  64.245  1.00  0.00    -0.223 C  
ENDBRANCH  33  34
ENDBRANCH  16  33
TORSDOF 9
ENDMDL
MODEL       70
REMARK 921   NORMALIZED FREE ENERGY PREDICTED BY IDOCK:   -4.95 KCAL/MOL
REMARK 922        TOTAL FREE ENERGY PREDICTED BY IDOCK:   -8.27 KCAL/MOL
REMARK 923 INTER-LIGAND FREE ENERGY PREDICTED BY IDOCK:   -8.29 KCAL/MOL
REMARK 924 INTRA-LIGAND FREE ENERGY PREDICTED BY IDOCK:    0.02 KCAL/MOL
REMARK 927      BINDING AFFINITY PREDICTED BY RF-SCORE:    0.00 PKD
ROOT
HETATM    1  C   UNL     1     -10.924   7.928  70.217  1.00  0.00    -0.248 C  
HETATM    2  C   UNL     1     -11.057   6.562  69.543  1.00  0.00    -0.425 C  
HETATM    3  C   UNL     1     -10.556   6.755  68.162  1.00  0.00    -0.279 A  
HETATM    4  C   UNL     1     -10.955   6.334  66.924  1.00  0.00    -0.329 A  
HETATM    5  N   UNL     1      -9.963   6.698  66.042  1.00  0.00    -0.372 NA 
HETATM    6  H   UNL     1      -9.969   6.499  65.042  1.00  0.00     0.000 HD 
HETATM    7  C   UNL     1      -8.960   7.370  66.705  1.00  0.00    -0.146 A  
HETATM    8  C   UNL     1      -7.671   7.755  66.363  1.00  0.00    -0.093 A  
HETATM    9  C   UNL     1      -6.936   8.428  67.358  1.00  0.00    -0.071 A  
HETATM   10  C   UNL     1      -7.513   8.827  68.583  1.00  0.00    -0.092 A  
HETATM   11  C   UNL     1      -8.825   8.469  68.896  1.00  0.00    -0.139 A  
HETATM   12  C   UNL     1      -9.538   8.713  70.223  1.00  0.00    -0.186 C  
HETATM   13  C   UNL     1      -9.457   7.627  67.966  1.00  0.00    -0.151 A  
HETATM   14  C   UNL     1      -9.879  10.181  70.694  1.00  0.00     0.335 C  
HETATM   15  C   UNL     1     -11.419  10.485  70.521  1.00  0.00    -0.433 C  
HETATM   16  N   UNL     1     -11.598   8.027  71.510  1.00  0.00    -0.266 NA 
HETATM   17  C   UNL     1     -12.145   9.419  71.495  1.00  0.00    -0.379 C  
ENDROOT
BRANCH  15  18
HETATM   18  C   UNL     1     -11.597  10.737  68.902  1.00  0.00    -0.291 C  
HETATM   19  N   UNL     1     -11.663  11.970  68.233  1.00  0.00    -0.330 N  
HETATM   20  O   UNL     1     -11.562   9.727  68.200  1.00  0.00     0.060 OA 
BRANCH  19  21
HETATM   21  C   UNL     1     -11.606  11.948  66.724  1.00  0.00    -0.268 C  
BRANCH  21  22
HETATM   22  C   UNL     1     -11.514  13.261  65.907  1.00  0.00    -0.359 C  
HETATM   23  C   UNL     1     -10.839  13.374  64.509  1.00  0.00    -0.406 C  
BRANCH  23  24
HETATM   24  N   UNL     1     -11.101  12.463  63.374  1.00  0.00    -0.448 NA 
HETATM   25  C   UNL     1     -12.567  12.273  63.238  1.00  0.00    -0.318 C  
HETATM   26  C   UNL     1     -10.524  11.116  63.537  1.00  0.00    -0.358 C  
ENDBRANCH  23  24
ENDBRANCH  21  22
ENDBRANCH  19  21
BRANCH  19  27
HETATM   27  C   UNL     1     -11.328  13.160  68.866  1.00  0.00    -0.289 C  
HETATM   28  O   UNL     1     -12.136  13.893  69.426  1.00  0.00    -0.324 OA 
BRANCH  27  29
HETATM   29  N   UNL     1      -9.978  13.446  68.881  1.00  0.00    -0.431 N  
HETATM   30  H   UNL     1      -9.306  12.726  69.145  1.00  0.00     0.000 HD 
BRANCH  29  31
HETATM   31  C   UNL     1      -9.519  14.766  68.522  1.00  0.00    -0.214 C  
HETATM   32  C   UNL     1      -8.097  14.995  68.982  1.00  0.00    -0.178 C  
ENDBRANCH  29  31
ENDBRANCH  27  29
ENDBRANCH  19  27
ENDBRANCH  15  18
BRANCH  16  33
HETATM   33  C   UNL     1     -10.678   7.643  72.604  1.00  0.00    -0.321 C  
BRANCH  33  34
HETATM   34  C   UNL     1     -10.954   6.350  73.323  1.00  0.00    -0.218 C  
HETATM   35  C   UNL     1     -11.521   5.245  72.821  1.00  0.00    -0.317 C  
ENDBRANCH  33  34
ENDBRANCH  16  33
TORSDOF 9
ENDMDL
MODEL       71
REMARK 921   NORMALIZED FREE ENERGY PREDICTED BY IDOCK:   -4.94 KCAL/MOL
REMARK 922        TOTAL FREE ENERGY PREDICTED BY IDOCK:   -8.25 KCAL/MOL
REMARK 923 INTER-LIGAND FREE ENERGY PREDICTED BY IDOCK:   -6.91 KCAL/MOL
REMARK 924 INTRA-LIGAND FREE ENERGY PREDICTED BY IDOCK:   -1.34 KCAL/MOL
REMARK 927      BINDING AFFINITY PREDICTED BY RF-SCORE:    0.00 PKD
ROOT
HETATM    1  C   UNL     1      -9.827  12.240  67.770  1.00  0.00    -0.201 C  
HETATM    2  C   UNL     1      -8.615  13.133  67.509  1.00  0.00    -0.196 C  
HETATM    3  C   UNL     1      -7.500  12.205  67.206  1.00  0.00    -0.152 A  
HETATM    4  C   UNL     1      -6.177  12.145  67.544  1.00  0.00    -0.130 A  
HETATM    5  N   UNL     1      -5.621  11.133  66.793  1.00  0.00    -0.085 NA 
HETATM    6  H   UNL     1      -4.639  10.864  66.812  1.00  0.00     0.000 HD 
HETATM    7  C   UNL     1      -6.586  10.537  66.010  1.00  0.00    -0.127 A  
HETATM    8  C   UNL     1      -6.546   9.650  64.944  1.00  0.00    -0.093 A  
HETATM    9  C   UNL     1      -7.788   9.284  64.389  1.00  0.00    -0.123 A  
HETATM   10  C   UNL     1      -9.017   9.671  64.966  1.00  0.00    -0.255 A  
HETATM   11  C   UNL     1      -9.041  10.532  66.066  1.00  0.00    -0.191 A  
HETATM   12  C   UNL     1     -10.282  11.138  66.713  1.00  0.00    -0.272 C  
HETATM   13  C   UNL     1      -7.790  11.034  66.463  1.00  0.00    -0.155 A  
HETATM   14  C   UNL     1     -11.322  10.222  67.470  1.00  0.00    -0.032 C  
HETATM   15  C   UNL     1     -11.184  10.386  69.035  1.00  0.00    -0.289 C  
HETATM   16  N   UNL     1     -10.978  12.940  68.337  1.00  0.00    -0.246 NA 
HETATM   17  C   UNL     1     -11.533  11.942  69.302  1.00  0.00    -0.306 C  
ENDROOT
BRANCH  15  18
HETATM   18  C   UNL     1      -9.832   9.522  69.409  1.00  0.00    -0.186 C  
HETATM   19  N   UNL     1      -9.641   8.137  69.279  1.00  0.00    -0.162 N  
HETATM   20  O   UNL     1      -8.851  10.188  69.742  1.00  0.00    -0.193 OA 
BRANCH  19  21
HETATM   21  C   UNL     1      -8.242   7.604  69.479  1.00  0.00    -0.129 C  
BRANCH  21  22
HETATM   22  C   UNL     1      -7.954   6.472  70.496  1.00  0.00    -0.112 C  
HETATM   23  C   UNL     1      -7.057   6.638  71.757  1.00  0.00    -0.076 C  
BRANCH  23  24
HETATM   24  N   UNL     1      -7.179   7.743  72.734  1.00  0.00    -0.077 NA 
HETATM   25  C   UNL     1      -6.478   7.359  73.985  1.00  0.00    -0.077 C  
HETATM   26  C   UNL     1      -8.568   8.056  73.119  1.00  0.00    -0.220 C  
ENDBRANCH  23  24
ENDBRANCH  21  22
ENDBRANCH  19  21
BRANCH  19  27
HETATM   27  C   UNL     1     -10.527   7.346  68.559  1.00  0.00    -0.186 C  
HETATM   28  O   UNL     1     -10.331   6.963  67.411  1.00  0.00    -0.179 OA 
BRANCH  27  29
HETATM   29  N   UNL     1     -11.650   6.952  69.259  1.00  0.00    -0.581 N  
HETATM   30  H   UNL     1     -12.570   7.008  68.822  1.00  0.00     0.000 HD 
BRANCH  29  31
HETATM   31  C   UNL     1     -11.520   6.462  70.610  1.00  0.00    -0.362 C  
HETATM   32  C   UNL     1     -12.432   7.211  71.555  1.00  0.00    -0.418 C  
ENDBRANCH  29  31
ENDBRANCH  27  29
ENDBRANCH  19  27
ENDBRANCH  15  18
BRANCH  16  33
HETATM   33  C   UNL     1     -11.858  13.446  67.261  1.00  0.00    -0.376 C  
BRANCH  33  34
HETATM   34  C   UNL     1     -11.468  14.738  66.593  1.00  0.00    -0.339 C  
HETATM   35  C   UNL     1     -11.064  14.910  65.328  1.00  0.00    -0.382 C  
ENDBRANCH  33  34
ENDBRANCH  16  33
TORSDOF 9
ENDMDL
MODEL       72
REMARK 921   NORMALIZED FREE ENERGY PREDICTED BY IDOCK:   -4.94 KCAL/MOL
REMARK 922        TOTAL FREE ENERGY PREDICTED BY IDOCK:   -8.24 KCAL/MOL
REMARK 923 INTER-LIGAND FREE ENERGY PREDICTED BY IDOCK:   -6.85 KCAL/MOL
REMARK 924 INTRA-LIGAND FREE ENERGY PREDICTED BY IDOCK:   -1.39 KCAL/MOL
REMARK 927      BINDING AFFINITY PREDICTED BY RF-SCORE:    0.00 PKD
ROOT
HETATM    1  C   UNL     1      -9.788  12.207  67.851  1.00  0.00    -0.199 C  
HETATM    2  C   UNL     1      -8.580  13.059  67.463  1.00  0.00    -0.192 C  
HETATM    3  C   UNL     1      -7.553  12.096  66.999  1.00  0.00    -0.093 A  
HETATM    4  C   UNL     1      -6.202  11.973  67.167  1.00  0.00    -0.151 A  
HETATM    5  N   UNL     1      -5.789  10.963  66.326  1.00  0.00    -0.124 NA 
HETATM    6  H   UNL     1      -4.823  10.654  66.216  1.00  0.00     0.000 HD 
HETATM    7  C   UNL     1      -6.867  10.431  65.656  1.00  0.00    -0.133 A  
HETATM    8  C   UNL     1      -6.999   9.576  64.570  1.00  0.00    -0.103 A  
HETATM    9  C   UNL     1      -8.315   9.278  64.167  1.00  0.00    -0.178 A  
HETATM   10  C   UNL     1      -9.445   9.696  64.903  1.00  0.00    -0.288 A  
HETATM   11  C   UNL     1      -9.294  10.522  66.018  1.00  0.00    -0.215 A  
HETATM   12  C   UNL     1     -10.418  11.157  66.831  1.00  0.00    -0.289 C  
HETATM   13  C   UNL     1      -7.984  10.961  66.269  1.00  0.00    -0.161 A  
HETATM   14  C   UNL     1     -11.395  10.261  67.689  1.00  0.00    -0.088 C  
HETATM   15  C   UNL     1     -11.057  10.372  69.228  1.00  0.00    -0.303 C  
HETATM   16  N   UNL     1     -10.828  12.935  68.575  1.00  0.00    -0.250 NA 
HETATM   17  C   UNL     1     -11.302  11.931  69.576  1.00  0.00    -0.236 C  
ENDROOT
BRANCH  15  18
HETATM   18  C   UNL     1      -9.708   9.443  69.408  1.00  0.00    -0.177 C  
HETATM   19  N   UNL     1      -9.583   8.064  69.172  1.00  0.00    -0.155 N  
HETATM   20  O   UNL     1      -8.675  10.054  69.680  1.00  0.00    -0.186 OA 
BRANCH  19  21
HETATM   21  C   UNL     1      -8.192   7.476  69.195  1.00  0.00    -0.131 C  
BRANCH  21  22
HETATM   22  C   UNL     1      -7.845   6.277  70.112  1.00  0.00    -0.106 C  
HETATM   23  C   UNL     1      -8.211   4.798  69.793  1.00  0.00    -0.068 C  
BRANCH  23  24
HETATM   24  N   UNL     1      -7.947   4.129  68.501  1.00  0.00    -0.073 NA 
HETATM   25  C   UNL     1      -9.242   3.742  67.886  1.00  0.00    -0.172 C  
HETATM   26  C   UNL     1      -7.157   2.889  68.614  1.00  0.00    -0.048 C  
ENDBRANCH  23  24
ENDBRANCH  21  22
ENDBRANCH  19  21
BRANCH  19  27
HETATM   27  C   UNL     1     -10.566   7.350  68.498  1.00  0.00    -0.153 C  
HETATM   28  O   UNL     1     -10.477   6.995  67.327  1.00  0.00    -0.224 OA 
BRANCH  27  29
HETATM   29  N   UNL     1     -11.656   7.000  69.268  1.00  0.00    -0.503 N  
HETATM   30  H   UNL     1     -12.601   7.168  68.922  1.00  0.00     0.000 HD 
BRANCH  29  31
HETATM   31  C   UNL     1     -11.458   6.396  70.563  1.00  0.00    -0.379 C  
HETATM   32  C   UNL     1     -12.368   7.014  71.601  1.00  0.00    -0.407 C  
ENDBRANCH  29  31
ENDBRANCH  27  29
ENDBRANCH  19  27
ENDBRANCH  15  18
BRANCH  16  33
HETATM   33  C   UNL     1     -11.812  13.509  67.630  1.00  0.00    -0.363 C  
BRANCH  33  34
HETATM   34  C   UNL     1     -11.412  14.751  66.879  1.00  0.00    -0.354 C  
HETATM   35  C   UNL     1     -11.238  14.882  65.558  1.00  0.00    -0.348 C  
ENDBRANCH  33  34
ENDBRANCH  16  33
TORSDOF 9
ENDMDL
MODEL       73
REMARK 921   NORMALIZED FREE ENERGY PREDICTED BY IDOCK:   -4.93 KCAL/MOL
REMARK 922        TOTAL FREE ENERGY PREDICTED BY IDOCK:   -8.23 KCAL/MOL
REMARK 923 INTER-LIGAND FREE ENERGY PREDICTED BY IDOCK:   -6.74 KCAL/MOL
REMARK 924 INTRA-LIGAND FREE ENERGY PREDICTED BY IDOCK:   -1.49 KCAL/MOL
REMARK 927      BINDING AFFINITY PREDICTED BY RF-SCORE:    0.00 PKD
ROOT
HETATM    1  C   UNL     1     -10.464   9.106  69.491  1.00  0.00    -0.219 C  
HETATM    2  C   UNL     1     -11.858   9.083  70.118  1.00  0.00     0.174 C  
HETATM    3  C   UNL     1     -11.830   7.974  71.101  1.00  0.00    -0.307 A  
HETATM    4  C   UNL     1     -12.699   6.984  71.462  1.00  0.00    -0.381 A  
HETATM    5  N   UNL     1     -12.165   6.372  72.574  1.00  0.00    -0.532 NA 
HETATM    6  H   UNL     1     -12.601   5.606  73.085  1.00  0.00     0.000 HD 
HETATM    7  C   UNL     1     -10.956   6.946  72.897  1.00  0.00    -0.281 A  
HETATM    8  C   UNL     1     -10.121   6.875  74.004  1.00  0.00    -0.383 A  
HETATM    9  C   UNL     1      -8.947   7.650  73.953  1.00  0.00    -0.321 A  
HETATM   10  C   UNL     1      -8.552   8.348  72.791  1.00  0.00    -0.240 A  
HETATM   11  C   UNL     1      -9.382   8.376  71.668  1.00  0.00    -0.280 A  
HETATM   12  C   UNL     1      -9.155   9.187  70.396  1.00  0.00    -0.270 C  
HETATM   13  C   UNL     1     -10.634   7.760  71.830  1.00  0.00    -0.270 A  
HETATM   14  C   UNL     1      -7.949   8.851  69.434  1.00  0.00    -0.100 C  
HETATM   15  C   UNL     1      -8.454   8.112  68.133  1.00  0.00    -0.126 C  
HETATM   16  N   UNL     1     -10.350   9.962  68.312  1.00  0.00    -0.190 NA 
HETATM   17  C   UNL     1      -9.434   9.184  67.423  1.00  0.00    -0.143 C  
ENDROOT
BRANCH  15  18
HETATM   18  C   UNL     1      -8.753   6.573  68.639  1.00  0.00    -0.123 C  
HETATM   19  N   UNL     1      -9.722   5.685  68.144  1.00  0.00    -0.121 N  
HETATM   20  O   UNL     1      -7.965   6.125  69.472  1.00  0.00    -0.104 OA 
BRANCH  19  21
HETATM   21  C   UNL     1      -9.661   4.252  68.617  1.00  0.00    -0.142 C  
BRANCH  21  22
HETATM   22  C   UNL     1      -8.325   3.467  68.623  1.00  0.00    -0.093 C  
HETATM   23  C   UNL     1      -7.546   3.060  67.338  1.00  0.00    -0.066 C  
BRANCH  23  24
HETATM   24  N   UNL     1      -7.219   3.981  66.228  1.00  0.00    -0.067 NA 
HETATM   25  C   UNL     1      -6.589   3.206  65.130  1.00  0.00    -0.039 C  
HETATM   26  C   UNL     1      -6.261   5.042  66.587  1.00  0.00    -0.032 C  
ENDBRANCH  23  24
ENDBRANCH  21  22
ENDBRANCH  19  21
BRANCH  19  27
HETATM   27  C   UNL     1     -10.401   5.936  66.959  1.00  0.00    -0.243 C  
HETATM   28  O   UNL     1     -11.403   6.638  66.876  1.00  0.00    -0.333 OA 
BRANCH  27  29
HETATM   29  N   UNL     1      -9.826   5.381  65.834  1.00  0.00    -0.334 N  
HETATM   30  H   UNL     1      -8.949   5.754  65.472  1.00  0.00     0.000 HD 
BRANCH  29  31
HETATM   31  C   UNL     1     -10.467   4.271  65.172  1.00  0.00    -0.173 C  
HETATM   32  C   UNL     1      -9.994   4.138  63.742  1.00  0.00    -0.094 C  
ENDBRANCH  29  31
ENDBRANCH  27  29
ENDBRANCH  19  27
ENDBRANCH  15  18
BRANCH  16  33
HETATM   33  C   UNL     1      -9.957  11.334  68.705  1.00  0.00    -0.204 C  
BRANCH  33  34
HETATM   34  C   UNL     1     -10.996  12.416  68.586  1.00  0.00    -0.283 C  
HETATM   35  C   UNL     1     -11.687  12.764  67.492  1.00  0.00    -0.422 C  
ENDBRANCH  33  34
ENDBRANCH  16  33
TORSDOF 9
ENDMDL
MODEL       74
REMARK 921   NORMALIZED FREE ENERGY PREDICTED BY IDOCK:   -4.93 KCAL/MOL
REMARK 922        TOTAL FREE ENERGY PREDICTED BY IDOCK:   -8.23 KCAL/MOL
REMARK 923 INTER-LIGAND FREE ENERGY PREDICTED BY IDOCK:   -6.08 KCAL/MOL
REMARK 924 INTRA-LIGAND FREE ENERGY PREDICTED BY IDOCK:   -2.15 KCAL/MOL
REMARK 927      BINDING AFFINITY PREDICTED BY RF-SCORE:    0.00 PKD
ROOT
HETATM    1  C   UNL     1     -10.742   7.167  70.033  1.00  0.00    -0.248 C  
HETATM    2  C   UNL     1     -11.553   6.801  68.790  1.00  0.00     0.191 C  
HETATM    3  C   UNL     1     -10.725   5.815  68.056  1.00  0.00    -0.290 A  
HETATM    4  C   UNL     1     -10.416   5.604  66.742  1.00  0.00    -0.291 A  
HETATM    5  N   UNL     1      -9.740   4.406  66.680  1.00  0.00    -0.201 NA 
HETATM    6  H   UNL     1      -9.397   3.972  65.824  1.00  0.00     0.000 HD 
HETATM    7  C   UNL     1      -9.592   3.878  67.944  1.00  0.00    -0.136 A  
HETATM    8  C   UNL     1      -9.201   2.638  68.429  1.00  0.00    -0.253 A  
HETATM    9  C   UNL     1      -9.199   2.487  69.828  1.00  0.00    -0.195 A  
HETATM   10  C   UNL     1      -9.434   3.568  70.706  1.00  0.00    -0.240 A  
HETATM   11  C   UNL     1      -9.787   4.822  70.202  1.00  0.00    -0.308 A  
HETATM   12  C   UNL     1     -10.195   6.042  71.021  1.00  0.00    -0.253 C  
HETATM   13  C   UNL     1      -9.975   4.880  68.811  1.00  0.00    -0.206 A  
HETATM   14  C   UNL     1      -9.152   6.767  71.959  1.00  0.00    -0.139 C  
HETATM   15  C   UNL     1      -8.670   8.129  71.319  1.00  0.00    -0.173 C  
HETATM   16  N   UNL     1     -11.261   8.317  70.771  1.00  0.00    -0.263 NA 
HETATM   17  C   UNL     1     -10.016   9.017  71.215  1.00  0.00    -0.311 C  
ENDROOT
BRANCH  15  18
HETATM   18  C   UNL     1      -7.610   7.665  70.146  1.00  0.00    -0.086 C  
HETATM   19  N   UNL     1      -7.491   8.188  68.848  1.00  0.00    -0.087 N  
HETATM   20  O   UNL     1      -6.764   6.840  70.490  1.00  0.00    -0.051 OA 
BRANCH  19  21
HETATM   21  C   UNL     1      -6.300   7.753  68.027  1.00  0.00    -0.050 C  
BRANCH  21  22
HETATM   22  C   UNL     1      -6.461   6.770  66.841  1.00  0.00    -0.043 C  
HETATM   23  C   UNL     1      -6.810   7.204  65.388  1.00  0.00    -0.052 C  
BRANCH  23  24
HETATM   24  N   UNL     1      -6.122   8.283  64.647  1.00  0.00    -0.059 NA 
HETATM   25  C   UNL     1      -6.943   9.518  64.721  1.00  0.00    -0.104 C  
HETATM   26  C   UNL     1      -5.930   8.002  63.212  1.00  0.00    -0.067 C  
ENDBRANCH  23  24
ENDBRANCH  21  22
ENDBRANCH  19  21
BRANCH  19  27
HETATM   27  C   UNL     1      -8.121   9.369  68.480  1.00  0.00    -0.105 C  
HETATM   28  O   UNL     1      -7.814  10.476  68.911  1.00  0.00    -0.105 OA 
BRANCH  27  29
HETATM   29  N   UNL     1      -9.105   9.226  67.522  1.00  0.00    -0.121 N  
HETATM   30  H   UNL     1      -9.249   8.324  67.068  1.00  0.00     0.000 HD 
BRANCH  29  31
HETATM   31  C   UNL     1      -9.929  10.355  67.163  1.00  0.00    -0.195 C  
HETATM   32  C   UNL     1     -11.192  10.396  67.991  1.00  0.00    -0.340 C  
ENDBRANCH  29  31
ENDBRANCH  27  29
ENDBRANCH  19  27
ENDBRANCH  15  18
BRANCH  16  33
HETATM   33  C   UNL     1     -12.229   7.878  71.800  1.00  0.00    -0.310 C  
BRANCH  33  34
HETATM   34  C   UNL     1     -13.175   8.911  72.352  1.00  0.00    -0.482 C  
HETATM   35  C   UNL     1     -13.330  10.175  71.938  1.00  0.00    -0.505 C  
ENDBRANCH  33  34
ENDBRANCH  16  33
TORSDOF 9
ENDMDL
MODEL       75
REMARK 921   NORMALIZED FREE ENERGY PREDICTED BY IDOCK:   -4.90 KCAL/MOL
REMARK 922        TOTAL FREE ENERGY PREDICTED BY IDOCK:   -8.19 KCAL/MOL
REMARK 923 INTER-LIGAND FREE ENERGY PREDICTED BY IDOCK:   -6.55 KCAL/MOL
REMARK 924 INTRA-LIGAND FREE ENERGY PREDICTED BY IDOCK:   -1.65 KCAL/MOL
REMARK 927      BINDING AFFINITY PREDICTED BY RF-SCORE:    0.00 PKD
ROOT
HETATM    1  C   UNL     1      -8.773   4.527  70.944  1.00  0.00    -0.101 C  
HETATM    2  C   UNL     1      -8.462   4.871  72.400  1.00  0.00    -0.120 C  
HETATM    3  C   UNL     1      -8.685   6.332  72.516  1.00  0.00    -0.120 A  
HETATM    4  C   UNL     1      -8.035   7.360  73.138  1.00  0.00    -0.104 A  
HETATM    5  N   UNL     1      -8.845   8.468  73.027  1.00  0.00    -0.348 NA 
HETATM    6  H   UNL     1      -8.634   9.387  73.414  1.00  0.00     0.000 HD 
HETATM    7  C   UNL     1      -9.982   8.155  72.316  1.00  0.00    -0.263 A  
HETATM    8  C   UNL     1     -11.192   8.802  72.102  1.00  0.00    -0.408 A  
HETATM    9  C   UNL     1     -12.132   8.121  71.305  1.00  0.00    -0.313 A  
HETATM   10  C   UNL     1     -11.824   6.918  70.634  1.00  0.00    -0.418 A  
HETATM   11  C   UNL     1     -10.587   6.299  70.827  1.00  0.00    -0.297 A  
HETATM   12  C   UNL     1     -10.160   4.941  70.278  1.00  0.00    -0.322 C  
HETATM   13  C   UNL     1      -9.755   6.903  71.783  1.00  0.00    -0.163 A  
HETATM   14  C   UNL     1      -9.971   4.724  68.725  1.00  0.00    -0.182 C  
HETATM   15  C   UNL     1      -8.439   4.666  68.347  1.00  0.00    -0.094 C  
HETATM   16  N   UNL     1      -8.372   3.179  70.546  1.00  0.00    -0.055 NA 
HETATM   17  C   UNL     1      -7.882   3.377  69.147  1.00  0.00    -0.050 C  
ENDROOT
BRANCH  15  18
HETATM   18  C   UNL     1      -7.954   6.239  68.400  1.00  0.00    -0.105 C  
HETATM   19  N   UNL     1      -8.353   7.285  67.550  1.00  0.00    -0.116 N  
HETATM   20  O   UNL     1      -7.244   6.544  69.358  1.00  0.00    -0.080 OA 
BRANCH  19  21
HETATM   21  C   UNL     1      -7.943   8.687  67.931  1.00  0.00    -0.107 C  
BRANCH  21  22
HETATM   22  C   UNL     1      -8.526   9.379  69.189  1.00  0.00    -0.134 C  
HETATM   23  C   UNL     1      -9.594  10.511  69.146  1.00  0.00    -0.199 C  
BRANCH  23  24
HETATM   24  N   UNL     1     -10.847  10.454  68.363  1.00  0.00    -0.227 NA 
HETATM   25  C   UNL     1     -10.591  10.996  67.005  1.00  0.00    -0.256 C  
HETATM   26  C   UNL     1     -11.948  11.256  68.927  1.00  0.00    -0.310 C  
ENDBRANCH  23  24
ENDBRANCH  21  22
ENDBRANCH  19  21
BRANCH  19  27
HETATM   27  C   UNL     1      -9.432   7.148  66.688  1.00  0.00    -0.170 C  
HETATM   28  O   UNL     1     -10.586   7.445  66.978  1.00  0.00    -0.313 OA 
BRANCH  27  29
HETATM   29  N   UNL     1      -9.109   6.703  65.422  1.00  0.00    -0.364 N  
HETATM   30  H   UNL     1      -9.628   5.931  65.004  1.00  0.00     0.000 HD 
BRANCH  29  31
HETATM   31  C   UNL     1      -8.036   7.332  64.691  1.00  0.00    -0.115 C  
HETATM   32  C   UNL     1      -8.411   8.731  64.262  1.00  0.00    -0.130 C  
ENDBRANCH  29  31
ENDBRANCH  27  29
ENDBRANCH  19  27
ENDBRANCH  15  18
BRANCH  16  33
HETATM   33  C   UNL     1      -9.476   2.222  70.779  1.00  0.00    -0.133 C  
BRANCH  33  34
HETATM   34  C   UNL     1      -9.683   1.728  72.186  1.00  0.00    -0.186 C  
HETATM   35  C   UNL     1     -10.732   1.965  72.985  1.00  0.00    -0.243 C  
ENDBRANCH  33  34
ENDBRANCH  16  33
TORSDOF 9
ENDMDL
MODEL       76
REMARK 921   NORMALIZED FREE ENERGY PREDICTED BY IDOCK:   -4.89 KCAL/MOL
REMARK 922        TOTAL FREE ENERGY PREDICTED BY IDOCK:   -8.17 KCAL/MOL
REMARK 923 INTER-LIGAND FREE ENERGY PREDICTED BY IDOCK:   -6.90 KCAL/MOL
REMARK 924 INTRA-LIGAND FREE ENERGY PREDICTED BY IDOCK:   -1.26 KCAL/MOL
REMARK 927      BINDING AFFINITY PREDICTED BY RF-SCORE:    0.00 PKD
ROOT
HETATM    1  C   UNL     1     -10.078   5.140  71.267  1.00  0.00    -0.210 C  
HETATM    2  C   UNL     1      -9.773   3.774  70.652  1.00  0.00    -0.235 C  
HETATM    3  C   UNL     1      -9.054   4.064  69.389  1.00  0.00    -0.191 A  
HETATM    4  C   UNL     1      -9.092   3.557  68.120  1.00  0.00    -0.151 A  
HETATM    5  N   UNL     1      -8.042   4.125  67.434  1.00  0.00    -0.098 NA 
HETATM    6  H   UNL     1      -7.801   3.923  66.464  1.00  0.00     0.000 HD 
HETATM    7  C   UNL     1      -7.364   5.005  68.247  1.00  0.00    -0.074 A  
HETATM    8  C   UNL     1      -6.145   5.663  68.149  1.00  0.00    -0.018 A  
HETATM    9  C   UNL     1      -5.791   6.488  69.234  1.00  0.00    -0.021 A  
HETATM   10  C   UNL     1      -6.678   6.759  70.298  1.00  0.00    -0.053 A  
HETATM   11  C   UNL     1      -7.919   6.122  70.363  1.00  0.00    -0.108 A  
HETATM   12  C   UNL     1      -8.923   6.211  71.508  1.00  0.00    -0.143 C  
HETATM   13  C   UNL     1      -8.151   5.155  69.370  1.00  0.00    -0.087 A  
HETATM   14  C   UNL     1      -9.660   7.571  71.826  1.00  0.00    -0.178 C  
HETATM   15  C   UNL     1     -11.161   7.527  71.335  1.00  0.00    -0.262 C  
HETATM   16  N   UNL     1     -11.007   5.097  72.395  1.00  0.00    -0.210 NA 
HETATM   17  C   UNL     1     -11.825   6.333  72.199  1.00  0.00    -0.315 C  
ENDROOT
BRANCH  15  18
HETATM   18  C   UNL     1     -11.053   7.723  69.703  1.00  0.00    -0.042 C  
HETATM   19  N   UNL     1     -10.643   8.872  69.007  1.00  0.00    -0.214 N  
HETATM   20  O   UNL     1     -11.258   6.712  69.032  1.00  0.00    -0.269 OA 
BRANCH  19  21
HETATM   21  C   UNL     1     -10.416   8.741  67.519  1.00  0.00    -0.271 C  
BRANCH  21  22
HETATM   22  C   UNL     1      -9.485   9.721  66.763  1.00  0.00    -0.209 C  
HETATM   23  C   UNL     1      -9.971  11.026  66.067  1.00  0.00    -0.237 C  
BRANCH  23  24
HETATM   24  N   UNL     1     -10.839  12.042  66.701  1.00  0.00    -0.260 NA 
HETATM   25  C   UNL     1     -11.872  12.470  65.724  1.00  0.00    -0.437 C  
HETATM   26  C   UNL     1     -10.130  13.266  67.115  1.00  0.00    -0.239 C  
ENDBRANCH  23  24
ENDBRANCH  21  22
ENDBRANCH  19  21
BRANCH  19  27
HETATM   27  C   UNL     1     -10.025   9.933  69.655  1.00  0.00    -0.231 C  
HETATM   28  O   UNL     1      -8.839   9.950  69.969  1.00  0.00    -0.207 OA 
BRANCH  27  29
HETATM   29  N   UNL     1     -10.836  11.027  69.877  1.00  0.00    -0.463 N  
HETATM   30  H   UNL     1     -10.422  11.946  70.037  1.00  0.00     0.000 HD 
BRANCH  29  31
HETATM   31  C   UNL     1     -12.270  10.870  69.883  1.00  0.00    -0.336 C  
HETATM   32  C   UNL     1     -12.813  10.849  71.294  1.00  0.00    -0.536 C  
ENDBRANCH  29  31
ENDBRANCH  27  29
ENDBRANCH  19  27
ENDBRANCH  15  18
BRANCH  16  33
HETATM   33  C   UNL     1     -10.270   4.932  73.667  1.00  0.00    -0.190 C  
BRANCH  33  34
HETATM   34  C   UNL     1     -10.459   3.641  74.418  1.00  0.00    -0.261 C  
HETATM   35  C   UNL     1     -10.009   2.427  74.075  1.00  0.00    -0.149 C  
ENDBRANCH  33  34
ENDBRANCH  16  33
TORSDOF 9
ENDMDL
MODEL       77
REMARK 921   NORMALIZED FREE ENERGY PREDICTED BY IDOCK:   -4.83 KCAL/MOL
REMARK 922        TOTAL FREE ENERGY PREDICTED BY IDOCK:   -8.08 KCAL/MOL
REMARK 923 INTER-LIGAND FREE ENERGY PREDICTED BY IDOCK:   -8.25 KCAL/MOL
REMARK 924 INTRA-LIGAND FREE ENERGY PREDICTED BY IDOCK:    0.16 KCAL/MOL
REMARK 927      BINDING AFFINITY PREDICTED BY RF-SCORE:    0.00 PKD
ROOT
HETATM    1  C   UNL     1      -9.911  11.464  65.853  1.00  0.00    -0.226 C  
HETATM    2  C   UNL     1      -9.071  10.195  65.993  1.00  0.00    -0.185 C  
HETATM    3  C   UNL     1      -8.705  10.122  67.428  1.00  0.00    -0.125 A  
HETATM    4  C   UNL     1      -7.571   9.797  68.118  1.00  0.00    -0.082 A  
HETATM    5  N   UNL     1      -7.919   9.741  69.449  1.00  0.00    -0.111 NA 
HETATM    6  H   UNL     1      -7.283   9.500  70.209  1.00  0.00     0.000 HD 
HETATM    7  C   UNL     1      -9.250  10.056  69.606  1.00  0.00    -0.215 A  
HETATM    8  C   UNL     1     -10.148   9.946  70.659  1.00  0.00    -0.146 A  
HETATM    9  C   UNL     1     -11.464  10.376  70.406  1.00  0.00    -0.420 A  
HETATM   10  C   UNL     1     -11.831  11.021  69.204  1.00  0.00    -0.407 A  
HETATM   11  C   UNL     1     -10.906  11.162  68.168  1.00  0.00    -0.266 A  
HETATM   12  C   UNL     1     -11.186  11.714  66.774  1.00  0.00    -0.371 C  
HETATM   13  C   UNL     1      -9.663  10.542  68.383  1.00  0.00    -0.166 A  
HETATM   14  C   UNL     1     -11.568  13.233  66.574  1.00  0.00    -0.392 C  
HETATM   15  C   UNL     1     -10.353  14.046  65.975  1.00  0.00    -0.312 C  
HETATM   16  N   UNL     1     -10.165  11.866  64.471  1.00  0.00    -0.271 NA 
HETATM   17  C   UNL     1     -10.086  13.358  64.538  1.00  0.00    -0.192 C  
ENDROOT
BRANCH  15  18
HETATM   18  C   UNL     1      -9.340  14.252  67.259  1.00  0.00    -0.213 C  
HETATM   19  N   UNL     1      -9.403  15.251  68.244  1.00  0.00    -0.190 N  
HETATM   20  O   UNL     1      -8.502  13.365  67.422  1.00  0.00    -0.176 OA 
BRANCH  19  21
HETATM   21  C   UNL     1      -8.498  15.105  69.443  1.00  0.00    -0.190 C  
BRANCH  21  22
HETATM   22  C   UNL     1      -7.084  15.737  69.461  1.00  0.00    -0.190 C  
HETATM   23  C   UNL     1      -6.579  16.777  68.419  1.00  0.00    -0.149 C  
BRANCH  23  24
HETATM   24  N   UNL     1      -7.323  17.991  68.017  1.00  0.00    -0.226 NA 
HETATM   25  C   UNL     1      -7.072  18.255  66.578  1.00  0.00    -0.224 C  
HETATM   26  C   UNL     1      -6.919  19.212  68.737  1.00  0.00    -0.321 C  
ENDBRANCH  23  24
ENDBRANCH  21  22
ENDBRANCH  19  21
BRANCH  19  27
HETATM   27  C   UNL     1     -10.520  16.065  68.383  1.00  0.00    -0.263 C  
HETATM   28  O   UNL     1     -11.474  15.804  69.109  1.00  0.00    -0.330 OA 
BRANCH  27  29
HETATM   29  N   UNL     1     -10.462  17.252  67.682  1.00  0.00    -0.356 N  
HETATM   30  H   UNL     1     -10.437  17.242  66.662  1.00  0.00     0.000 HD 
BRANCH  29  31
HETATM   31  C   UNL     1     -10.436  18.507  68.393  1.00  0.00    -0.233 C  
HETATM   32  C   UNL     1     -10.528  19.678  67.442  1.00  0.00    -0.596 C  
ENDBRANCH  29  31
ENDBRANCH  27  29
ENDBRANCH  19  27
ENDBRANCH  15  18
BRANCH  16  33
HETATM   33  C   UNL     1     -11.414  11.247  63.974  1.00  0.00     0.048 C  
BRANCH  33  34
HETATM   34  C   UNL     1     -12.498  12.167  63.480  1.00  0.00    -0.666 C  
HETATM   35  C   UNL     1     -12.367  13.439  63.082  1.00  0.00    -0.084 C  
ENDBRANCH  33  34
ENDBRANCH  16  33
TORSDOF 9
ENDMDL
MODEL       78
REMARK 921   NORMALIZED FREE ENERGY PREDICTED BY IDOCK:   -4.81 KCAL/MOL
REMARK 922        TOTAL FREE ENERGY PREDICTED BY IDOCK:   -8.05 KCAL/MOL
REMARK 923 INTER-LIGAND FREE ENERGY PREDICTED BY IDOCK:   -6.06 KCAL/MOL
REMARK 924 INTRA-LIGAND FREE ENERGY PREDICTED BY IDOCK:   -1.98 KCAL/MOL
REMARK 927      BINDING AFFINITY PREDICTED BY RF-SCORE:    0.00 PKD
ROOT
HETATM    1  C   UNL     1      -9.248   5.680  70.215  1.00  0.00    -0.151 C  
HETATM    2  C   UNL     1     -10.701   5.631  69.743  1.00  0.00    -0.401 C  
HETATM    3  C   UNL     1     -10.636   5.696  68.264  1.00  0.00    -0.253 A  
HETATM    4  C   UNL     1     -11.349   6.345  67.295  1.00  0.00    -0.010 A  
HETATM    5  N   UNL     1     -10.915   5.850  66.085  1.00  0.00    -0.650 NA 
HETATM    6  H   UNL     1     -11.280   6.131  65.175  1.00  0.00     0.000 HD 
HETATM    7  C   UNL     1      -9.918   4.921  66.281  1.00  0.00    -0.234 A  
HETATM    8  C   UNL     1      -9.299   3.986  65.462  1.00  0.00    -0.159 A  
HETATM    9  C   UNL     1      -8.308   3.188  66.064  1.00  0.00    -0.101 A  
HETATM   10  C   UNL     1      -7.852   3.414  67.381  1.00  0.00    -0.078 A  
HETATM   11  C   UNL     1      -8.456   4.387  68.180  1.00  0.00    -0.100 A  
HETATM   12  C   UNL     1      -8.164   4.657  69.653  1.00  0.00    -0.072 C  
HETATM   13  C   UNL     1      -9.573   5.022  67.612  1.00  0.00    -0.173 A  
HETATM   14  C   UNL     1      -6.762   5.228  70.103  1.00  0.00    -0.044 C  
HETATM   15  C   UNL     1      -6.873   6.757  70.484  1.00  0.00    -0.058 C  
HETATM   16  N   UNL     1      -9.091   5.885  71.654  1.00  0.00    -0.143 NA 
HETATM   17  C   UNL     1      -7.897   6.780  71.734  1.00  0.00    -0.101 C  
ENDROOT
BRANCH  15  18
HETATM   18  C   UNL     1      -6.955   7.526  69.030  1.00  0.00    -0.073 C  
HETATM   19  N   UNL     1      -7.761   8.624  68.689  1.00  0.00    -0.097 N  
HETATM   20  O   UNL     1      -6.139   7.155  68.186  1.00  0.00    -0.031 OA 
BRANCH  19  21
HETATM   21  C   UNL     1      -7.501   9.294  67.360  1.00  0.00    -0.087 C  
BRANCH  21  22
HETATM   22  C   UNL     1      -8.401   9.012  66.132  1.00  0.00    -0.124 C  
HETATM   23  C   UNL     1      -9.649   9.860  65.750  1.00  0.00    -0.250 C  
BRANCH  23  24
HETATM   24  N   UNL     1      -9.665  11.336  65.660  1.00  0.00    -0.220 NA 
HETATM   25  C   UNL     1      -9.373  11.903  67.000  1.00  0.00    -0.188 C  
HETATM   26  C   UNL     1     -10.962  11.901  65.247  1.00  0.00    -0.302 C  
ENDBRANCH  23  24
ENDBRANCH  21  22
ENDBRANCH  19  21
BRANCH  19  27
HETATM   27  C   UNL     1      -8.427   9.365  69.657  1.00  0.00    -0.164 C  
HETATM   28  O   UNL     1      -7.868  10.089  70.474  1.00  0.00    -0.247 OA 
BRANCH  27  29
HETATM   29  N   UNL     1      -9.804   9.282  69.603  1.00  0.00    -0.177 N  
HETATM   30  H   UNL     1     -10.255   8.754  68.856  1.00  0.00     0.000 HD 
BRANCH  29  31
HETATM   31  C   UNL     1     -10.604   9.944  70.604  1.00  0.00    -0.271 C  
HETATM   32  C   UNL     1     -11.328   8.945  71.476  1.00  0.00    -0.395 C  
ENDBRANCH  29  31
ENDBRANCH  27  29
ENDBRANCH  19  27
ENDBRANCH  15  18
BRANCH  16  33
HETATM   33  C   UNL     1      -9.048   4.585  72.359  1.00  0.00    -0.124 C  
BRANCH  33  34
HETATM   34  C   UNL     1     -10.354   4.005  72.831  1.00  0.00    -0.238 C  
HETATM   35  C   UNL     1     -11.431   4.672  73.266  1.00  0.00    -0.346 C  
ENDBRANCH  33  34
ENDBRANCH  16  33
TORSDOF 9
ENDMDL
MODEL       79
REMARK 921   NORMALIZED FREE ENERGY PREDICTED BY IDOCK:   -4.81 KCAL/MOL
REMARK 922        TOTAL FREE ENERGY PREDICTED BY IDOCK:   -8.05 KCAL/MOL
REMARK 923 INTER-LIGAND FREE ENERGY PREDICTED BY IDOCK:   -6.03 KCAL/MOL
REMARK 924 INTRA-LIGAND FREE ENERGY PREDICTED BY IDOCK:   -2.02 KCAL/MOL
REMARK 927      BINDING AFFINITY PREDICTED BY RF-SCORE:    0.00 PKD
ROOT
HETATM    1  C   UNL     1      -7.972   5.713  69.895  1.00  0.00    -0.095 C  
HETATM    2  C   UNL     1      -8.934   4.922  69.009  1.00  0.00    -0.134 C  
HETATM    3  C   UNL     1      -9.786   5.937  68.347  1.00  0.00    -0.151 A  
HETATM    4  C   UNL     1     -11.117   6.037  68.055  1.00  0.00    -0.128 A  
HETATM    5  N   UNL     1     -11.267   7.151  67.259  1.00  0.00    -0.586 NA 
HETATM    6  H   UNL     1     -12.150   7.471  66.864  1.00  0.00     0.000 HD 
HETATM    7  C   UNL     1     -10.051   7.769  67.074  1.00  0.00    -0.273 A  
HETATM    8  C   UNL     1      -9.597   8.764  66.218  1.00  0.00    -0.328 A  
HETATM    9  C   UNL     1      -8.239   9.115  66.333  1.00  0.00    -0.114 A  
HETATM   10  C   UNL     1      -7.409   8.601  67.353  1.00  0.00    -0.089 A  
HETATM   11  C   UNL     1      -7.891   7.631  68.234  1.00  0.00    -0.121 A  
HETATM   12  C   UNL     1      -7.083   6.892  69.296  1.00  0.00    -0.084 C  
HETATM   13  C   UNL     1      -9.186   7.162  67.961  1.00  0.00    -0.130 A  
HETATM   14  C   UNL     1      -6.499   7.665  70.544  1.00  0.00    -0.038 C  
HETATM   15  C   UNL     1      -7.336   7.346  71.845  1.00  0.00    -0.079 C  
HETATM   16  N   UNL     1      -7.207   4.894  70.833  1.00  0.00    -0.058 NA 
HETATM   17  C   UNL     1      -7.151   5.754  72.056  1.00  0.00    -0.087 C  
ENDROOT
BRANCH  15  18
HETATM   18  C   UNL     1      -8.708   8.241  71.667  1.00  0.00    -0.163 C  
HETATM   19  N   UNL     1     -10.005   7.908  72.090  1.00  0.00    -0.192 N  
HETATM   20  O   UNL     1      -8.549   9.370  71.203  1.00  0.00    -0.297 OA 
BRANCH  19  21
HETATM   21  C   UNL     1     -11.061   8.985  72.012  1.00  0.00    -0.301 C  
BRANCH  21  22
HETATM   22  C   UNL     1     -12.032   9.068  70.807  1.00  0.00    -0.214 C  
HETATM   23  C   UNL     1     -12.487  10.401  70.143  1.00  0.00    -0.176 C  
BRANCH  23  24
HETATM   24  N   UNL     1     -11.573  11.485  69.724  1.00  0.00    -0.314 NA 
HETATM   25  C   UNL     1     -12.066  12.772  70.276  1.00  0.00    -0.297 C  
HETATM   26  C   UNL     1     -11.485  11.669  68.264  1.00  0.00    -0.303 C  
ENDBRANCH  23  24
ENDBRANCH  21  22
ENDBRANCH  19  21
BRANCH  19  27
HETATM   27  C   UNL     1     -10.237   6.850  72.959  1.00  0.00    -0.218 C  
HETATM   28  O   UNL     1     -10.077   6.909  74.173  1.00  0.00    -0.331 OA 
BRANCH  27  29
HETATM   29  N   UNL     1     -10.734   5.710  72.361  1.00  0.00    -0.226 N  
HETATM   30  H   UNL     1     -11.074   5.743  71.400  1.00  0.00     0.000 HD 
BRANCH  29  31
HETATM   31  C   UNL     1     -10.774   4.470  73.098  1.00  0.00    -0.235 C  
HETATM   32  C   UNL     1     -10.123   3.349  72.320  1.00  0.00    -0.219 C  
ENDBRANCH  29  31
ENDBRANCH  27  29
ENDBRANCH  19  27
ENDBRANCH  15  18
BRANCH  16  33
HETATM   33  C   UNL     1      -5.935   4.455  70.220  1.00  0.00    -0.018 C  
BRANCH  33  34
HETATM   34  C   UNL     1      -5.856   3.036  69.723  1.00  0.00    -0.022 C  
HETATM   35  C   UNL     1      -5.311   1.984  70.349  1.00  0.00    -0.004 C  
ENDBRANCH  33  34
ENDBRANCH  16  33
TORSDOF 9
ENDMDL
MODEL       80
REMARK 921   NORMALIZED FREE ENERGY PREDICTED BY IDOCK:   -4.80 KCAL/MOL
REMARK 922        TOTAL FREE ENERGY PREDICTED BY IDOCK:   -8.04 KCAL/MOL
REMARK 923 INTER-LIGAND FREE ENERGY PREDICTED BY IDOCK:   -6.08 KCAL/MOL
REMARK 924 INTRA-LIGAND FREE ENERGY PREDICTED BY IDOCK:   -1.96 KCAL/MOL
REMARK 927      BINDING AFFINITY PREDICTED BY RF-SCORE:    0.00 PKD
ROOT
HETATM    1  C   UNL     1      -9.006  10.442  66.500  1.00  0.00    -0.145 C  
HETATM    2  C   UNL     1     -10.365  10.976  66.049  1.00  0.00    -0.311 C  
HETATM    3  C   UNL     1     -10.821  11.865  67.143  1.00  0.00    -0.301 A  
HETATM    4  C   UNL     1     -12.016  12.089  67.768  1.00  0.00    -0.106 A  
HETATM    5  N   UNL     1     -11.835  13.180  68.590  1.00  0.00    -0.325 NA 
HETATM    6  H   UNL     1     -12.560  13.598  69.172  1.00  0.00     0.000 HD 
HETATM    7  C   UNL     1     -10.534  13.623  68.512  1.00  0.00    -0.244 A  
HETATM    8  C   UNL     1      -9.882  14.772  68.939  1.00  0.00    -0.222 A  
HETATM    9  C   UNL     1      -8.509  14.857  68.641  1.00  0.00    -0.166 A  
HETATM   10  C   UNL     1      -7.790  13.783  68.074  1.00  0.00    -0.152 A  
HETATM   11  C   UNL     1      -8.452  12.616  67.687  1.00  0.00    -0.173 A  
HETATM   12  C   UNL     1      -7.839  11.431  66.948  1.00  0.00    -0.158 C  
HETATM   13  C   UNL     1      -9.851  12.649  67.815  1.00  0.00    -0.212 A  
HETATM   14  C   UNL     1      -6.753  10.522  67.647  1.00  0.00    -0.073 C  
HETATM   15  C   UNL     1      -7.373   9.136  68.083  1.00  0.00    -0.079 C  
HETATM   16  N   UNL     1      -8.490   9.345  65.683  1.00  0.00    -0.130 NA 
HETATM   17  C   UNL     1      -7.838   8.456  66.692  1.00  0.00    -0.093 C  
ENDROOT
BRANCH  15  18
HETATM   18  C   UNL     1      -8.245   9.496  69.433  1.00  0.00    -0.126 C  
HETATM   19  N   UNL     1      -9.298   8.753  69.992  1.00  0.00    -0.163 N  
HETATM   20  O   UNL     1      -7.855  10.472  70.073  1.00  0.00    -0.067 OA 
BRANCH  19  21
HETATM   21  C   UNL     1      -9.798   9.170  71.355  1.00  0.00    -0.284 C  
BRANCH  21  22
HETATM   22  C   UNL     1      -9.321   8.445  72.638  1.00  0.00    -0.334 C  
HETATM   23  C   UNL     1      -7.883   7.885  72.842  1.00  0.00    -0.128 C  
BRANCH  23  24
HETATM   24  N   UNL     1      -6.642   8.646  72.584  1.00  0.00    -0.217 NA 
HETATM   25  C   UNL     1      -5.805   7.890  71.619  1.00  0.00    -0.035 C  
HETATM   26  C   UNL     1      -5.805   8.858  73.779  1.00  0.00    -0.085 C  
ENDBRANCH  23  24
ENDBRANCH  21  22
ENDBRANCH  19  21
BRANCH  19  27
HETATM   27  C   UNL     1      -9.567   7.453  69.585  1.00  0.00    -0.156 C  
HETATM   28  O   UNL     1      -8.799   6.510  69.744  1.00  0.00    -0.141 OA 
BRANCH  27  29
HETATM   29  N   UNL     1     -10.816   7.268  69.028  1.00  0.00    -0.382 N  
HETATM   30  H   UNL     1     -11.608   7.021  69.621  1.00  0.00     0.000 HD 
BRANCH  29  31
HETATM   31  C   UNL     1     -10.999   7.423  67.605  1.00  0.00    -0.066 C  
HETATM   32  C   UNL     1     -10.716   6.132  66.872  1.00  0.00    -0.413 C  
ENDBRANCH  29  31
ENDBRANCH  27  29
ENDBRANCH  19  27
ENDBRANCH  15  18
BRANCH  16  33
HETATM   33  C   UNL     1      -7.668   9.872  64.570  1.00  0.00    -0.142 C  
BRANCH  33  34
HETATM   34  C   UNL     1      -8.172   9.652  63.169  1.00  0.00    -0.155 C  
HETATM   35  C   UNL     1      -9.322  10.090  62.640  1.00  0.00    -0.296 C  
ENDBRANCH  33  34
ENDBRANCH  16  33
TORSDOF 9
ENDMDL
MODEL       81
REMARK 921   NORMALIZED FREE ENERGY PREDICTED BY IDOCK:   -4.79 KCAL/MOL
REMARK 922        TOTAL FREE ENERGY PREDICTED BY IDOCK:   -8.02 KCAL/MOL
REMARK 923 INTER-LIGAND FREE ENERGY PREDICTED BY IDOCK:   -7.26 KCAL/MOL
REMARK 924 INTRA-LIGAND FREE ENERGY PREDICTED BY IDOCK:   -0.75 KCAL/MOL
REMARK 927      BINDING AFFINITY PREDICTED BY RF-SCORE:    0.00 PKD
ROOT
HETATM    1  C   UNL     1      -8.651  10.069  66.003  1.00  0.00    -0.138 C  
HETATM    2  C   UNL     1      -9.854  10.624  65.239  1.00  0.00    -0.334 C  
HETATM    3  C   UNL     1     -10.430  11.670  66.118  1.00  0.00    -0.289 A  
HETATM    4  C   UNL     1     -11.696  12.042  66.469  1.00  0.00    -0.256 A  
HETATM    5  N   UNL     1     -11.582  13.215  67.183  1.00  0.00    -0.340 NA 
HETATM    6  H   UNL     1     -12.364  13.746  67.563  1.00  0.00     0.000 HD 
HETATM    7  C   UNL     1     -10.256  13.565  67.310  1.00  0.00    -0.242 A  
HETATM    8  C   UNL     1      -9.601  14.717  67.725  1.00  0.00    -0.213 A  
HETATM    9  C   UNL     1      -8.194  14.681  67.692  1.00  0.00    -0.182 A  
HETATM   10  C   UNL     1      -7.474  13.502  67.399  1.00  0.00    -0.136 A  
HETATM   11  C   UNL     1      -8.148  12.338  67.024  1.00  0.00    -0.141 A  
HETATM   12  C   UNL     1      -7.510  11.035  66.555  1.00  0.00    -0.145 C  
HETATM   13  C   UNL     1      -9.539  12.471  66.873  1.00  0.00    -0.229 A  
HETATM   14  C   UNL     1      -6.652  10.157  67.549  1.00  0.00    -0.068 C  
HETATM   15  C   UNL     1      -7.455   8.877  68.008  1.00  0.00    -0.092 C  
HETATM   16  N   UNL     1      -8.086   8.850  65.429  1.00  0.00    -0.112 NA 
HETATM   17  C   UNL     1      -7.709   8.057  66.639  1.00  0.00    -0.094 C  
ENDROOT
BRANCH  15  18
HETATM   18  C   UNL     1      -8.530   9.456  69.114  1.00  0.00    -0.134 C  
HETATM   19  N   UNL     1      -9.686   8.819  69.596  1.00  0.00    -0.170 N  
HETATM   20  O   UNL     1      -8.221  10.521  69.649  1.00  0.00    -0.128 OA 
BRANCH  19  21
HETATM   21  C   UNL     1     -10.394   9.454  70.769  1.00  0.00    -0.298 C  
BRANCH  21  22
HETATM   22  C   UNL     1     -11.866   9.104  71.101  1.00  0.00    -0.374 C  
HETATM   23  C   UNL     1     -12.896  10.118  71.677  1.00  0.00    -0.454 C  
BRANCH  23  24
HETATM   24  N   UNL     1     -13.142  11.468  71.125  1.00  0.00    -0.201 NA 
HETATM   25  C   UNL     1     -11.934  11.915  70.387  1.00  0.00    -0.311 C  
HETATM   26  C   UNL     1     -13.405  12.498  72.147  1.00  0.00    -0.435 C  
ENDBRANCH  23  24
ENDBRANCH  21  22
ENDBRANCH  19  21
BRANCH  19  27
HETATM   27  C   UNL     1      -9.924   7.471  69.361  1.00  0.00    -0.178 C  
HETATM   28  O   UNL     1      -9.267   6.560  69.854  1.00  0.00    -0.148 OA 
BRANCH  27  29
HETATM   29  N   UNL     1     -11.018   7.208  68.562  1.00  0.00    -0.444 N  
HETATM   30  H   UNL     1     -11.934   7.055  68.985  1.00  0.00     0.000 HD 
BRANCH  29  31
HETATM   31  C   UNL     1     -10.865   7.150  67.129  1.00  0.00    -0.333 C  
HETATM   32  C   UNL     1     -10.614   5.734  66.662  1.00  0.00    -0.347 C  
ENDBRANCH  29  31
ENDBRANCH  27  29
ENDBRANCH  19  27
ENDBRANCH  15  18
BRANCH  16  33
HETATM   33  C   UNL     1      -7.031   9.182  64.446  1.00  0.00    -0.091 C  
BRANCH  33  34
HETATM   34  C   UNL     1      -7.100   8.512  63.099  1.00  0.00    -0.091 C  
HETATM   35  C   UNL     1      -7.932   7.534  62.719  1.00  0.00    -0.119 C  
ENDBRANCH  33  34
ENDBRANCH  16  33
TORSDOF 9
ENDMDL
MODEL       82
REMARK 921   NORMALIZED FREE ENERGY PREDICTED BY IDOCK:   -4.78 KCAL/MOL
REMARK 922        TOTAL FREE ENERGY PREDICTED BY IDOCK:   -8.01 KCAL/MOL
REMARK 923 INTER-LIGAND FREE ENERGY PREDICTED BY IDOCK:   -6.85 KCAL/MOL
REMARK 924 INTRA-LIGAND FREE ENERGY PREDICTED BY IDOCK:   -1.15 KCAL/MOL
REMARK 927      BINDING AFFINITY PREDICTED BY RF-SCORE:    0.00 PKD
ROOT
HETATM    1  C   UNL     1     -10.539  11.376  68.374  1.00  0.00    -0.202 C  
HETATM    2  C   UNL     1     -11.461  11.632  69.567  1.00  0.00    -0.371 C  
HETATM    3  C   UNL     1     -11.370  10.412  70.404  1.00  0.00    -0.417 A  
HETATM    4  C   UNL     1     -12.267   9.652  71.099  1.00  0.00    -0.350 A  
HETATM    5  N   UNL     1     -11.535   8.745  71.833  1.00  0.00    -0.335 NA 
HETATM    6  H   UNL     1     -11.930   8.054  72.469  1.00  0.00     0.000 HD 
HETATM    7  C   UNL     1     -10.191   8.907  71.582  1.00  0.00    -0.345 A  
HETATM    8  C   UNL     1      -9.035   8.431  72.187  1.00  0.00    -0.293 A  
HETATM    9  C   UNL     1      -7.816   8.855  71.624  1.00  0.00    -0.069 A  
HETATM   10  C   UNL     1      -7.755   9.597  70.425  1.00  0.00    -0.178 A  
HETATM   11  C   UNL     1      -8.927  10.034  69.804  1.00  0.00    -0.209 A  
HETATM   12  C   UNL     1      -9.019  10.948  68.586  1.00  0.00    -0.162 C  
HETATM   13  C   UNL     1     -10.114   9.764  70.504  1.00  0.00    -0.289 A  
HETATM   14  C   UNL     1      -8.512  10.457  67.173  1.00  0.00    -0.126 C  
HETATM   15  C   UNL     1      -9.728  10.106  66.228  1.00  0.00    -0.274 C  
HETATM   16  N   UNL     1     -10.673  12.348  67.292  1.00  0.00    -0.226 NA 
HETATM   17  C   UNL     1     -10.521  11.505  66.066  1.00  0.00    -0.252 C  
ENDROOT
BRANCH  15  18
HETATM   18  C   UNL     1     -10.254   8.646  66.781  1.00  0.00    -0.291 C  
HETATM   19  N   UNL     1      -9.713   7.381  66.498  1.00  0.00    -0.184 N  
HETATM   20  O   UNL     1     -11.157   8.688  67.617  1.00  0.00     0.027 OA 
BRANCH  19  21
HETATM   21  C   UNL     1     -10.231   6.207  67.296  1.00  0.00    -0.191 C  
BRANCH  21  22
HETATM   22  C   UNL     1     -10.536   4.849  66.616  1.00  0.00    -0.270 C  
HETATM   23  C   UNL     1      -9.540   3.654  66.568  1.00  0.00    -0.138 C  
BRANCH  23  24
HETATM   24  N   UNL     1      -8.813   3.119  67.740  1.00  0.00    -0.119 NA 
HETATM   25  C   UNL     1      -7.375   2.988  67.396  1.00  0.00    -0.058 C  
HETATM   26  C   UNL     1      -9.259   1.780  68.167  1.00  0.00    -0.182 C  
ENDBRANCH  23  24
ENDBRANCH  21  22
ENDBRANCH  19  21
BRANCH  19  27
HETATM   27  C   UNL     1      -8.474   7.240  65.888  1.00  0.00    -0.144 C  
HETATM   28  O   UNL     1      -8.179   7.737  64.806  1.00  0.00    -0.145 OA 
BRANCH  27  29
HETATM   29  N   UNL     1      -7.543   6.537  66.626  1.00  0.00    -0.093 N  
HETATM   30  H   UNL     1      -7.380   5.549  66.435  1.00  0.00     0.000 HD 
BRANCH  29  31
HETATM   31  C   UNL     1      -6.801   7.203  67.669  1.00  0.00    -0.074 C  
HETATM   32  C   UNL     1      -6.790   6.386  68.941  1.00  0.00    -0.066 C  
ENDBRANCH  29  31
ENDBRANCH  27  29
ENDBRANCH  19  27
ENDBRANCH  15  18
BRANCH  16  33
HETATM   33  C   UNL     1      -9.738  13.477  67.492  1.00  0.00    -0.228 C  
BRANCH  33  34
HETATM   34  C   UNL     1     -10.325  14.803  67.897  1.00  0.00    -0.240 C  
HETATM   35  C   UNL     1     -11.608  15.077  68.164  1.00  0.00    -0.360 C  
ENDBRANCH  33  34
ENDBRANCH  16  33
TORSDOF 9
ENDMDL
MODEL       83
REMARK 921   NORMALIZED FREE ENERGY PREDICTED BY IDOCK:   -4.76 KCAL/MOL
REMARK 922        TOTAL FREE ENERGY PREDICTED BY IDOCK:   -7.98 KCAL/MOL
REMARK 923 INTER-LIGAND FREE ENERGY PREDICTED BY IDOCK:   -6.25 KCAL/MOL
REMARK 924 INTRA-LIGAND FREE ENERGY PREDICTED BY IDOCK:   -1.73 KCAL/MOL
REMARK 927      BINDING AFFINITY PREDICTED BY RF-SCORE:    0.00 PKD
ROOT
HETATM    1  C   UNL     1     -10.146   7.709  70.691  1.00  0.00    -0.187 C  
HETATM    2  C   UNL     1      -9.694   9.136  71.002  1.00  0.00    -0.359 C  
HETATM    3  C   UNL     1      -8.760   9.499  69.911  1.00  0.00    -0.224 A  
HETATM    4  C   UNL     1      -7.565  10.160  69.845  1.00  0.00    -0.166 A  
HETATM    5  N   UNL     1      -7.284  10.339  68.508  1.00  0.00    -0.078 NA 
HETATM    6  H   UNL     1      -6.463  10.821  68.144  1.00  0.00     0.000 HD 
HETATM    7  C   UNL     1      -8.272   9.771  67.735  1.00  0.00    -0.114 A  
HETATM    8  C   UNL     1      -8.599   9.842  66.388  1.00  0.00    -0.132 A  
HETATM    9  C   UNL     1      -9.728   9.106  65.979  1.00  0.00    -0.358 A  
HETATM   10  C   UNL     1     -10.410   8.225  66.847  1.00  0.00    -0.391 A  
HETATM   11  C   UNL     1     -10.044   8.133  68.191  1.00  0.00    -0.237 A  
HETATM   12  C   UNL     1     -10.762   7.331  69.271  1.00  0.00    -0.212 C  
HETATM   13  C   UNL     1      -9.045   9.031  68.605  1.00  0.00    -0.137 A  
HETATM   14  C   UNL     1     -10.784   5.753  69.220  1.00  0.00    -0.386 C  
HETATM   15  C   UNL     1      -9.799   5.141  70.293  1.00  0.00    -0.295 C  
HETATM   16  N   UNL     1     -10.876   7.060  71.778  1.00  0.00    -0.221 NA 
HETATM   17  C   UNL     1     -10.390   5.647  71.709  1.00  0.00    -0.215 C  
ENDROOT
BRANCH  15  18
HETATM   18  C   UNL     1      -8.305   5.352  69.629  1.00  0.00    -0.100 C  
HETATM   19  N   UNL     1      -7.808   4.778  68.447  1.00  0.00    -0.081 N  
HETATM   20  O   UNL     1      -7.591   6.188  70.183  1.00  0.00    -0.091 OA 
BRANCH  19  21
HETATM   21  C   UNL     1      -6.487   5.293  67.925  1.00  0.00    -0.048 C  
BRANCH  21  22
HETATM   22  C   UNL     1      -6.380   6.685  67.254  1.00  0.00    -0.037 C  
HETATM   23  C   UNL     1      -6.392   6.916  65.715  1.00  0.00    -0.046 C  
BRANCH  23  24
HETATM   24  N   UNL     1      -7.387   6.335  64.787  1.00  0.00    -0.071 NA 
HETATM   25  C   UNL     1      -6.864   5.048  64.265  1.00  0.00    -0.048 C  
HETATM   26  C   UNL     1      -7.672   7.173  63.608  1.00  0.00    -0.119 C  
ENDBRANCH  23  24
ENDBRANCH  21  22
ENDBRANCH  19  21
BRANCH  19  27
HETATM   27  C   UNL     1      -8.643   4.135  67.544  1.00  0.00    -0.100 C  
HETATM   28  O   UNL     1      -9.410   4.716  66.782  1.00  0.00    -0.129 OA 
BRANCH  27  29
HETATM   29  N   UNL     1      -8.510   2.762  67.509  1.00  0.00    -0.084 N  
HETATM   30  H   UNL     1      -7.693   2.339  67.068  1.00  0.00     0.000 HD 
BRANCH  29  31
HETATM   31  C   UNL     1      -9.527   1.926  68.098  1.00  0.00    -0.162 C  
HETATM   32  C   UNL     1      -9.264   1.695  69.568  1.00  0.00    -0.168 C  
ENDBRANCH  29  31
ENDBRANCH  27  29
ENDBRANCH  19  27
ENDBRANCH  15  18
BRANCH  16  33
HETATM   33  C   UNL     1     -12.328   7.314  71.650  1.00  0.00    -0.352 C  
BRANCH  33  34
HETATM   34  C   UNL     1     -12.875   8.562  72.291  1.00  0.00    -0.404 C  
HETATM   35  C   UNL     1     -13.257   9.690  71.680  1.00  0.00    -0.499 C  
ENDBRANCH  33  34
ENDBRANCH  16  33
TORSDOF 9
ENDMDL
MODEL       84
REMARK 921   NORMALIZED FREE ENERGY PREDICTED BY IDOCK:   -4.75 KCAL/MOL
REMARK 922        TOTAL FREE ENERGY PREDICTED BY IDOCK:   -7.96 KCAL/MOL
REMARK 923 INTER-LIGAND FREE ENERGY PREDICTED BY IDOCK:   -7.17 KCAL/MOL
REMARK 924 INTRA-LIGAND FREE ENERGY PREDICTED BY IDOCK:   -0.79 KCAL/MOL
REMARK 927      BINDING AFFINITY PREDICTED BY RF-SCORE:    0.00 PKD
ROOT
HETATM    1  C   UNL     1     -10.834   9.990  69.444  1.00  0.00    -0.239 C  
HETATM    2  C   UNL     1     -11.822  10.264  70.578  1.00  0.00    -0.419 C  
HETATM    3  C   UNL     1     -11.630   9.157  71.543  1.00  0.00    -0.439 A  
HETATM    4  C   UNL     1     -12.465   8.377  72.294  1.00  0.00    -0.361 A  
HETATM    5  N   UNL     1     -11.666   7.639  73.139  1.00  0.00    -0.636 NA 
HETATM    6  H   UNL     1     -12.007   6.978  73.836  1.00  0.00     0.000 HD 
HETATM    7  C   UNL     1     -10.339   7.924  72.906  1.00  0.00    -0.347 A  
HETATM    8  C   UNL     1      -9.161   7.647  73.588  1.00  0.00    -0.339 A  
HETATM    9  C   UNL     1      -7.976   8.143  73.014  1.00  0.00    -0.220 A  
HETATM   10  C   UNL     1      -7.951   8.759  71.744  1.00  0.00    -0.107 A  
HETATM   11  C   UNL     1      -9.140   8.995  71.050  1.00  0.00    -0.322 A  
HETATM   12  C   UNL     1      -9.285   9.760  69.739  1.00  0.00    -0.248 C  
HETATM   13  C   UNL     1     -10.316   8.667  71.745  1.00  0.00    -0.386 A  
HETATM   14  C   UNL     1      -8.676   9.185  68.400  1.00  0.00    -0.129 C  
HETATM   15  C   UNL     1      -9.811   8.603  67.468  1.00  0.00    -0.234 C  
HETATM   16  N   UNL     1     -11.033  10.824  68.260  1.00  0.00    -0.234 NA 
HETATM   17  C   UNL     1     -10.744   9.880  67.136  1.00  0.00    -0.207 C  
ENDROOT
BRANCH  15  18
HETATM   18  C   UNL     1     -10.195   7.159  68.161  1.00  0.00    -0.188 C  
HETATM   19  N   UNL     1      -9.455   5.965  68.113  1.00  0.00    -0.115 N  
HETATM   20  O   UNL     1     -11.189   7.165  68.887  1.00  0.00    -0.045 OA 
BRANCH  19  21
HETATM   21  C   UNL     1      -9.900   4.834  69.009  1.00  0.00    -0.168 C  
BRANCH  21  22
HETATM   22  C   UNL     1      -8.873   3.856  69.633  1.00  0.00    -0.144 C  
HETATM   23  C   UNL     1      -8.776   3.546  71.155  1.00  0.00    -0.078 C  
BRANCH  23  24
HETATM   24  N   UNL     1      -9.925   3.185  72.013  1.00  0.00    -0.168 NA 
HETATM   25  C   UNL     1     -10.160   4.279  72.989  1.00  0.00    -0.152 C  
HETATM   26  C   UNL     1      -9.723   1.959  72.807  1.00  0.00    -0.090 C  
ENDBRANCH  23  24
ENDBRANCH  21  22
ENDBRANCH  19  21
BRANCH  19  27
HETATM   27  C   UNL     1      -8.143   5.941  67.659  1.00  0.00    -0.102 C  
HETATM   28  O   UNL     1      -7.164   6.122  68.374  1.00  0.00    -0.079 OA 
BRANCH  27  29
HETATM   29  N   UNL     1      -8.000   5.630  66.322  1.00  0.00    -0.100 N  
HETATM   30  H   UNL     1      -8.181   4.681  65.996  1.00  0.00     0.000 HD 
BRANCH  29  31
HETATM   31  C   UNL     1      -7.593   6.650  65.386  1.00  0.00    -0.086 C  
HETATM   32  C   UNL     1      -7.752   6.179  63.958  1.00  0.00    -0.106 C  
ENDBRANCH  29  31
ENDBRANCH  27  29
ENDBRANCH  19  27
ENDBRANCH  15  18
BRANCH  16  33
HETATM   33  C   UNL     1     -10.235  12.066  68.362  1.00  0.00    -0.209 C  
BRANCH  33  34
HETATM   34  C   UNL     1      -9.958  12.821  67.089  1.00  0.00    -0.218 C  
HETATM   35  C   UNL     1      -9.320  13.991  66.960  1.00  0.00    -0.256 C  
ENDBRANCH  33  34
ENDBRANCH  16  33
TORSDOF 9
ENDMDL
MODEL       85
REMARK 921   NORMALIZED FREE ENERGY PREDICTED BY IDOCK:   -4.75 KCAL/MOL
REMARK 922        TOTAL FREE ENERGY PREDICTED BY IDOCK:   -7.96 KCAL/MOL
REMARK 923 INTER-LIGAND FREE ENERGY PREDICTED BY IDOCK:   -6.78 KCAL/MOL
REMARK 924 INTRA-LIGAND FREE ENERGY PREDICTED BY IDOCK:   -1.18 KCAL/MOL
REMARK 927      BINDING AFFINITY PREDICTED BY RF-SCORE:    0.00 PKD
ROOT
HETATM    1  C   UNL     1      -9.550  12.770  66.759  1.00  0.00    -0.244 C  
HETATM    2  C   UNL     1      -8.767  14.016  67.174  1.00  0.00    -0.234 C  
HETATM    3  C   UNL     1      -7.826  13.559  68.223  1.00  0.00    -0.145 A  
HETATM    4  C   UNL     1      -7.395  14.064  69.417  1.00  0.00     0.077 A  
HETATM    5  N   UNL     1      -6.369  13.251  69.845  1.00  0.00    -0.301 NA 
HETATM    6  H   UNL     1      -5.833  13.389  70.701  1.00  0.00     0.000 HD 
HETATM    7  C   UNL     1      -6.172  12.224  68.950  1.00  0.00    -0.078 A  
HETATM    8  C   UNL     1      -5.170  11.279  68.774  1.00  0.00    -0.040 A  
HETATM    9  C   UNL     1      -5.334  10.387  67.698  1.00  0.00    -0.044 A  
HETATM   10  C   UNL     1      -6.515  10.345  66.924  1.00  0.00    -0.076 A  
HETATM   11  C   UNL     1      -7.533  11.276  67.139  1.00  0.00    -0.130 A  
HETATM   12  C   UNL     1      -8.800  11.439  66.305  1.00  0.00    -0.196 C  
HETATM   13  C   UNL     1      -7.245  12.274  68.085  1.00  0.00    -0.101 A  
HETATM   14  C   UNL     1      -9.903  10.310  66.289  1.00  0.00    -0.276 C  
HETATM   15  C   UNL     1     -11.158  10.736  67.149  1.00  0.00    -0.297 C  
HETATM   16  N   UNL     1     -10.710  13.043  65.913  1.00  0.00    -0.273 NA 
HETATM   17  C   UNL     1     -11.720  12.055  66.404  1.00  0.00    -0.252 C  
ENDROOT
BRANCH  15  18
HETATM   18  C   UNL     1     -10.664  10.525  68.707  1.00  0.00    -0.216 C  
HETATM   19  N   UNL     1     -10.294   9.322  69.330  1.00  0.00    -0.209 N  
HETATM   20  O   UNL     1     -10.504  11.558  69.358  1.00  0.00    -0.108 OA 
BRANCH  19  21
HETATM   21  C   UNL     1      -9.667   9.411  70.701  1.00  0.00    -0.273 C  
BRANCH  21  22
HETATM   22  C   UNL     1      -8.129   9.377  70.881  1.00  0.00    -0.100 C  
HETATM   23  C   UNL     1      -7.349   8.181  71.502  1.00  0.00    -0.080 C  
BRANCH  23  24
HETATM   24  N   UNL     1      -7.524   6.768  71.103  1.00  0.00    -0.086 NA 
HETATM   25  C   UNL     1      -7.614   5.930  72.326  1.00  0.00    -0.101 C  
HETATM   26  C   UNL     1      -6.406   6.222  70.311  1.00  0.00    -0.036 C  
ENDBRANCH  23  24
ENDBRANCH  21  22
ENDBRANCH  19  21
BRANCH  19  27
HETATM   27  C   UNL     1     -10.064   8.165  68.598  1.00  0.00    -0.196 C  
HETATM   28  O   UNL     1      -8.997   7.895  68.056  1.00  0.00    -0.128 OA 
BRANCH  27  29
HETATM   29  N   UNL     1     -11.122   7.279  68.566  1.00  0.00    -0.455 N  
HETATM   30  H   UNL     1     -11.706   7.210  67.733  1.00  0.00     0.000 HD 
BRANCH  29  31
HETATM   31  C   UNL     1     -11.401   6.452  69.714  1.00  0.00    -0.427 C  
HETATM   32  C   UNL     1     -10.468   5.265  69.775  1.00  0.00    -0.340 C  
ENDBRANCH  29  31
ENDBRANCH  27  29
ENDBRANCH  19  27
ENDBRANCH  15  18
BRANCH  16  33
HETATM   33  C   UNL     1     -10.327  13.010  64.484  1.00  0.00    -0.364 C  
BRANCH  33  34
HETATM   34  C   UNL     1     -11.128  12.123  63.570  1.00  0.00    -0.525 C  
HETATM   35  C   UNL     1     -12.435  12.210  63.291  1.00  0.00    -0.528 C  
ENDBRANCH  33  34
ENDBRANCH  16  33
TORSDOF 9
ENDMDL
MODEL       86
REMARK 921   NORMALIZED FREE ENERGY PREDICTED BY IDOCK:   -4.74 KCAL/MOL
REMARK 922        TOTAL FREE ENERGY PREDICTED BY IDOCK:   -7.95 KCAL/MOL
REMARK 923 INTER-LIGAND FREE ENERGY PREDICTED BY IDOCK:   -6.64 KCAL/MOL
REMARK 924 INTRA-LIGAND FREE ENERGY PREDICTED BY IDOCK:   -1.31 KCAL/MOL
REMARK 927      BINDING AFFINITY PREDICTED BY RF-SCORE:    0.00 PKD
ROOT
HETATM    1  C   UNL     1      -8.531   7.196  67.860  1.00  0.00    -0.121 C  
HETATM    2  C   UNL     1      -7.599   6.671  68.951  1.00  0.00    -0.101 C  
HETATM    3  C   UNL     1      -7.802   7.572  70.110  1.00  0.00    -0.098 A  
HETATM    4  C   UNL     1      -6.980   8.160  71.030  1.00  0.00    -0.047 A  
HETATM    5  N   UNL     1      -7.795   8.743  71.975  1.00  0.00    -0.340 NA 
HETATM    6  H   UNL     1      -7.466   9.241  72.801  1.00  0.00     0.000 HD 
HETATM    7  C   UNL     1      -9.118   8.554  71.644  1.00  0.00    -0.229 A  
HETATM    8  C   UNL     1     -10.315   8.729  72.324  1.00  0.00    -0.320 A  
HETATM    9  C   UNL     1     -11.488   8.396  71.621  1.00  0.00    -0.349 A  
HETATM   10  C   UNL     1     -11.475   8.044  70.254  1.00  0.00    -0.078 A  
HETATM   11  C   UNL     1     -10.265   7.911  69.570  1.00  0.00    -0.208 A  
HETATM   12  C   UNL     1     -10.085   7.415  68.139  1.00  0.00    -0.210 C  
HETATM   13  C   UNL     1      -9.111   8.055  70.358  1.00  0.00    -0.150 A  
HETATM   14  C   UNL     1     -10.623   8.263  66.920  1.00  0.00    -0.302 C  
HETATM   15  C   UNL     1      -9.436   8.979  66.164  1.00  0.00    -0.318 C  
HETATM   16  N   UNL     1      -8.305   6.607  66.541  1.00  0.00    -0.113 NA 
HETATM   17  C   UNL     1      -8.522   7.763  65.618  1.00  0.00    -0.141 C  
ENDROOT
BRANCH  15  18
HETATM   18  C   UNL     1      -9.045  10.245  67.143  1.00  0.00    -0.142 C  
HETATM   19  N   UNL     1      -9.821  11.383  67.420  1.00  0.00    -0.181 N  
HETATM   20  O   UNL     1      -7.999  10.121  67.780  1.00  0.00    -0.101 OA 
BRANCH  19  21
HETATM   21  C   UNL     1      -9.345  12.301  68.520  1.00  0.00    -0.099 C  
BRANCH  21  22
HETATM   22  C   UNL     1      -8.777  13.706  68.201  1.00  0.00    -0.177 C  
HETATM   23  C   UNL     1      -7.459  14.273  68.804  1.00  0.00    -0.129 C  
BRANCH  23  24
HETATM   24  N   UNL     1      -6.170  13.550  68.831  1.00  0.00    -0.087 NA 
HETATM   25  C   UNL     1      -5.941  12.922  67.505  1.00  0.00    -0.128 C  
HETATM   26  C   UNL     1      -6.112  12.457  69.820  1.00  0.00    -0.137 C  
ENDBRANCH  23  24
ENDBRANCH  21  22
ENDBRANCH  19  21
BRANCH  19  27
HETATM   27  C   UNL     1     -11.164  11.448  67.072  1.00  0.00    -0.283 C  
HETATM   28  O   UNL     1     -12.088  11.276  67.859  1.00  0.00    -0.634 OA 
BRANCH  27  29
HETATM   29  N   UNL     1     -11.404  11.790  65.756  1.00  0.00    -0.292 N  
HETATM   30  H   UNL     1     -12.009  11.206  65.178  1.00  0.00     0.000 HD 
BRANCH  29  31
HETATM   31  C   UNL     1     -10.799  12.976  65.200  1.00  0.00    -0.300 C  
HETATM   32  C   UNL     1     -11.539  14.222  65.629  1.00  0.00    -0.346 C  
ENDBRANCH  29  31
ENDBRANCH  27  29
ENDBRANCH  19  27
ENDBRANCH  15  18
BRANCH  16  33
HETATM   33  C   UNL     1      -9.138   5.397  66.366  1.00  0.00    -0.141 C  
BRANCH  33  34
HETATM   34  C   UNL     1      -9.178   4.773  64.997  1.00  0.00    -0.136 C  
HETATM   35  C   UNL     1      -9.992   3.799  64.570  1.00  0.00    -0.201 C  
ENDBRANCH  33  34
ENDBRANCH  16  33
TORSDOF 9
ENDMDL
MODEL       87
REMARK 921   NORMALIZED FREE ENERGY PREDICTED BY IDOCK:   -4.73 KCAL/MOL
REMARK 922        TOTAL FREE ENERGY PREDICTED BY IDOCK:   -7.93 KCAL/MOL
REMARK 923 INTER-LIGAND FREE ENERGY PREDICTED BY IDOCK:   -5.83 KCAL/MOL
REMARK 924 INTRA-LIGAND FREE ENERGY PREDICTED BY IDOCK:   -2.10 KCAL/MOL
REMARK 927      BINDING AFFINITY PREDICTED BY RF-SCORE:    0.00 PKD
ROOT
HETATM    1  C   UNL     1      -8.624   9.259  69.891  1.00  0.00    -0.170 C  
HETATM    2  C   UNL     1      -7.640  10.426  69.807  1.00  0.00    -0.141 C  
HETATM    3  C   UNL     1      -8.039  11.192  68.603  1.00  0.00    -0.150 A  
HETATM    4  C   UNL     1      -7.366  11.804  67.583  1.00  0.00    -0.119 A  
HETATM    5  N   UNL     1      -8.299  12.511  66.859  1.00  0.00    -0.339 NA 
HETATM    6  H   UNL     1      -8.092  13.088  66.045  1.00  0.00     0.000 HD 
HETATM    7  C   UNL     1      -9.555  12.325  67.393  1.00  0.00    -0.179 A  
HETATM    8  C   UNL     1     -10.782  12.946  67.205  1.00  0.00    -0.260 A  
HETATM    9  C   UNL     1     -11.853  12.459  67.978  1.00  0.00    -0.376 A  
HETATM   10  C   UNL     1     -11.738  11.310  68.791  1.00  0.00    -0.405 A  
HETATM   11  C   UNL     1     -10.506  10.670  68.937  1.00  0.00    -0.232 A  
HETATM   12  C   UNL     1     -10.198   9.506  69.874  1.00  0.00    -0.261 C  
HETATM   13  C   UNL     1      -9.421  11.304  68.311  1.00  0.00    -0.190 A  
HETATM   14  C   UNL     1     -10.851   8.088  69.636  1.00  0.00    -0.172 C  
HETATM   15  C   UNL     1      -9.797   7.076  69.036  1.00  0.00    -0.154 C  
HETATM   16  N   UNL     1      -8.256   8.232  70.864  1.00  0.00    -0.109 NA 
HETATM   17  C   UNL     1      -8.659   6.965  70.178  1.00  0.00    -0.141 C  
ENDROOT
BRANCH  15  18
HETATM   18  C   UNL     1      -9.674   7.518  67.454  1.00  0.00    -0.159 C  
HETATM   19  N   UNL     1      -8.501   7.648  66.692  1.00  0.00    -0.125 N  
HETATM   20  O   UNL     1     -10.741   7.646  66.853  1.00  0.00    -0.351 OA 
BRANCH  19  21
HETATM   21  C   UNL     1      -8.655   7.852  65.204  1.00  0.00    -0.027 C  
BRANCH  21  22
HETATM   22  C   UNL     1      -8.693   9.274  64.590  1.00  0.00    -0.223 C  
HETATM   23  C   UNL     1      -7.428  10.089  64.195  1.00  0.00    -0.132 C  
BRANCH  23  24
HETATM   24  N   UNL     1      -6.311   9.562  63.381  1.00  0.00    -0.098 NA 
HETATM   25  C   UNL     1      -5.517   8.617  64.206  1.00  0.00    -0.059 C  
HETATM   26  C   UNL     1      -5.368  10.593  62.912  1.00  0.00    -0.167 C  
ENDBRANCH  23  24
ENDBRANCH  21  22
ENDBRANCH  19  21
BRANCH  19  27
HETATM   27  C   UNL     1      -7.282   7.160  67.146  1.00  0.00    -0.085 C  
HETATM   28  O   UNL     1      -6.396   7.860  67.623  1.00  0.00    -0.049 OA 
BRANCH  27  29
HETATM   29  N   UNL     1      -7.149   5.788  67.082  1.00  0.00    -0.069 N  
HETATM   30  H   UNL     1      -7.976   5.192  67.123  1.00  0.00     0.000 HD 
BRANCH  29  31
HETATM   31  C   UNL     1      -5.839   5.197  66.958  1.00  0.00    -0.022 C  
HETATM   32  C   UNL     1      -5.446   5.035  65.507  1.00  0.00    -0.013 C  
ENDBRANCH  29  31
ENDBRANCH  27  29
ENDBRANCH  19  27
ENDBRANCH  15  18
BRANCH  16  33
HETATM   33  C   UNL     1      -8.846   8.538  72.186  1.00  0.00    -0.216 C  
BRANCH  33  34
HETATM   34  C   UNL     1      -9.439   7.394  72.964  1.00  0.00    -0.233 C  
HETATM   35  C   UNL     1     -10.733   7.181  73.238  1.00  0.00    -0.403 C  
ENDBRANCH  33  34
ENDBRANCH  16  33
TORSDOF 9
ENDMDL
MODEL       88
REMARK 921   NORMALIZED FREE ENERGY PREDICTED BY IDOCK:   -4.73 KCAL/MOL
REMARK 922        TOTAL FREE ENERGY PREDICTED BY IDOCK:   -7.92 KCAL/MOL
REMARK 923 INTER-LIGAND FREE ENERGY PREDICTED BY IDOCK:   -6.65 KCAL/MOL
REMARK 924 INTRA-LIGAND FREE ENERGY PREDICTED BY IDOCK:   -1.27 KCAL/MOL
REMARK 927      BINDING AFFINITY PREDICTED BY RF-SCORE:    0.00 PKD
ROOT
HETATM    1  C   UNL     1      -9.142   6.819  71.431  1.00  0.00    -0.142 C  
HETATM    2  C   UNL     1      -8.275   7.878  72.112  1.00  0.00    -0.160 C  
HETATM    3  C   UNL     1      -8.069   8.933  71.092  1.00  0.00    -0.201 A  
HETATM    4  C   UNL     1      -7.007   9.698  70.697  1.00  0.00    -0.110 A  
HETATM    5  N   UNL     1      -7.499  10.635  69.815  1.00  0.00    -0.314 NA 
HETATM    6  H   UNL     1      -6.944  11.362  69.366  1.00  0.00     0.000 HD 
HETATM    7  C   UNL     1      -8.851  10.448  69.629  1.00  0.00    -0.026 A  
HETATM    8  C   UNL     1      -9.855  11.207  69.043  1.00  0.00    -0.132 A  
HETATM    9  C   UNL     1     -11.151  10.656  69.072  1.00  0.00    -0.307 A  
HETATM   10  C   UNL     1     -11.405   9.346  69.532  1.00  0.00     0.026 A  
HETATM   11  C   UNL     1     -10.376   8.578  70.081  1.00  0.00    -0.214 A  
HETATM   12  C   UNL     1     -10.521   7.207  70.734  1.00  0.00    -0.227 C  
HETATM   13  C   UNL     1      -9.143   9.236  70.219  1.00  0.00    -0.271 A  
HETATM   14  C   UNL     1     -10.936   5.948  69.876  1.00  0.00    -0.444 C  
HETATM   15  C   UNL     1      -9.693   5.007  69.618  1.00  0.00    -0.266 C  
HETATM   16  N   UNL     1      -9.256   5.567  72.177  1.00  0.00    -0.143 NA 
HETATM   17  C   UNL     1      -9.241   4.534  71.096  1.00  0.00    -0.140 C  
ENDROOT
BRANCH  15  18
HETATM   18  C   UNL     1      -8.839   5.788  68.445  1.00  0.00    -0.109 C  
HETATM   19  N   UNL     1      -9.240   6.044  67.124  1.00  0.00    -0.116 N  
HETATM   20  O   UNL     1      -7.775   6.290  68.808  1.00  0.00    -0.097 OA 
BRANCH  19  21
HETATM   21  C   UNL     1      -8.376   6.968  66.300  1.00  0.00    -0.129 C  
BRANCH  21  22
HETATM   22  C   UNL     1      -8.612   8.499  66.302  1.00  0.00    -0.143 C  
HETATM   23  C   UNL     1      -8.264   9.439  65.111  1.00  0.00    -0.135 C  
BRANCH  23  24
HETATM   24  N   UNL     1      -8.651   9.190  63.706  1.00  0.00    -0.195 NA 
HETATM   25  C   UNL     1      -7.423   8.974  62.899  1.00  0.00    -0.104 C  
HETATM   26  C   UNL     1      -9.369  10.311  63.071  1.00  0.00    -0.310 C  
ENDBRANCH  23  24
ENDBRANCH  21  22
ENDBRANCH  19  21
BRANCH  19  27
HETATM   27  C   UNL     1     -10.557   5.871  66.718  1.00  0.00    -0.300 C  
HETATM   28  O   UNL     1     -11.396   6.766  66.706  1.00  0.00    -0.239 OA 
BRANCH  27  29
HETATM   29  N   UNL     1     -10.858   4.606  66.255  1.00  0.00    -0.487 N  
HETATM   30  H   UNL     1     -11.745   4.168  66.507  1.00  0.00     0.000 HD 
BRANCH  29  31
HETATM   31  C   UNL     1      -9.918   3.905  65.415  1.00  0.00    -0.137 C  
HETATM   32  C   UNL     1     -10.470   3.707  64.022  1.00  0.00    -0.271 C  
ENDBRANCH  29  31
ENDBRANCH  27  29
ENDBRANCH  19  27
ENDBRANCH  15  18
BRANCH  16  33
HETATM   33  C   UNL     1     -10.417   5.614  73.093  1.00  0.00    -0.221 C  
BRANCH  33  34
HETATM   34  C   UNL     1     -11.291   4.391  73.171  1.00  0.00    -0.282 C  
HETATM   35  C   UNL     1     -11.005   3.223  73.760  1.00  0.00    -0.310 C  
ENDBRANCH  33  34
ENDBRANCH  16  33
TORSDOF 9
ENDMDL
MODEL       89
REMARK 921   NORMALIZED FREE ENERGY PREDICTED BY IDOCK:   -4.69 KCAL/MOL
REMARK 922        TOTAL FREE ENERGY PREDICTED BY IDOCK:   -7.86 KCAL/MOL
REMARK 923 INTER-LIGAND FREE ENERGY PREDICTED BY IDOCK:   -5.96 KCAL/MOL
REMARK 924 INTRA-LIGAND FREE ENERGY PREDICTED BY IDOCK:   -1.90 KCAL/MOL
REMARK 927      BINDING AFFINITY PREDICTED BY RF-SCORE:    0.00 PKD
ROOT
HETATM    1  C   UNL     1      -7.683  10.320  66.296  1.00  0.00    -0.116 C  
HETATM    2  C   UNL     1      -6.660  11.395  66.661  1.00  0.00    -0.114 C  
HETATM    3  C   UNL     1      -6.674  11.466  68.141  1.00  0.00    -0.059 A  
HETATM    4  C   UNL     1      -6.637  12.479  69.058  1.00  0.00    -0.100 A  
HETATM    5  N   UNL     1      -6.492  11.890  70.294  1.00  0.00    -0.480 NA 
HETATM    6  H   UNL     1      -6.413  12.395  71.176  1.00  0.00     0.000 HD 
HETATM    7  C   UNL     1      -6.468  10.519  70.167  1.00  0.00    -0.144 A  
HETATM    8  C   UNL     1      -6.136   9.478  71.025  1.00  0.00    -0.080 A  
HETATM    9  C   UNL     1      -6.228   8.178  70.494  1.00  0.00    -0.036 A  
HETATM   10  C   UNL     1      -6.767   7.920  69.214  1.00  0.00    -0.044 A  
HETATM   11  C   UNL     1      -7.136   8.975  68.378  1.00  0.00    -0.076 A  
HETATM   12  C   UNL     1      -7.607   8.861  66.932  1.00  0.00    -0.087 C  
HETATM   13  C   UNL     1      -6.841  10.260  68.865  1.00  0.00    -0.059 A  
HETATM   14  C   UNL     1      -8.985   8.171  66.587  1.00  0.00    -0.181 C  
HETATM   15  C   UNL     1     -10.075   9.250  66.206  1.00  0.00    -0.322 C  
HETATM   16  N   UNL     1      -8.015  10.264  64.873  1.00  0.00    -0.153 NA 
HETATM   17  C   UNL     1      -9.479   9.964  64.884  1.00  0.00    -0.291 C  
ENDROOT
BRANCH  15  18
HETATM   18  C   UNL     1     -10.520   9.897  67.654  1.00  0.00    -0.244 C  
HETATM   19  N   UNL     1     -10.851  11.235  67.926  1.00  0.00    -0.211 N  
HETATM   20  O   UNL     1     -10.678   9.091  68.571  1.00  0.00    -0.186 OA 
BRANCH  19  21
HETATM   21  C   UNL     1     -11.440  11.546  69.281  1.00  0.00    -0.305 C  
BRANCH  21  22
HETATM   22  C   UNL     1     -12.908  11.185  69.618  1.00  0.00     0.276 C  
HETATM   23  C   UNL     1     -13.328   9.998  70.534  1.00  0.00     0.083 C  
BRANCH  23  24
HETATM   24  N   UNL     1     -12.755   9.726  71.870  1.00  0.00    -0.404 NA 
HETATM   25  C   UNL     1     -11.578   8.835  71.717  1.00  0.00    -0.346 C  
HETATM   26  C   UNL     1     -13.677   9.038  72.792  1.00  0.00    -0.234 C  
ENDBRANCH  23  24
ENDBRANCH  21  22
ENDBRANCH  19  21
BRANCH  19  27
HETATM   27  C   UNL     1     -11.084  12.147  66.905  1.00  0.00    -0.297 C  
HETATM   28  O   UNL     1     -12.128  12.212  66.265  1.00  0.00    -0.626 OA 
BRANCH  27  29
HETATM   29  N   UNL     1     -10.060  13.047  66.689  1.00  0.00    -0.246 N  
HETATM   30  H   UNL     1      -9.102  12.713  66.581  1.00  0.00     0.000 HD 
BRANCH  29  31
HETATM   31  C   UNL     1     -10.346  14.459  66.616  1.00  0.00    -0.275 C  
HETATM   32  C   UNL     1     -10.685  15.020  67.978  1.00  0.00    -0.262 C  
ENDBRANCH  29  31
ENDBRANCH  27  29
ENDBRANCH  19  27
ENDBRANCH  15  18
BRANCH  16  33
HETATM   33  C   UNL     1      -7.108   9.332  64.167  1.00  0.00    -0.098 C  
BRANCH  33  34
HETATM   34  C   UNL     1      -7.694   8.497  63.060  1.00  0.00    -0.126 C  
HETATM   35  C   UNL     1      -7.788   7.161  63.010  1.00  0.00    -0.118 C  
ENDBRANCH  33  34
ENDBRANCH  16  33
TORSDOF 9
ENDMDL
MODEL       90
REMARK 921   NORMALIZED FREE ENERGY PREDICTED BY IDOCK:   -4.67 KCAL/MOL
REMARK 922        TOTAL FREE ENERGY PREDICTED BY IDOCK:   -7.83 KCAL/MOL
REMARK 923 INTER-LIGAND FREE ENERGY PREDICTED BY IDOCK:   -6.51 KCAL/MOL
REMARK 924 INTRA-LIGAND FREE ENERGY PREDICTED BY IDOCK:   -1.33 KCAL/MOL
REMARK 927      BINDING AFFINITY PREDICTED BY RF-SCORE:    0.00 PKD
ROOT
HETATM    1  C   UNL     1      -9.960  11.492  68.267  1.00  0.00    -0.202 C  
HETATM    2  C   UNL     1     -11.067  11.894  69.242  1.00  0.00    -0.264 C  
HETATM    3  C   UNL     1     -11.375  10.669  70.016  1.00  0.00    -0.400 A  
HETATM    4  C   UNL     1     -12.521  10.072  70.460  1.00  0.00    -0.176 A  
HETATM    5  N   UNL     1     -12.137   9.041  71.288  1.00  0.00    -0.304 NA 
HETATM    6  H   UNL     1     -12.776   8.424  71.788  1.00  0.00     0.000 HD 
HETATM    7  C   UNL     1     -10.763   8.964  71.344  1.00  0.00    -0.312 A  
HETATM    8  C   UNL     1      -9.870   8.283  72.161  1.00  0.00    -0.342 A  
HETATM    9  C   UNL     1      -8.502   8.489  71.899  1.00  0.00    -0.234 A  
HETATM   10  C   UNL     1      -8.049   9.223  70.781  1.00  0.00    -0.194 A  
HETATM   11  C   UNL     1      -8.961   9.868  69.943  1.00  0.00    -0.231 A  
HETATM   12  C   UNL     1      -8.621  10.798  68.782  1.00  0.00    -0.156 C  
HETATM   13  C   UNL     1     -10.303   9.806  70.354  1.00  0.00    -0.354 A  
HETATM   14  C   UNL     1      -7.904  10.241  67.490  1.00  0.00    -0.102 C  
HETATM   15  C   UNL     1      -8.921  10.123  66.287  1.00  0.00    -0.168 C  
HETATM   16  N   UNL     1      -9.681  12.485  67.232  1.00  0.00    -0.199 NA 
HETATM   17  C   UNL     1      -9.406  11.643  66.028  1.00  0.00    -0.227 C  
ENDROOT
BRANCH  15  18
HETATM   18  C   UNL     1      -9.798   8.773  66.638  1.00  0.00    -0.265 C  
HETATM   19  N   UNL     1      -9.315   7.472  66.852  1.00  0.00    -0.149 N  
HETATM   20  O   UNL     1     -10.999   8.957  66.834  1.00  0.00    -0.056 OA 
BRANCH  19  21
HETATM   21  C   UNL     1     -10.289   6.444  67.375  1.00  0.00    -0.205 C  
BRANCH  21  22
HETATM   22  C   UNL     1     -10.633   5.176  66.554  1.00  0.00    -0.320 C  
HETATM   23  C   UNL     1      -9.734   3.907  66.489  1.00  0.00    -0.164 C  
BRANCH  23  24
HETATM   24  N   UNL     1      -9.166   3.220  67.669  1.00  0.00    -0.179 NA 
HETATM   25  C   UNL     1      -7.742   3.611  67.815  1.00  0.00    -0.070 C  
HETATM   26  C   UNL     1      -9.182   1.748  67.574  1.00  0.00    -0.122 C  
ENDBRANCH  23  24
ENDBRANCH  21  22
ENDBRANCH  19  21
BRANCH  19  27
HETATM   27  C   UNL     1      -7.962   7.222  67.039  1.00  0.00    -0.109 C  
HETATM   28  O   UNL     1      -7.456   6.947  68.122  1.00  0.00    -0.094 OA 
BRANCH  27  29
HETATM   29  N   UNL     1      -7.205   7.239  65.884  1.00  0.00    -0.072 N  
HETATM   30  H   UNL     1      -6.315   7.737  65.864  1.00  0.00     0.000 HD 
BRANCH  29  31
HETATM   31  C   UNL     1      -7.676   6.554  64.705  1.00  0.00    -0.106 C  
HETATM   32  C   UNL     1      -7.774   7.496  63.527  1.00  0.00    -0.126 C  
ENDBRANCH  29  31
ENDBRANCH  27  29
ENDBRANCH  19  27
ENDBRANCH  15  18
BRANCH  16  33
HETATM   33  C   UNL     1      -8.635  13.428  67.689  1.00  0.00    -0.193 C  
BRANCH  33  34
HETATM   34  C   UNL     1      -9.087  14.693  68.366  1.00  0.00    -0.192 C  
HETATM   35  C   UNL     1      -9.922  15.622  67.882  1.00  0.00    -0.223 C  
ENDBRANCH  33  34
ENDBRANCH  16  33
TORSDOF 9
ENDMDL
MODEL       91
REMARK 921   NORMALIZED FREE ENERGY PREDICTED BY IDOCK:   -4.67 KCAL/MOL
REMARK 922        TOTAL FREE ENERGY PREDICTED BY IDOCK:   -7.83 KCAL/MOL
REMARK 923 INTER-LIGAND FREE ENERGY PREDICTED BY IDOCK:   -5.91 KCAL/MOL
REMARK 924 INTRA-LIGAND FREE ENERGY PREDICTED BY IDOCK:   -1.93 KCAL/MOL
REMARK 927      BINDING AFFINITY PREDICTED BY RF-SCORE:    0.00 PKD
ROOT
HETATM    1  C   UNL     1     -10.608   7.173  70.021  1.00  0.00    -0.232 C  
HETATM    2  C   UNL     1     -10.691   5.935  69.128  1.00  0.00    -0.394 C  
HETATM    3  C   UNL     1      -9.287   5.575  68.822  1.00  0.00    -0.152 A  
HETATM    4  C   UNL     1      -8.621   5.156  67.704  1.00  0.00    -0.104 A  
HETATM    5  N   UNL     1      -7.351   4.807  68.106  1.00  0.00    -0.066 NA 
HETATM    6  H   UNL     1      -6.625   4.436  67.493  1.00  0.00     0.000 HD 
HETATM    7  C   UNL     1      -7.201   5.032  69.457  1.00  0.00    -0.056 A  
HETATM    8  C   UNL     1      -6.242   4.669  70.392  1.00  0.00    -0.022 A  
HETATM    9  C   UNL     1      -6.469   5.092  71.716  1.00  0.00    -0.031 A  
HETATM   10  C   UNL     1      -7.527   5.961  72.061  1.00  0.00    -0.096 A  
HETATM   11  C   UNL     1      -8.462   6.352  71.100  1.00  0.00    -0.124 A  
HETATM   12  C   UNL     1      -9.722   7.175  71.346  1.00  0.00    -0.170 C  
HETATM   13  C   UNL     1      -8.316   5.748  69.839  1.00  0.00    -0.119 A  
HETATM   14  C   UNL     1      -9.621   8.686  71.792  1.00  0.00    -0.360 C  
HETATM   15  C   UNL     1      -9.973   9.652  70.592  1.00  0.00    -0.299 C  
HETATM   16  N   UNL     1     -11.887   7.847  70.235  1.00  0.00     0.054 NA 
HETATM   17  C   UNL     1     -11.506   9.293  70.230  1.00  0.00    -0.162 C  
ENDROOT
BRANCH  15  18
HETATM   18  C   UNL     1      -8.623   9.621  69.647  1.00  0.00    -0.187 C  
HETATM   19  N   UNL     1      -8.564   9.580  68.244  1.00  0.00    -0.120 N  
HETATM   20  O   UNL     1      -7.555   9.755  70.242  1.00  0.00    -0.153 OA 
BRANCH  19  21
HETATM   21  C   UNL     1      -7.215   9.781  67.597  1.00  0.00    -0.089 C  
BRANCH  21  22
HETATM   22  C   UNL     1      -6.525   8.638  66.812  1.00  0.00    -0.060 C  
HETATM   23  C   UNL     1      -6.822   8.298  65.322  1.00  0.00    -0.059 C  
BRANCH  23  24
HETATM   24  N   UNL     1      -6.850   9.290  64.225  1.00  0.00    -0.088 NA 
HETATM   25  C   UNL     1      -5.735  10.251  64.416  1.00  0.00    -0.137 C  
HETATM   26  C   UNL     1      -8.084  10.095  64.173  1.00  0.00    -0.158 C  
ENDBRANCH  23  24
ENDBRANCH  21  22
ENDBRANCH  19  21
BRANCH  19  27
HETATM   27  C   UNL     1      -9.688   9.817  67.462  1.00  0.00    -0.157 C  
HETATM   28  O   UNL     1     -10.400   8.933  66.997  1.00  0.00    -0.252 OA 
BRANCH  27  29
HETATM   29  N   UNL     1      -9.999  11.150  67.285  1.00  0.00    -0.182 N  
HETATM   30  H   UNL     1      -9.258  11.829  67.114  1.00  0.00     0.000 HD 
BRANCH  29  31
HETATM   31  C   UNL     1     -11.375  11.581  67.344  1.00  0.00    -0.298 C  
HETATM   32  C   UNL     1     -11.570  12.648  68.397  1.00  0.00    -0.370 C  
ENDBRANCH  29  31
ENDBRANCH  27  29
ENDBRANCH  19  27
ENDBRANCH  15  18
BRANCH  16  33
HETATM   33  C   UNL     1     -12.566   7.299  71.430  1.00  0.00    -0.388 C  
BRANCH  33  34
HETATM   34  C   UNL     1     -13.890   7.904  71.816  1.00  0.00    -0.449 C  
HETATM   35  C   UNL     1     -14.098   9.005  72.549  1.00  0.00    -0.428 C  
ENDBRANCH  33  34
ENDBRANCH  16  33
TORSDOF 9
ENDMDL
MODEL       92
REMARK 921   NORMALIZED FREE ENERGY PREDICTED BY IDOCK:   -4.66 KCAL/MOL
REMARK 922        TOTAL FREE ENERGY PREDICTED BY IDOCK:   -7.83 KCAL/MOL
REMARK 923 INTER-LIGAND FREE ENERGY PREDICTED BY IDOCK:   -7.18 KCAL/MOL
REMARK 924 INTRA-LIGAND FREE ENERGY PREDICTED BY IDOCK:   -0.65 KCAL/MOL
REMARK 927      BINDING AFFINITY PREDICTED BY RF-SCORE:    0.00 PKD
ROOT
HETATM    1  C   UNL     1      -9.535  15.260  69.161  1.00  0.00    -0.236 C  
HETATM    2  C   UNL     1      -8.212  15.209  69.924  1.00  0.00     0.160 C  
HETATM    3  C   UNL     1      -7.156  15.274  68.886  1.00  0.00    -0.130 A  
HETATM    4  C   UNL     1      -5.961  14.642  68.687  1.00  0.00    -0.089 A  
HETATM    5  N   UNL     1      -5.350  15.274  67.626  1.00  0.00    -0.314 NA 
HETATM    6  H   UNL     1      -4.431  15.036  67.256  1.00  0.00     0.000 HD 
HETATM    7  C   UNL     1      -6.161  16.274  67.138  1.00  0.00    -0.113 A  
HETATM    8  C   UNL     1      -5.964  17.328  66.257  1.00  0.00    -0.176 A  
HETATM    9  C   UNL     1      -7.073  18.164  66.025  1.00  0.00    -0.318 A  
HETATM   10  C   UNL     1      -8.357  17.875  66.536  1.00  0.00    -0.290 A  
HETATM   11  C   UNL     1      -8.549  16.786  67.389  1.00  0.00    -0.206 A  
HETATM   12  C   UNL     1      -9.840  16.425  68.117  1.00  0.00    -0.238 C  
HETATM   13  C   UNL     1      -7.382  16.097  67.755  1.00  0.00    -0.153 A  
HETATM   14  C   UNL     1     -11.114  15.955  67.311  1.00  0.00    -0.172 C  
HETATM   15  C   UNL     1     -11.327  14.397  67.453  1.00  0.00    -0.353 C  
HETATM   16  N   UNL     1     -10.710  14.954  69.974  1.00  0.00    -0.186 NA 
HETATM   17  C   UNL     1     -11.571  14.172  69.035  1.00  0.00    -0.304 C  
ENDROOT
BRANCH  15  18
HETATM   18  C   UNL     1     -10.193  13.746  66.450  1.00  0.00    -0.292 C  
HETATM   19  N   UNL     1      -9.817  12.396  66.348  1.00  0.00    -0.235 N  
HETATM   20  O   UNL     1      -9.700  14.521  65.631  1.00  0.00    -0.316 OA 
BRANCH  19  21
HETATM   21  C   UNL     1      -8.912  12.009  65.203  1.00  0.00     0.475 C  
BRANCH  21  22
HETATM   22  C   UNL     1      -9.480  11.747  63.787  1.00  0.00    -0.082 C  
HETATM   23  C   UNL     1     -10.985  11.491  63.483  1.00  0.00    -0.373 C  
BRANCH  23  24
HETATM   24  N   UNL     1     -12.096  12.332  63.979  1.00  0.00    -0.444 NA 
HETATM   25  C   UNL     1     -13.383  11.745  63.529  1.00  0.00     0.526 C  
HETATM   26  C   UNL     1     -12.076  13.717  63.474  1.00  0.00    -0.189 C  
ENDBRANCH  23  24
ENDBRANCH  21  22
ENDBRANCH  19  21
BRANCH  19  27
HETATM   27  C   UNL     1     -10.568  11.387  66.937  1.00  0.00    -0.252 C  
HETATM   28  O   UNL     1     -11.785  11.430  67.083  1.00  0.00    -0.556 OA 
BRANCH  27  29
HETATM   29  N   UNL     1      -9.846  10.268  67.303  1.00  0.00    -0.176 N  
HETATM   30  H   UNL     1      -8.838  10.239  67.153  1.00  0.00     0.000 HD 
BRANCH  29  31
HETATM   31  C   UNL     1     -10.521   9.140  67.897  1.00  0.00    -0.237 C  
HETATM   32  C   UNL     1     -10.314   7.885  67.081  1.00  0.00    -0.398 C  
ENDBRANCH  29  31
ENDBRANCH  27  29
ENDBRANCH  19  27
ENDBRANCH  15  18
BRANCH  16  33
HETATM   33  C   UNL     1     -11.260  16.189  70.575  1.00  0.00    -0.363 C  
BRANCH  33  34
HETATM   34  C   UNL     1     -11.988  16.061  71.886  1.00  0.00    -0.606 C  
HETATM   35  C   UNL     1     -13.201  15.535  72.096  1.00  0.00    -0.541 C  
ENDBRANCH  33  34
ENDBRANCH  16  33
TORSDOF 9
ENDMDL
MODEL       93
REMARK 921   NORMALIZED FREE ENERGY PREDICTED BY IDOCK:   -4.65 KCAL/MOL
REMARK 922        TOTAL FREE ENERGY PREDICTED BY IDOCK:   -7.81 KCAL/MOL
REMARK 923 INTER-LIGAND FREE ENERGY PREDICTED BY IDOCK:   -6.63 KCAL/MOL
REMARK 924 INTRA-LIGAND FREE ENERGY PREDICTED BY IDOCK:   -1.18 KCAL/MOL
REMARK 927      BINDING AFFINITY PREDICTED BY RF-SCORE:    0.00 PKD
ROOT
HETATM    1  C   UNL     1     -11.199  13.198  66.642  1.00  0.00    -0.304 C  
HETATM    2  C   UNL     1     -11.967  14.251  67.441  1.00  0.00    -0.426 C  
HETATM    3  C   UNL     1     -11.117  14.551  68.617  1.00  0.00    -0.272 A  
HETATM    4  C   UNL     1     -11.350  14.759  69.947  1.00  0.00    -0.271 A  
HETATM    5  N   UNL     1     -10.160  15.178  70.498  1.00  0.00    -0.419 NA 
HETATM    6  H   UNL     1     -10.027  15.432  71.476  1.00  0.00     0.000 HD 
HETATM    7  C   UNL     1      -9.175  15.205  69.536  1.00  0.00    -0.135 A  
HETATM    8  C   UNL     1      -7.893  15.736  69.487  1.00  0.00    -0.151 A  
HETATM    9  C   UNL     1      -7.191  15.562  68.278  1.00  0.00    -0.118 A  
HETATM   10  C   UNL     1      -7.690  14.769  67.222  1.00  0.00    -0.214 A  
HETATM   11  C   UNL     1      -8.966  14.207  67.303  1.00  0.00    -0.221 A  
HETATM   12  C   UNL     1      -9.688  13.441  66.199  1.00  0.00    -0.260 C  
HETATM   13  C   UNL     1      -9.712  14.569  68.436  1.00  0.00    -0.224 A  
HETATM   14  C   UNL     1      -9.153  12.037  65.712  1.00  0.00     0.008 C  
HETATM   15  C   UNL     1     -10.060  10.867  66.264  1.00  0.00    -0.284 C  
HETATM   16  N   UNL     1     -11.973  12.572  65.572  1.00  0.00    -0.452 NA 
HETATM   17  C   UNL     1     -11.512  11.150  65.615  1.00  0.00     0.358 C  
ENDROOT
BRANCH  15  18
HETATM   18  C   UNL     1      -9.612  10.726  67.844  1.00  0.00    -0.160 C  
HETATM   19  N   UNL     1      -8.396  10.234  68.346  1.00  0.00    -0.115 N  
HETATM   20  O   UNL     1     -10.397  11.204  68.663  1.00  0.00    -0.188 OA 
BRANCH  19  21
HETATM   21  C   UNL     1      -8.131  10.407  69.822  1.00  0.00    -0.044 C  
BRANCH  21  22
HETATM   22  C   UNL     1      -8.170   9.199  70.790  1.00  0.00    -0.226 C  
HETATM   23  C   UNL     1      -9.361   8.881  71.742  1.00  0.00    -0.234 C  
BRANCH  23  24
HETATM   24  N   UNL     1     -10.779   8.835  71.324  1.00  0.00    -0.246 NA 
HETATM   25  C   UNL     1     -11.593   8.296  72.443  1.00  0.00    -0.396 C  
HETATM   26  C   UNL     1     -11.039   7.961  70.166  1.00  0.00    -0.201 C  
ENDBRANCH  23  24
ENDBRANCH  21  22
ENDBRANCH  19  21
BRANCH  19  27
HETATM   27  C   UNL     1      -7.298  10.031  67.520  1.00  0.00    -0.090 C  
HETATM   28  O   UNL     1      -6.384  10.836  67.381  1.00  0.00    -0.056 OA 
BRANCH  27  29
HETATM   29  N   UNL     1      -7.266   8.802  66.893  1.00  0.00    -0.078 N  
HETATM   30  H   UNL     1      -7.334   8.745  65.877  1.00  0.00     0.000 HD 
BRANCH  29  31
HETATM   31  C   UNL     1      -7.136   7.597  67.677  1.00  0.00    -0.085 C  
HETATM   32  C   UNL     1      -8.005   6.489  67.127  1.00  0.00    -0.112 C  
ENDBRANCH  29  31
ENDBRANCH  27  29
ENDBRANCH  19  27
ENDBRANCH  15  18
BRANCH  16  33
HETATM   33  C   UNL     1     -11.816  13.328  64.310  1.00  0.00    -0.417 C  
BRANCH  33  34
HETATM   34  C   UNL     1     -12.279  14.760  64.294  1.00  0.00    -0.402 C  
HETATM   35  C   UNL     1     -11.520  15.860  64.207  1.00  0.00    -0.197 C  
ENDBRANCH  33  34
ENDBRANCH  16  33
TORSDOF 9
ENDMDL
MODEL       94
REMARK 921   NORMALIZED FREE ENERGY PREDICTED BY IDOCK:   -4.65 KCAL/MOL
REMARK 922        TOTAL FREE ENERGY PREDICTED BY IDOCK:   -7.81 KCAL/MOL
REMARK 923 INTER-LIGAND FREE ENERGY PREDICTED BY IDOCK:   -5.93 KCAL/MOL
REMARK 924 INTRA-LIGAND FREE ENERGY PREDICTED BY IDOCK:   -1.89 KCAL/MOL
REMARK 927      BINDING AFFINITY PREDICTED BY RF-SCORE:    0.00 PKD
ROOT
HETATM    1  C   UNL     1      -9.290  10.013  66.745  1.00  0.00    -0.160 C  
HETATM    2  C   UNL     1      -8.536   9.716  65.448  1.00  0.00    -0.155 C  
HETATM    3  C   UNL     1      -8.099   8.305  65.561  1.00  0.00    -0.128 A  
HETATM    4  C   UNL     1      -6.956   7.622  65.254  1.00  0.00    -0.058 A  
HETATM    5  N   UNL     1      -7.235   6.284  65.424  1.00  0.00    -0.068 NA 
HETATM    6  H   UNL     1      -6.578   5.524  65.250  1.00  0.00     0.000 HD 
HETATM    7  C   UNL     1      -8.529   6.121  65.863  1.00  0.00    -0.145 A  
HETATM    8  C   UNL     1      -9.374   5.025  65.982  1.00  0.00    -0.161 A  
HETATM    9  C   UNL     1     -10.669   5.285  66.471  1.00  0.00    -0.290 A  
HETATM   10  C   UNL     1     -11.052   6.554  66.957  1.00  0.00    -0.411 A  
HETATM   11  C   UNL     1     -10.177   7.638  66.869  1.00  0.00    -0.365 A  
HETATM   12  C   UNL     1     -10.493   9.086  67.229  1.00  0.00    -0.343 C  
HETATM   13  C   UNL     1      -8.972   7.384  66.192  1.00  0.00    -0.182 A  
HETATM   14  C   UNL     1     -10.776   9.500  68.726  1.00  0.00    -0.218 C  
HETATM   15  C   UNL     1      -9.540  10.266  69.343  1.00  0.00    -0.237 C  
HETATM   16  N   UNL     1      -9.589  11.428  66.955  1.00  0.00    -0.175 NA 
HETATM   17  C   UNL     1      -9.400  11.592  68.430  1.00  0.00    -0.191 C  
ENDROOT
BRANCH  15  18
HETATM   18  C   UNL     1      -8.447   9.073  69.657  1.00  0.00    -0.128 C  
HETATM   19  N   UNL     1      -7.046   9.177  69.655  1.00  0.00    -0.057 N  
HETATM   20  O   UNL     1      -8.923   8.003  70.036  1.00  0.00    -0.142 OA 
BRANCH  19  21
HETATM   21  C   UNL     1      -6.260   8.003  70.189  1.00  0.00    -0.032 C  
BRANCH  21  22
HETATM   22  C   UNL     1      -5.765   7.972  71.657  1.00  0.00    -0.035 C  
HETATM   23  C   UNL     1      -6.707   7.994  72.896  1.00  0.00    -0.083 C  
BRANCH  23  24
HETATM   24  N   UNL     1      -7.881   7.112  73.074  1.00  0.00    -0.096 NA 
HETATM   25  C   UNL     1      -8.600   7.511  74.310  1.00  0.00    -0.225 C  
HETATM   26  C   UNL     1      -7.544   5.686  73.235  1.00  0.00    -0.096 C  
ENDBRANCH  23  24
ENDBRANCH  21  22
ENDBRANCH  19  21
BRANCH  19  27
HETATM   27  C   UNL     1      -6.409  10.410  69.625  1.00  0.00    -0.068 C  
HETATM   28  O   UNL     1      -6.514  11.261  70.501  1.00  0.00    -0.289 OA 
BRANCH  27  29
HETATM   29  N   UNL     1      -5.573  10.602  68.543  1.00  0.00    -0.041 N  
HETATM   30  H   UNL     1      -4.702  10.075  68.471  1.00  0.00     0.000 HD 
BRANCH  29  31
HETATM   31  C   UNL     1      -5.931  11.549  67.516  1.00  0.00    -0.071 C  
HETATM   32  C   UNL     1      -5.179  12.850  67.683  1.00  0.00    -0.090 C  
ENDBRANCH  29  31
ENDBRANCH  27  29
ENDBRANCH  19  27
ENDBRANCH  15  18
BRANCH  16  33
HETATM   33  C   UNL     1     -10.904  11.771  66.370  1.00  0.00    -0.282 C  
BRANCH  33  34
HETATM   34  C   UNL     1     -11.784  12.716  67.142  1.00  0.00    -0.438 C  
HETATM   35  C   UNL     1     -12.043  14.000  66.862  1.00  0.00    -0.465 C  
ENDBRANCH  33  34
ENDBRANCH  16  33
TORSDOF 9
ENDMDL
MODEL       95
REMARK 921   NORMALIZED FREE ENERGY PREDICTED BY IDOCK:   -4.64 KCAL/MOL
REMARK 922        TOTAL FREE ENERGY PREDICTED BY IDOCK:   -7.79 KCAL/MOL
REMARK 923 INTER-LIGAND FREE ENERGY PREDICTED BY IDOCK:   -6.06 KCAL/MOL
REMARK 924 INTRA-LIGAND FREE ENERGY PREDICTED BY IDOCK:   -1.73 KCAL/MOL
REMARK 927      BINDING AFFINITY PREDICTED BY RF-SCORE:    0.00 PKD
ROOT
HETATM    1  C   UNL     1      -7.656   5.199  67.758  1.00  0.00    -0.087 C  
HETATM    2  C   UNL     1      -6.413   5.578  68.564  1.00  0.00    -0.043 C  
HETATM    3  C   UNL     1      -6.920   6.024  69.883  1.00  0.00    -0.070 A  
HETATM    4  C   UNL     1      -6.611   7.042  70.741  1.00  0.00    -0.052 A  
HETATM    5  N   UNL     1      -7.319   6.814  71.900  1.00  0.00    -0.084 NA 
HETATM    6  H   UNL     1      -7.277   7.398  72.734  1.00  0.00     0.000 HD 
HETATM    7  C   UNL     1      -8.093   5.682  71.768  1.00  0.00    -0.118 A  
HETATM    8  C   UNL     1      -8.807   4.896  72.662  1.00  0.00    -0.125 A  
HETATM    9  C   UNL     1      -9.472   3.780  72.119  1.00  0.00    -0.194 A  
HETATM   10  C   UNL     1      -9.542   3.544  70.729  1.00  0.00    -0.246 A  
HETATM   11  C   UNL     1      -8.851   4.368  69.838  1.00  0.00    -0.129 A  
HETATM   12  C   UNL     1      -8.725   4.165  68.331  1.00  0.00    -0.122 C  
HETATM   13  C   UNL     1      -8.038   5.348  70.431  1.00  0.00    -0.101 A  
HETATM   14  C   UNL     1      -9.990   4.294  67.394  1.00  0.00    -0.120 C  
HETATM   15  C   UNL     1      -9.958   5.652  66.588  1.00  0.00    -0.211 C  
HETATM   16  N   UNL     1      -7.404   4.971  66.337  1.00  0.00    -0.084 NA 
HETATM   17  C   UNL     1      -8.621   5.548  65.687  1.00  0.00    -0.148 C  
ENDROOT
BRANCH  15  18
HETATM   18  C   UNL     1     -10.405   6.785  67.699  1.00  0.00    -0.203 C  
HETATM   19  N   UNL     1      -9.939   8.106  67.805  1.00  0.00    -0.170 N  
HETATM   20  O   UNL     1     -11.325   6.460  68.449  1.00  0.00    -0.280 OA 
BRANCH  19  21
HETATM   21  C   UNL     1     -10.657   9.022  68.767  1.00  0.00    -0.169 C  
BRANCH  21  22
HETATM   22  C   UNL     1     -10.551   8.817  70.299  1.00  0.00    -0.239 C  
HETATM   23  C   UNL     1     -11.394   9.603  71.345  1.00  0.00    -0.374 C  
BRANCH  23  24
HETATM   24  N   UNL     1     -12.861   9.779  71.279  1.00  0.00    -0.357 NA 
HETATM   25  C   UNL     1     -13.212  11.109  71.838  1.00  0.00    -0.382 C  
HETATM   26  C   UNL     1     -13.623   8.788  72.062  1.00  0.00    -0.427 C  
ENDBRANCH  23  24
ENDBRANCH  21  22
ENDBRANCH  19  21
BRANCH  19  27
HETATM   27  C   UNL     1      -9.199   8.699  66.791  1.00  0.00    -0.169 C  
HETATM   28  O   UNL     1      -7.985   8.865  66.832  1.00  0.00    -0.100 OA 
BRANCH  27  29
HETATM   29  N   UNL     1      -9.927   9.047  65.671  1.00  0.00    -0.413 N  
HETATM   30  H   UNL     1     -10.534   8.360  65.223  1.00  0.00     0.000 HD 
BRANCH  29  31
HETATM   31  C   UNL     1      -9.828  10.382  65.135  1.00  0.00    -0.313 C  
HETATM   32  C   UNL     1     -10.696  11.349  65.908  1.00  0.00    -0.311 C  
ENDBRANCH  29  31
ENDBRANCH  27  29
ENDBRANCH  19  27
ENDBRANCH  15  18
BRANCH  16  33
HETATM   33  C   UNL     1      -7.079   3.549  66.090  1.00  0.00    -0.063 C  
BRANCH  33  34
HETATM   34  C   UNL     1      -7.651   2.908  64.854  1.00  0.00    -0.076 C  
HETATM   35  C   UNL     1      -8.373   1.783  64.781  1.00  0.00    -0.081 C  
ENDBRANCH  33  34
ENDBRANCH  16  33
TORSDOF 9
ENDMDL
MODEL       96
REMARK 921   NORMALIZED FREE ENERGY PREDICTED BY IDOCK:   -4.64 KCAL/MOL
REMARK 922        TOTAL FREE ENERGY PREDICTED BY IDOCK:   -7.79 KCAL/MOL
REMARK 923 INTER-LIGAND FREE ENERGY PREDICTED BY IDOCK:   -6.58 KCAL/MOL
REMARK 924 INTRA-LIGAND FREE ENERGY PREDICTED BY IDOCK:   -1.21 KCAL/MOL
REMARK 927      BINDING AFFINITY PREDICTED BY RF-SCORE:    0.00 PKD
ROOT
HETATM    1  C   UNL     1     -11.809   9.609  70.371  1.00  0.00    -0.155 C  
HETATM    2  C   UNL     1     -12.965   9.152  71.260  1.00  0.00    -0.307 C  
HETATM    3  C   UNL     1     -12.530   7.860  71.839  1.00  0.00    -0.352 A  
HETATM    4  C   UNL     1     -13.135   6.658  72.078  1.00  0.00    -0.011 A  
HETATM    5  N   UNL     1     -12.245   5.904  72.810  1.00  0.00    -0.520 NA 
HETATM    6  H   UNL     1     -12.425   4.962  73.156  1.00  0.00     0.000 HD 
HETATM    7  C   UNL     1     -11.077   6.605  73.006  1.00  0.00    -0.205 A  
HETATM    8  C   UNL     1      -9.971   6.423  73.826  1.00  0.00    -0.252 A  
HETATM    9  C   UNL     1      -8.964   7.403  73.742  1.00  0.00    -0.275 A  
HETATM   10  C   UNL     1      -8.992   8.436  72.780  1.00  0.00    -0.291 A  
HETATM   11  C   UNL     1     -10.092   8.582  71.933  1.00  0.00    -0.367 A  
HETATM   12  C   UNL     1     -10.324   9.716  70.940  1.00  0.00    -0.334 C  
HETATM   13  C   UNL     1     -11.164   7.709  72.184  1.00  0.00    -0.331 A  
HETATM   14  C   UNL     1      -9.392   9.881  69.676  1.00  0.00    -0.247 C  
HETATM   15  C   UNL     1     -10.134   9.410  68.363  1.00  0.00    -0.208 C  
HETATM   16  N   UNL     1     -12.129  10.740  69.503  1.00  0.00    -0.303 NA 
HETATM   17  C   UNL     1     -11.398  10.410  68.241  1.00  0.00    -0.224 C  
ENDROOT
BRANCH  15  18
HETATM   18  C   UNL     1     -10.086   7.765  68.446  1.00  0.00    -0.192 C  
HETATM   19  N   UNL     1      -8.954   6.938  68.353  1.00  0.00    -0.122 N  
HETATM   20  O   UNL     1     -11.152   7.216  68.725  1.00  0.00    -0.101 OA 
BRANCH  19  21
HETATM   21  C   UNL     1      -9.132   5.474  68.679  1.00  0.00    -0.117 C  
BRANCH  21  22
HETATM   22  C   UNL     1      -8.464   4.375  67.816  1.00  0.00    -0.101 C  
HETATM   23  C   UNL     1      -7.078   3.740  68.131  1.00  0.00    -0.051 C  
BRANCH  23  24
HETATM   24  N   UNL     1      -6.679   3.211  69.453  1.00  0.00    -0.034 NA 
HETATM   25  C   UNL     1      -5.892   1.967  69.256  1.00  0.00    -0.023 C  
HETATM   26  C   UNL     1      -7.812   2.848  70.324  1.00  0.00    -0.042 C  
ENDBRANCH  23  24
ENDBRANCH  21  22
ENDBRANCH  19  21
BRANCH  19  27
HETATM   27  C   UNL     1      -7.668   7.456  68.428  1.00  0.00    -0.120 C  
HETATM   28  O   UNL     1      -6.945   7.363  69.415  1.00  0.00    -0.058 OA 
BRANCH  27  29
HETATM   29  N   UNL     1      -7.214   8.046  67.266  1.00  0.00    -0.086 N  
HETATM   30  H   UNL     1      -6.859   9.002  67.283  1.00  0.00     0.000 HD 
BRANCH  29  31
HETATM   31  C   UNL     1      -7.241   7.308  66.026  1.00  0.00    -0.074 C  
HETATM   32  C   UNL     1      -8.215   7.921  65.046  1.00  0.00    -0.134 C  
ENDBRANCH  29  31
ENDBRANCH  27  29
ENDBRANCH  19  27
ENDBRANCH  15  18
BRANCH  16  33
HETATM   33  C   UNL     1     -11.822  12.018  70.183  1.00  0.00    -0.301 C  
BRANCH  33  34
HETATM   34  C   UNL     1     -11.290  13.145  69.339  1.00  0.00    -0.276 C  
HETATM   35  C   UNL     1     -11.984  14.158  68.804  1.00  0.00    -0.367 C  
ENDBRANCH  33  34
ENDBRANCH  16  33
TORSDOF 9
ENDMDL
MODEL       97
REMARK 921   NORMALIZED FREE ENERGY PREDICTED BY IDOCK:   -4.64 KCAL/MOL
REMARK 922        TOTAL FREE ENERGY PREDICTED BY IDOCK:   -7.79 KCAL/MOL
REMARK 923 INTER-LIGAND FREE ENERGY PREDICTED BY IDOCK:   -6.67 KCAL/MOL
REMARK 924 INTRA-LIGAND FREE ENERGY PREDICTED BY IDOCK:   -1.12 KCAL/MOL
REMARK 927      BINDING AFFINITY PREDICTED BY RF-SCORE:    0.00 PKD
ROOT
HETATM    1  C   UNL     1      -9.758   5.878  69.282  1.00  0.00    -0.144 C  
HETATM    2  C   UNL     1      -9.770   4.537  68.549  1.00  0.00    -0.198 C  
HETATM    3  C   UNL     1      -9.083   4.787  67.260  1.00  0.00    -0.127 A  
HETATM    4  C   UNL     1      -9.295   4.407  65.965  1.00  0.00    -0.160 A  
HETATM    5  N   UNL     1      -8.194   4.816  65.245  1.00  0.00    -0.116 NA 
HETATM    6  H   UNL     1      -8.055   4.654  64.248  1.00  0.00     0.000 HD 
HETATM    7  C   UNL     1      -7.307   5.474  66.067  1.00  0.00    -0.078 A  
HETATM    8  C   UNL     1      -5.989   5.886  65.927  1.00  0.00    -0.028 A  
HETATM    9  C   UNL     1      -5.414   6.530  67.039  1.00  0.00    -0.013 A  
HETATM   10  C   UNL     1      -6.165   6.877  68.183  1.00  0.00    -0.034 A  
HETATM   11  C   UNL     1      -7.502   6.492  68.293  1.00  0.00    -0.095 A  
HETATM   12  C   UNL     1      -8.399   6.678  69.513  1.00  0.00    -0.131 C  
HETATM   13  C   UNL     1      -7.981   5.678  67.253  1.00  0.00    -0.102 A  
HETATM   14  C   UNL     1      -8.828   8.124  69.982  1.00  0.00    -0.139 C  
HETATM   15  C   UNL     1     -10.333   8.416  69.603  1.00  0.00    -0.218 C  
HETATM   16  N   UNL     1     -10.609   5.921  70.469  1.00  0.00    -0.255 NA 
HETATM   17  C   UNL     1     -11.172   7.306  70.425  1.00  0.00    -0.276 C  
ENDROOT
BRANCH  15  18
HETATM   18  C   UNL     1     -10.284   8.726  67.985  1.00  0.00    -0.213 C  
HETATM   19  N   UNL     1      -9.638   9.794  67.340  1.00  0.00    -0.151 N  
HETATM   20  O   UNL     1     -10.784   7.864  67.263  1.00  0.00    -0.301 OA 
BRANCH  19  21
HETATM   21  C   UNL     1      -9.547   9.746  65.833  1.00  0.00    -0.250 C  
BRANCH  21  22
HETATM   22  C   UNL     1      -9.231  11.018  65.009  1.00  0.00    -0.219 C  
HETATM   23  C   UNL     1     -10.223  11.681  64.010  1.00  0.00    -0.346 C  
BRANCH  23  24
HETATM   24  N   UNL     1     -11.634  12.001  64.316  1.00  0.00    -0.359 NA 
HETATM   25  C   UNL     1     -12.124  13.003  63.337  1.00  0.00    -0.515 C  
HETATM   26  C   UNL     1     -11.842  12.592  65.651  1.00  0.00    -0.438 C  
ENDBRANCH  23  24
ENDBRANCH  21  22
ENDBRANCH  19  21
BRANCH  19  27
HETATM   27  C   UNL     1      -8.727  10.602  68.008  1.00  0.00    -0.126 C  
HETATM   28  O   UNL     1      -7.512  10.435  67.984  1.00  0.00    -0.088 OA 
BRANCH  27  29
HETATM   29  N   UNL     1      -9.285  11.676  68.671  1.00  0.00    -0.338 N  
HETATM   30  H   UNL     1      -9.899  11.520  69.470  1.00  0.00     0.000 HD 
BRANCH  29  31
HETATM   31  C   UNL     1      -8.997  13.020  68.232  1.00  0.00    -0.177 C  
HETATM   32  C   UNL     1     -10.172  13.940  68.477  1.00  0.00    -0.240 C  
ENDBRANCH  29  31
ENDBRANCH  27  29
ENDBRANCH  19  27
ENDBRANCH  15  18
BRANCH  16  33
HETATM   33  C   UNL     1      -9.847   5.507  71.668  1.00  0.00    -0.173 C  
BRANCH  33  34
HETATM   34  C   UNL     1     -10.513   5.673  73.008  1.00  0.00    -0.246 C  
HETATM   35  C   UNL     1     -10.201   6.552  73.968  1.00  0.00    -0.374 C  
ENDBRANCH  33  34
ENDBRANCH  16  33
TORSDOF 9
ENDMDL
MODEL       98
REMARK 921   NORMALIZED FREE ENERGY PREDICTED BY IDOCK:   -4.64 KCAL/MOL
REMARK 922        TOTAL FREE ENERGY PREDICTED BY IDOCK:   -7.79 KCAL/MOL
REMARK 923 INTER-LIGAND FREE ENERGY PREDICTED BY IDOCK:   -6.34 KCAL/MOL
REMARK 924 INTRA-LIGAND FREE ENERGY PREDICTED BY IDOCK:   -1.45 KCAL/MOL
REMARK 927      BINDING AFFINITY PREDICTED BY RF-SCORE:    0.00 PKD
ROOT
HETATM    1  C   UNL     1      -7.910   9.907  66.781  1.00  0.00    -0.109 C  
HETATM    2  C   UNL     1      -6.749  10.796  67.227  1.00  0.00    -0.080 C  
HETATM    3  C   UNL     1      -6.592  10.541  68.678  1.00  0.00    -0.052 A  
HETATM    4  C   UNL     1      -6.352  11.321  69.774  1.00  0.00    -0.137 A  
HETATM    5  N   UNL     1      -6.131  10.466  70.831  1.00  0.00    -0.287 NA 
HETATM    6  H   UNL     1      -5.905  10.758  71.781  1.00  0.00     0.000 HD 
HETATM    7  C   UNL     1      -6.261   9.158  70.418  1.00  0.00    -0.048 A  
HETATM    8  C   UNL     1      -5.943   7.933  70.989  1.00  0.00    -0.034 A  
HETATM    9  C   UNL     1      -6.224   6.792  70.214  1.00  0.00    -0.031 A  
HETATM   10  C   UNL     1      -6.924   6.863  68.990  1.00  0.00    -0.082 A  
HETATM   11  C   UNL     1      -7.274   8.101  68.447  1.00  0.00    -0.093 A  
HETATM   12  C   UNL     1      -7.911   8.342  67.083  1.00  0.00    -0.104 C  
HETATM   13  C   UNL     1      -6.799   9.220  69.150  1.00  0.00    -0.050 A  
HETATM   14  C   UNL     1      -9.382   7.850  66.783  1.00  0.00    -0.232 C  
HETATM   15  C   UNL     1     -10.392   9.064  66.780  1.00  0.00    -0.310 C  
HETATM   16  N   UNL     1      -8.400  10.190  65.434  1.00  0.00    -0.150 NA 
HETATM   17  C   UNL     1      -9.877  10.006  65.572  1.00  0.00    -0.303 C  
ENDROOT
BRANCH  15  18
HETATM   18  C   UNL     1     -10.607   9.409  68.377  1.00  0.00    -0.204 C  
HETATM   19  N   UNL     1     -10.884  10.661  68.950  1.00  0.00    -0.214 N  
HETATM   20  O   UNL     1     -10.628   8.437  69.132  1.00  0.00    -0.217 OA 
BRANCH  19  21
HETATM   21  C   UNL     1     -11.258  10.690  70.414  1.00  0.00    -0.252 C  
BRANCH  21  22
HETATM   22  C   UNL     1     -12.740  10.649  70.863  1.00  0.00    -0.498 C  
HETATM   23  C   UNL     1     -13.532   9.339  71.140  1.00  0.00    -0.163 C  
BRANCH  23  24
HETATM   24  N   UNL     1     -13.047   8.229  71.989  1.00  0.00    -0.336 NA 
HETATM   25  C   UNL     1     -11.697   8.571  72.503  1.00  0.00    -0.320 C  
HETATM   26  C   UNL     1     -12.905   6.945  71.278  1.00  0.00    -0.278 C  
ENDBRANCH  23  24
ENDBRANCH  21  22
ENDBRANCH  19  21
BRANCH  19  27
HETATM   27  C   UNL     1     -11.264  11.748  68.174  1.00  0.00    -0.260 C  
HETATM   28  O   UNL     1     -12.224  11.746  67.411  1.00  0.00    -0.501 OA 
BRANCH  27  29
HETATM   29  N   UNL     1     -10.509  12.887  68.365  1.00  0.00    -0.247 N  
HETATM   30  H   UNL     1     -10.654  13.463  69.195  1.00  0.00     0.000 HD 
BRANCH  29  31
HETATM   31  C   UNL     1      -9.514  13.263  67.390  1.00  0.00    -0.218 C  
HETATM   32  C   UNL     1      -8.431  14.115  68.013  1.00  0.00    -0.171 C  
ENDBRANCH  29  31
ENDBRANCH  27  29
ENDBRANCH  19  27
ENDBRANCH  15  18
BRANCH  16  33
HETATM   33  C   UNL     1      -7.676   9.370  64.437  1.00  0.00    -0.119 C  
BRANCH  33  34
HETATM   34  C   UNL     1      -6.538  10.021  63.696  1.00  0.00    -0.130 C  
HETATM   35  C   UNL     1      -6.591  10.658  62.520  1.00  0.00    -0.107 C  
ENDBRANCH  33  34
ENDBRANCH  16  33
TORSDOF 9
ENDMDL
MODEL       99
REMARK 921   NORMALIZED FREE ENERGY PREDICTED BY IDOCK:   -4.63 KCAL/MOL
REMARK 922        TOTAL FREE ENERGY PREDICTED BY IDOCK:   -7.77 KCAL/MOL
REMARK 923 INTER-LIGAND FREE ENERGY PREDICTED BY IDOCK:   -5.24 KCAL/MOL
REMARK 924 INTRA-LIGAND FREE ENERGY PREDICTED BY IDOCK:   -2.53 KCAL/MOL
REMARK 927      BINDING AFFINITY PREDICTED BY RF-SCORE:    0.00 PKD
ROOT
HETATM    1  C   UNL     1      -8.158   9.919  67.929  1.00  0.00    -0.109 C  
HETATM    2  C   UNL     1      -6.771   9.522  68.435  1.00  0.00    -0.058 C  
HETATM    3  C   UNL     1      -6.599   8.104  68.039  1.00  0.00    -0.057 A  
HETATM    4  C   UNL     1      -6.084   6.991  68.642  1.00  0.00    -0.027 A  
HETATM    5  N   UNL     1      -6.040   6.004  67.682  1.00  0.00    -0.017 NA 
HETATM    6  H   UNL     1      -5.682   5.061  67.830  1.00  0.00     0.000 HD 
HETATM    7  C   UNL     1      -6.550   6.475  66.493  1.00  0.00    -0.048 A  
HETATM    8  C   UNL     1      -6.547   6.000  65.188  1.00  0.00    -0.043 A  
HETATM    9  C   UNL     1      -7.180   6.810  64.227  1.00  0.00    -0.070 A  
HETATM   10  C   UNL     1      -7.910   7.967  64.575  1.00  0.00    -0.138 A  
HETATM   11  C   UNL     1      -7.939   8.411  65.899  1.00  0.00    -0.099 A  
HETATM   12  C   UNL     1      -8.571   9.704  66.405  1.00  0.00    -0.136 C  
HETATM   13  C   UNL     1      -7.131   7.690  66.793  1.00  0.00    -0.083 A  
HETATM   14  C   UNL     1     -10.136   9.908  66.353  1.00  0.00    -0.308 C  
HETATM   15  C   UNL     1     -10.771   9.763  67.792  1.00  0.00    -0.329 C  
HETATM   16  N   UNL     1      -8.636  11.205  68.434  1.00  0.00    -0.146 NA 
HETATM   17  C   UNL     1     -10.095  10.957  68.646  1.00  0.00    -0.191 C  
ENDROOT
BRANCH  15  18
HETATM   18  C   UNL     1     -10.781   8.138  68.062  1.00  0.00    -0.044 C  
HETATM   19  N   UNL     1     -10.750   7.478  69.301  1.00  0.00    -0.210 N  
HETATM   20  O   UNL     1     -10.938   7.435  67.064  1.00  0.00    -0.332 OA 
BRANCH  19  21
HETATM   21  C   UNL     1     -10.989   5.987  69.303  1.00  0.00    -0.366 C  
BRANCH  21  22
HETATM   22  C   UNL     1      -9.807   4.986  69.264  1.00  0.00    -0.266 C  
HETATM   23  C   UNL     1      -8.662   4.945  70.317  1.00  0.00    -0.098 C  
BRANCH  23  24
HETATM   24  N   UNL     1      -8.869   4.935  71.782  1.00  0.00    -0.127 NA 
HETATM   25  C   UNL     1      -7.593   4.568  72.446  1.00  0.00    -0.084 C  
HETATM   26  C   UNL     1      -9.870   3.955  72.242  1.00  0.00    -0.162 C  
ENDBRANCH  23  24
ENDBRANCH  21  22
ENDBRANCH  19  21
BRANCH  19  27
HETATM   27  C   UNL     1     -10.962   8.159  70.493  1.00  0.00    -0.243 C  
HETATM   28  O   UNL     1     -11.972   8.809  70.743  1.00  0.00    -0.246 OA 
BRANCH  27  29
HETATM   29  N   UNL     1      -9.963   8.005  71.433  1.00  0.00    -0.174 N  
HETATM   30  H   UNL     1      -9.984   7.213  72.075  1.00  0.00     0.000 HD 
BRANCH  29  31
HETATM   31  C   UNL     1      -8.890   8.967  71.505  1.00  0.00    -0.183 C  
HETATM   32  C   UNL     1      -7.620   8.332  72.026  1.00  0.00    -0.145 C  
ENDBRANCH  29  31
ENDBRANCH  27  29
ENDBRANCH  19  27
ENDBRANCH  15  18
BRANCH  16  33
HETATM   33  C   UNL     1      -8.230  12.300  67.526  1.00  0.00    -0.170 C  
BRANCH  33  34
HETATM   34  C   UNL     1      -9.209  13.424  67.311  1.00  0.00    -0.222 C  
HETATM   35  C   UNL     1      -9.835  13.751  66.173  1.00  0.00    -0.310 C  
ENDBRANCH  33  34
ENDBRANCH  16  33
TORSDOF 9
ENDMDL
MODEL      100
REMARK 921   NORMALIZED FREE ENERGY PREDICTED BY IDOCK:   -4.61 KCAL/MOL
REMARK 922        TOTAL FREE ENERGY PREDICTED BY IDOCK:   -7.75 KCAL/MOL
REMARK 923 INTER-LIGAND FREE ENERGY PREDICTED BY IDOCK:   -6.57 KCAL/MOL
REMARK 924 INTRA-LIGAND FREE ENERGY PREDICTED BY IDOCK:   -1.18 KCAL/MOL
REMARK 927      BINDING AFFINITY PREDICTED BY RF-SCORE:    0.00 PKD
ROOT
HETATM    1  C   UNL     1     -10.398  13.188  65.162  1.00  0.00    -0.311 C  
HETATM    2  C   UNL     1     -10.522  14.700  64.976  1.00  0.00    -0.447 C  
HETATM    3  C   UNL     1     -10.360  15.278  66.331  1.00  0.00    -0.296 A  
HETATM    4  C   UNL     1     -10.971  16.280  67.031  1.00  0.00    -0.086 A  
HETATM    5  N   UNL     1     -10.242  16.460  68.185  1.00  0.00    -0.253 NA 
HETATM    6  H   UNL     1     -10.445  17.157  68.901  1.00  0.00     0.000 HD 
HETATM    7  C   UNL     1      -9.200  15.562  68.233  1.00  0.00    -0.188 A  
HETATM    8  C   UNL     1      -8.066  15.444  69.027  1.00  0.00    -0.213 A  
HETATM    9  C   UNL     1      -7.211  14.364  68.739  1.00  0.00    -0.128 A  
HETATM   10  C   UNL     1      -7.547  13.364  67.800  1.00  0.00    -0.157 A  
HETATM   11  C   UNL     1      -8.711  13.474  67.037  1.00  0.00    -0.197 A  
HETATM   12  C   UNL     1      -9.139  12.550  65.901  1.00  0.00     0.139 C  
HETATM   13  C   UNL     1      -9.433  14.666  67.211  1.00  0.00    -0.221 A  
HETATM   14  C   UNL     1      -9.529  11.047  66.191  1.00  0.00    -0.230 C  
HETATM   15  C   UNL     1     -11.094  10.847  66.115  1.00  0.00    -0.009 C  
HETATM   16  N   UNL     1     -10.779  12.405  63.988  1.00  0.00    -0.369 NA 
HETATM   17  C   UNL     1     -11.467  11.221  64.587  1.00  0.00     0.094 C  
ENDROOT
BRANCH  15  18
HETATM   18  C   UNL     1     -11.648  11.484  67.530  1.00  0.00    -0.246 C  
HETATM   19  N   UNL     1     -11.457  10.978  68.826  1.00  0.00    -0.279 N  
HETATM   20  O   UNL     1     -12.200  12.580  67.438  1.00  0.00    -0.430 OA 
BRANCH  19  21
HETATM   21  C   UNL     1     -11.872  11.855  69.984  1.00  0.00    -0.328 C  
BRANCH  21  22
HETATM   22  C   UNL     1     -11.535  13.366  70.005  1.00  0.00    -0.126 C  
HETATM   23  C   UNL     1     -12.588  14.494  70.213  1.00  0.00    -0.323 C  
BRANCH  23  24
HETATM   24  N   UNL     1     -13.596  14.510  71.294  1.00  0.00    -0.372 NA 
HETATM   25  C   UNL     1     -13.740  15.899  71.798  1.00  0.00     0.014 C  
HETATM   26  C   UNL     1     -13.242  13.682  72.462  1.00  0.00    -0.475 C  
ENDBRANCH  23  24
ENDBRANCH  21  22
ENDBRANCH  19  21
BRANCH  19  27
HETATM   27  C   UNL     1     -10.534   9.974  69.086  1.00  0.00    -0.219 C  
HETATM   28  O   UNL     1     -10.623   8.829  68.654  1.00  0.00    -0.208 OA 
BRANCH  27  29
HETATM   29  N   UNL     1      -9.443  10.370  69.833  1.00  0.00    -0.406 N  
HETATM   30  H   UNL     1      -9.565  11.021  70.608  1.00  0.00     0.000 HD 
BRANCH  29  31
HETATM   31  C   UNL     1      -8.131   9.862  69.514  1.00  0.00    -0.152 C  
HETATM   32  C   UNL     1      -7.048  10.730  70.113  1.00  0.00     0.077 C  
ENDBRANCH  29  31
ENDBRANCH  27  29
ENDBRANCH  19  27
ENDBRANCH  15  18
BRANCH  16  33
HETATM   33  C   UNL     1      -9.606  12.174  63.117  1.00  0.00     0.284 C  
BRANCH  33  34
HETATM   34  C   UNL     1      -9.385  10.776  62.604  1.00  0.00    -0.340 C  
HETATM   35  C   UNL     1      -8.306  10.003  62.787  1.00  0.00    -0.167 C  
ENDBRANCH  33  34
ENDBRANCH  16  33
TORSDOF 9
ENDMDL
MODEL      101
REMARK 921   NORMALIZED FREE ENERGY PREDICTED BY IDOCK:   -4.59 KCAL/MOL
REMARK 922        TOTAL FREE ENERGY PREDICTED BY IDOCK:   -7.72 KCAL/MOL
REMARK 923 INTER-LIGAND FREE ENERGY PREDICTED BY IDOCK:   -5.62 KCAL/MOL
REMARK 924 INTRA-LIGAND FREE ENERGY PREDICTED BY IDOCK:   -2.10 KCAL/MOL
REMARK 927      BINDING AFFINITY PREDICTED BY RF-SCORE:    0.00 PKD
ROOT
HETATM    1  C   UNL     1      -9.468   9.650  67.055  1.00  0.00    -0.154 C  
HETATM    2  C   UNL     1     -10.535   8.658  66.593  1.00  0.00    -0.239 C  
HETATM    3  C   UNL     1     -10.655   7.669  67.690  1.00  0.00    -0.294 A  
HETATM    4  C   UNL     1     -10.789   6.310  67.753  1.00  0.00    -0.338 A  
HETATM    5  N   UNL     1     -11.036   5.996  69.071  1.00  0.00    -0.351 NA 
HETATM    6  H   UNL     1     -11.202   5.055  69.425  1.00  0.00     0.000 HD 
HETATM    7  C   UNL     1     -11.029   7.138  69.841  1.00  0.00    -0.253 A  
HETATM    8  C   UNL     1     -11.421   7.424  71.141  1.00  0.00    -0.303 A  
HETATM    9  C   UNL     1     -11.264   8.758  71.562  1.00  0.00    -0.377 A  
HETATM   10  C   UNL     1     -10.608   9.727  70.772  1.00  0.00    -0.371 A  
HETATM   11  C   UNL     1     -10.181   9.414  69.480  1.00  0.00    -0.219 A  
HETATM   12  C   UNL     1      -9.580  10.382  68.466  1.00  0.00    -0.161 C  
HETATM   13  C   UNL     1     -10.536   8.134  69.023  1.00  0.00    -0.167 A  
HETATM   14  C   UNL     1      -8.166  11.039  68.721  1.00  0.00    -0.146 C  
HETATM   15  C   UNL     1      -7.063  10.371  67.809  1.00  0.00    -0.084 C  
HETATM   16  N   UNL     1      -9.009  10.567  66.014  1.00  0.00    -0.161 NA 
HETATM   17  C   UNL     1      -7.547  10.692  66.301  1.00  0.00    -0.137 C  
ENDROOT
BRANCH  15  18
HETATM   18  C   UNL     1      -6.759   8.927  68.542  1.00  0.00    -0.060 C  
HETATM   19  N   UNL     1      -6.580   7.678  67.926  1.00  0.00    -0.057 N  
HETATM   20  O   UNL     1      -6.565   8.978  69.757  1.00  0.00    -0.043 OA 
BRANCH  19  21
HETATM   21  C   UNL     1      -6.094   6.538  68.789  1.00  0.00    -0.025 C  
BRANCH  21  22
HETATM   22  C   UNL     1      -7.092   5.567  69.469  1.00  0.00    -0.064 C  
HETATM   23  C   UNL     1      -7.651   4.278  68.798  1.00  0.00    -0.059 C  
BRANCH  23  24
HETATM   24  N   UNL     1      -6.822   3.256  68.124  1.00  0.00    -0.048 NA 
HETATM   25  C   UNL     1      -6.839   3.510  66.661  1.00  0.00    -0.054 C  
HETATM   26  C   UNL     1      -7.301   1.874  68.308  1.00  0.00    -0.043 C  
ENDBRANCH  23  24
ENDBRANCH  21  22
ENDBRANCH  19  21
BRANCH  19  27
HETATM   27  C   UNL     1      -6.392   7.564  66.555  1.00  0.00    -0.045 C  
HETATM   28  O   UNL     1      -5.375   7.920  65.969  1.00  0.00    -0.028 OA 
BRANCH  27  29
HETATM   29  N   UNL     1      -7.426   6.950  65.878  1.00  0.00    -0.081 N  
HETATM   30  H   UNL     1      -7.952   6.198  66.322  1.00  0.00     0.000 HD 
BRANCH  29  31
HETATM   31  C   UNL     1      -7.762   7.374  64.540  1.00  0.00    -0.126 C  
HETATM   32  C   UNL     1      -7.032   6.550  63.505  1.00  0.00    -0.051 C  
ENDBRANCH  29  31
ENDBRANCH  27  29
ENDBRANCH  19  27
ENDBRANCH  15  18
BRANCH  16  33
HETATM   33  C   UNL     1      -9.835  11.795  66.006  1.00  0.00    -0.232 C  
BRANCH  33  34
HETATM   34  C   UNL     1     -10.781  11.990  64.851  1.00  0.00    -0.346 C  
HETATM   35  C   UNL     1     -10.484  11.976  63.545  1.00  0.00    -0.505 C  
ENDBRANCH  33  34
ENDBRANCH  16  33
TORSDOF 9
ENDMDL
MODEL      102
REMARK 921   NORMALIZED FREE ENERGY PREDICTED BY IDOCK:   -4.58 KCAL/MOL
REMARK 922        TOTAL FREE ENERGY PREDICTED BY IDOCK:   -7.70 KCAL/MOL
REMARK 923 INTER-LIGAND FREE ENERGY PREDICTED BY IDOCK:   -5.42 KCAL/MOL
REMARK 924 INTRA-LIGAND FREE ENERGY PREDICTED BY IDOCK:   -2.28 KCAL/MOL
REMARK 927      BINDING AFFINITY PREDICTED BY RF-SCORE:    0.00 PKD
ROOT
HETATM    1  C   UNL     1      -9.518   4.984  67.548  1.00  0.00    -0.135 C  
HETATM    2  C   UNL     1      -9.330   3.635  68.241  1.00  0.00    -0.228 C  
HETATM    3  C   UNL     1      -9.209   3.947  69.685  1.00  0.00    -0.221 A  
HETATM    4  C   UNL     1      -8.419   3.499  70.705  1.00  0.00    -0.069 A  
HETATM    5  N   UNL     1      -8.916   4.050  71.865  1.00  0.00    -0.115 NA 
HETATM    6  H   UNL     1      -8.543   3.881  72.798  1.00  0.00     0.000 HD 
HETATM    7  C   UNL     1      -9.989   4.865  71.581  1.00  0.00    -0.190 A  
HETATM    8  C   UNL     1     -10.967   5.473  72.357  1.00  0.00    -0.310 A  
HETATM    9  C   UNL     1     -11.929   6.234  71.665  1.00  0.00    -0.272 A  
HETATM   10  C   UNL     1     -11.833   6.496  70.281  1.00  0.00    -0.361 A  
HETATM   11  C   UNL     1     -10.819   5.910  69.520  1.00  0.00    -0.442 A  
HETATM   12  C   UNL     1     -10.663   5.993  68.005  1.00  0.00    -0.359 C  
HETATM   13  C   UNL     1     -10.001   4.999  70.209  1.00  0.00    -0.325 A  
HETATM   14  C   UNL     1     -10.327   7.368  67.306  1.00  0.00    -0.356 C  
HETATM   15  C   UNL     1      -8.817   7.410  66.842  1.00  0.00    -0.140 C  
HETATM   16  N   UNL     1      -9.405   4.932  66.092  1.00  0.00    -0.144 NA 
HETATM   17  C   UNL     1      -8.700   6.209  65.766  1.00  0.00    -0.145 C  
ENDROOT
BRANCH  15  18
HETATM   18  C   UNL     1      -7.978   7.673  68.236  1.00  0.00    -0.123 C  
HETATM   19  N   UNL     1      -6.776   7.067  68.636  1.00  0.00    -0.061 N  
HETATM   20  O   UNL     1      -8.408   8.578  68.951  1.00  0.00    -0.116 OA 
BRANCH  19  21
HETATM   21  C   UNL     1      -6.083   7.631  69.854  1.00  0.00    -0.027 C  
BRANCH  21  22
HETATM   22  C   UNL     1      -6.106   6.878  71.207  1.00  0.00    -0.037 C  
HETATM   23  C   UNL     1      -6.267   7.574  72.590  1.00  0.00    -0.054 C  
BRANCH  23  24
HETATM   24  N   UNL     1      -7.310   8.572  72.911  1.00  0.00    -0.316 NA 
HETATM   25  C   UNL     1      -7.424   8.692  74.387  1.00  0.00    -0.079 C  
HETATM   26  C   UNL     1      -8.654   8.217  72.421  1.00  0.00    -0.206 C  
ENDBRANCH  23  24
ENDBRANCH  21  22
ENDBRANCH  19  21
BRANCH  19  27
HETATM   27  C   UNL     1      -6.004   6.328  67.748  1.00  0.00    -0.017 C  
HETATM   28  O   UNL     1      -5.321   6.819  66.856  1.00  0.00    -0.015 OA 
BRANCH  27  29
HETATM   29  N   UNL     1      -6.003   4.967  67.978  1.00  0.00    -0.021 N  
HETATM   30  H   UNL     1      -6.517   4.582  68.771  1.00  0.00     0.000 HD 
BRANCH  29  31
HETATM   31  C   UNL     1      -5.274   4.089  67.095  1.00  0.00    -0.012 C  
HETATM   32  C   UNL     1      -6.205   3.365  66.150  1.00  0.00    -0.028 C  
ENDBRANCH  29  31
ENDBRANCH  27  29
ENDBRANCH  19  27
ENDBRANCH  15  18
BRANCH  16  33
HETATM   33  C   UNL     1     -10.728   4.680  65.479  1.00  0.00    -0.134 C  
BRANCH  33  34
HETATM   34  C   UNL     1     -10.778   3.765  64.284  1.00  0.00    -0.216 C  
HETATM   35  C   UNL     1      -9.909   2.798  63.962  1.00  0.00    -0.152 C  
ENDBRANCH  33  34
ENDBRANCH  16  33
TORSDOF 9
ENDMDL
MODEL      103
REMARK 921   NORMALIZED FREE ENERGY PREDICTED BY IDOCK:   -4.58 KCAL/MOL
REMARK 922        TOTAL FREE ENERGY PREDICTED BY IDOCK:   -7.70 KCAL/MOL
REMARK 923 INTER-LIGAND FREE ENERGY PREDICTED BY IDOCK:   -6.32 KCAL/MOL
REMARK 924 INTRA-LIGAND FREE ENERGY PREDICTED BY IDOCK:   -1.38 KCAL/MOL
REMARK 927      BINDING AFFINITY PREDICTED BY RF-SCORE:    0.00 PKD
ROOT
HETATM    1  C   UNL     1      -8.136   6.204  68.270  1.00  0.00    -0.111 C  
HETATM    2  C   UNL     1      -7.152   6.563  69.384  1.00  0.00    -0.077 C  
HETATM    3  C   UNL     1      -7.898   7.466  70.291  1.00  0.00    -0.095 A  
HETATM    4  C   UNL     1      -7.598   8.615  70.968  1.00  0.00    -0.100 A  
HETATM    5  N   UNL     1      -8.666   8.878  71.797  1.00  0.00    -0.356 NA 
HETATM    6  H   UNL     1      -8.724   9.664  72.444  1.00  0.00     0.000 HD 
HETATM    7  C   UNL     1      -9.646   7.925  71.626  1.00  0.00    -0.163 A  
HETATM    8  C   UNL     1     -10.794   7.588  72.330  1.00  0.00    -0.323 A  
HETATM    9  C   UNL     1     -11.542   6.508  71.825  1.00  0.00    -0.359 A  
HETATM   10  C   UNL     1     -11.238   5.889  70.593  1.00  0.00    -0.284 A  
HETATM   11  C   UNL     1     -10.102   6.266  69.874  1.00  0.00    -0.216 A  
HETATM   12  C   UNL     1      -9.575   5.607  68.603  1.00  0.00    -0.163 C  
HETATM   13  C   UNL     1      -9.274   7.206  70.509  1.00  0.00    -0.158 A  
HETATM   14  C   UNL     1     -10.395   5.688  67.256  1.00  0.00    -0.295 C  
HETATM   15  C   UNL     1      -9.734   6.716  66.255  1.00  0.00    -0.057 C  
HETATM   16  N   UNL     1      -7.529   5.522  67.129  1.00  0.00    -0.083 NA 
HETATM   17  C   UNL     1      -8.269   6.099  65.964  1.00  0.00    -0.127 C  
ENDROOT
BRANCH  15  18
HETATM   18  C   UNL     1     -10.167   8.189  66.853  1.00  0.00    -0.316 C  
HETATM   19  N   UNL     1      -9.796   9.452  66.362  1.00  0.00    -0.247 N  
HETATM   20  O   UNL     1     -10.989   8.170  67.768  1.00  0.00    -0.057 OA 
BRANCH  19  21
HETATM   21  C   UNL     1     -10.495  10.658  66.943  1.00  0.00    -0.249 C  
BRANCH  21  22
HETATM   22  C   UNL     1      -9.789  11.574  67.972  1.00  0.00    -0.192 C  
HETATM   23  C   UNL     1      -8.306  11.407  68.417  1.00  0.00    -0.153 C  
BRANCH  23  24
HETATM   24  N   UNL     1      -7.165  11.250  67.490  1.00  0.00    -0.095 NA 
HETATM   25  C   UNL     1      -6.462   9.981  67.802  1.00  0.00    -0.066 C  
HETATM   26  C   UNL     1      -6.154  12.318  67.592  1.00  0.00    -0.120 C  
ENDBRANCH  23  24
ENDBRANCH  21  22
ENDBRANCH  19  21
BRANCH  19  27
HETATM   27  C   UNL     1      -9.196   9.600  65.118  1.00  0.00    -0.246 C  
HETATM   28  O   UNL     1      -8.019   9.347  64.888  1.00  0.00    -0.111 OA 
BRANCH  27  29
HETATM   29  N   UNL     1     -10.048  10.005  64.110  1.00  0.00    -0.447 N  
HETATM   30  H   UNL     1     -10.952   9.548  63.991  1.00  0.00     0.000 HD 
BRANCH  29  31
HETATM   31  C   UNL     1      -9.657  11.075  63.225  1.00  0.00    -0.345 C  
HETATM   32  C   UNL     1     -10.306  12.380  63.623  1.00  0.00    -0.434 C  
ENDBRANCH  29  31
ENDBRANCH  27  29
ENDBRANCH  19  27
ENDBRANCH  15  18
BRANCH  16  33
HETATM   33  C   UNL     1      -7.556   4.056  67.327  1.00  0.00    -0.073 C  
BRANCH  33  34
HETATM   34  C   UNL     1      -8.129   3.215  66.218  1.00  0.00    -0.089 C  
HETATM   35  C   UNL     1      -8.969   2.179  66.334  1.00  0.00    -0.109 C  
ENDBRANCH  33  34
ENDBRANCH  16  33
TORSDOF 9
ENDMDL
MODEL      104
REMARK 921   NORMALIZED FREE ENERGY PREDICTED BY IDOCK:   -4.57 KCAL/MOL
REMARK 922        TOTAL FREE ENERGY PREDICTED BY IDOCK:   -7.69 KCAL/MOL
REMARK 923 INTER-LIGAND FREE ENERGY PREDICTED BY IDOCK:   -5.89 KCAL/MOL
REMARK 924 INTRA-LIGAND FREE ENERGY PREDICTED BY IDOCK:   -1.80 KCAL/MOL
REMARK 927      BINDING AFFINITY PREDICTED BY RF-SCORE:    0.00 PKD
ROOT
HETATM    1  C   UNL     1     -10.843   6.524  72.085  1.00  0.00    -0.232 C  
HETATM    2  C   UNL     1     -10.654   5.699  73.358  1.00  0.00    -0.288 C  
HETATM    3  C   UNL     1      -9.361   4.997  73.183  1.00  0.00    -0.136 A  
HETATM    4  C   UNL     1      -8.906   3.735  73.446  1.00  0.00    -0.092 A  
HETATM    5  N   UNL     1      -7.547   3.749  73.226  1.00  0.00    -0.072 NA 
HETATM    6  H   UNL     1      -6.926   2.952  73.361  1.00  0.00     0.000 HD 
HETATM    7  C   UNL     1      -7.147   4.995  72.799  1.00  0.00    -0.083 A  
HETATM    8  C   UNL     1      -5.912   5.611  72.647  1.00  0.00    -0.035 A  
HETATM    9  C   UNL     1      -5.929   6.941  72.187  1.00  0.00    -0.038 A  
HETATM   10  C   UNL     1      -7.115   7.577  71.757  1.00  0.00    -0.063 A  
HETATM   11  C   UNL     1      -8.346   6.930  71.877  1.00  0.00    -0.107 A  
HETATM   12  C   UNL     1      -9.716   7.531  71.580  1.00  0.00    -0.184 C  
HETATM   13  C   UNL     1      -8.310   5.685  72.527  1.00  0.00    -0.114 A  
HETATM   14  C   UNL     1     -10.120   7.922  70.105  1.00  0.00    -0.194 C  
HETATM   15  C   UNL     1     -11.138   6.874  69.503  1.00  0.00    -0.270 C  
HETATM   16  N   UNL     1     -12.178   7.100  71.935  1.00  0.00    -0.321 NA 
HETATM   17  C   UNL     1     -12.431   6.978  70.467  1.00  0.00    -0.031 C  
ENDROOT
BRANCH  15  18
HETATM   18  C   UNL     1     -10.196   5.575  69.126  1.00  0.00    -0.239 C  
HETATM   19  N   UNL     1      -9.201   5.500  68.138  1.00  0.00    -0.108 N  
HETATM   20  O   UNL     1     -10.314   4.600  69.868  1.00  0.00    -0.195 OA 
BRANCH  19  21
HETATM   21  C   UNL     1      -8.321   4.273  68.126  1.00  0.00    -0.093 C  
BRANCH  21  22
HETATM   22  C   UNL     1      -8.536   3.143  67.089  1.00  0.00    -0.122 C  
HETATM   23  C   UNL     1      -9.292   3.327  65.741  1.00  0.00    -0.123 C  
BRANCH  23  24
HETATM   24  N   UNL     1      -9.036   4.420  64.778  1.00  0.00    -0.144 NA 
HETATM   25  C   UNL     1      -9.676   4.081  63.482  1.00  0.00    -0.143 C  
HETATM   26  C   UNL     1      -7.608   4.645  64.487  1.00  0.00    -0.073 C  
ENDBRANCH  23  24
ENDBRANCH  21  22
ENDBRANCH  19  21
BRANCH  19  27
HETATM   27  C   UNL     1      -8.716   6.638  67.507  1.00  0.00    -0.118 C  
HETATM   28  O   UNL     1      -7.676   7.208  67.822  1.00  0.00    -0.108 OA 
BRANCH  27  29
HETATM   29  N   UNL     1      -9.465   7.068  66.431  1.00  0.00    -0.304 N  
HETATM   30  H   UNL     1     -10.100   6.422  65.960  1.00  0.00     0.000 HD 
BRANCH  29  31
HETATM   31  C   UNL     1      -9.350   8.430  65.972  1.00  0.00    -0.177 C  
HETATM   32  C   UNL     1     -10.340   9.331  66.674  1.00  0.00    -0.292 C  
ENDBRANCH  29  31
ENDBRANCH  27  29
ENDBRANCH  19  27
ENDBRANCH  15  18
BRANCH  16  33
HETATM   33  C   UNL     1     -12.233   8.444  72.552  1.00  0.00    -0.316 C  
BRANCH  33  34
HETATM   34  C   UNL     1     -13.199   9.439  71.967  1.00  0.00    -0.529 C  
HETATM   35  C   UNL     1     -12.912  10.628  71.422  1.00  0.00    -0.545 C  
ENDBRANCH  33  34
ENDBRANCH  16  33
TORSDOF 9
ENDMDL
MODEL      105
REMARK 921   NORMALIZED FREE ENERGY PREDICTED BY IDOCK:   -4.57 KCAL/MOL
REMARK 922        TOTAL FREE ENERGY PREDICTED BY IDOCK:   -7.68 KCAL/MOL
REMARK 923 INTER-LIGAND FREE ENERGY PREDICTED BY IDOCK:   -6.09 KCAL/MOL
REMARK 924 INTRA-LIGAND FREE ENERGY PREDICTED BY IDOCK:   -1.59 KCAL/MOL
REMARK 927      BINDING AFFINITY PREDICTED BY RF-SCORE:    0.00 PKD
ROOT
HETATM    1  C   UNL     1      -8.721   8.267  69.377  1.00  0.00    -0.142 C  
HETATM    2  C   UNL     1      -9.861   7.273  69.591  1.00  0.00    -0.163 C  
HETATM    3  C   UNL     1     -10.163   6.724  68.248  1.00  0.00    -0.194 A  
HETATM    4  C   UNL     1     -11.308   6.420  67.567  1.00  0.00     0.021 A  
HETATM    5  N   UNL     1     -10.924   5.765  66.418  1.00  0.00    -0.740 NA 
HETATM    6  H   UNL     1     -11.563   5.395  65.715  1.00  0.00     0.000 HD 
HETATM    7  C   UNL     1      -9.551   5.681  66.355  1.00  0.00    -0.157 A  
HETATM    8  C   UNL     1      -8.665   4.963  65.563  1.00  0.00    -0.139 A  
HETATM    9  C   UNL     1      -7.296   5.147  65.833  1.00  0.00    -0.081 A  
HETATM   10  C   UNL     1      -6.829   6.112  66.751  1.00  0.00    -0.062 A  
HETATM   11  C   UNL     1      -7.732   6.857  67.512  1.00  0.00    -0.111 A  
HETATM   12  C   UNL     1      -7.381   7.836  68.628  1.00  0.00    -0.087 C  
HETATM   13  C   UNL     1      -9.082   6.503  67.359  1.00  0.00    -0.112 A  
HETATM   14  C   UNL     1      -6.618   9.181  68.308  1.00  0.00    -0.059 C  
HETATM   15  C   UNL     1      -7.599  10.416  68.377  1.00  0.00    -0.093 C  
HETATM   16  N   UNL     1      -8.435   9.113  70.534  1.00  0.00    -0.186 NA 
HETATM   17  C   UNL     1      -8.110  10.432  69.910  1.00  0.00     0.045 C  
ENDROOT
BRANCH  15  18
HETATM   18  C   UNL     1      -8.457  10.323  66.973  1.00  0.00    -0.129 C  
HETATM   19  N   UNL     1      -9.788  10.716  66.758  1.00  0.00    -0.192 N  
HETATM   20  O   UNL     1      -7.818   9.964  65.983  1.00  0.00    -0.106 OA 
BRANCH  19  21
HETATM   21  C   UNL     1     -10.287  10.737  65.332  1.00  0.00    -0.247 C  
BRANCH  21  22
HETATM   22  C   UNL     1      -9.898  11.884  64.365  1.00  0.00    -0.203 C  
HETATM   23  C   UNL     1     -10.879  12.542  63.352  1.00  0.00    -0.302 C  
BRANCH  23  24
HETATM   24  N   UNL     1     -12.232  13.032  63.692  1.00  0.00    -0.649 NA 
HETATM   25  C   UNL     1     -12.136  13.934  64.868  1.00  0.00    -0.414 C  
HETATM   26  C   UNL     1     -13.183  11.969  64.064  1.00  0.00     0.186 C  
ENDBRANCH  23  24
ENDBRANCH  21  22
ENDBRANCH  19  21
BRANCH  19  27
HETATM   27  C   UNL     1     -10.478  11.484  67.686  1.00  0.00    -0.189 C  
HETATM   28  O   UNL     1     -10.278  12.679  67.874  1.00  0.00    -0.209 OA 
BRANCH  27  29
HETATM   29  N   UNL     1     -11.477  10.814  68.363  1.00  0.00    -0.362 N  
HETATM   30  H   UNL     1     -12.079  10.157  67.866  1.00  0.00     0.000 HD 
BRANCH  29  31
HETATM   31  C   UNL     1     -11.670  11.045  69.774  1.00  0.00    -0.335 C  
HETATM   32  C   UNL     1     -12.702  10.102  70.347  1.00  0.00    -0.191 C  
ENDBRANCH  29  31
ENDBRANCH  27  29
ENDBRANCH  19  27
ENDBRANCH  15  18
BRANCH  16  33
HETATM   33  C   UNL     1      -7.423   8.475  71.404  1.00  0.00    -0.102 C  
BRANCH  33  34
HETATM   34  C   UNL     1      -7.920   7.629  72.545  1.00  0.00    -0.131 C  
HETATM   35  C   UNL     1      -9.113   7.698  73.150  1.00  0.00    -0.254 C  
ENDBRANCH  33  34
ENDBRANCH  16  33
TORSDOF 9
ENDMDL
MODEL      106
REMARK 921   NORMALIZED FREE ENERGY PREDICTED BY IDOCK:   -4.57 KCAL/MOL
REMARK 922        TOTAL FREE ENERGY PREDICTED BY IDOCK:   -7.68 KCAL/MOL
REMARK 923 INTER-LIGAND FREE ENERGY PREDICTED BY IDOCK:   -5.60 KCAL/MOL
REMARK 924 INTRA-LIGAND FREE ENERGY PREDICTED BY IDOCK:   -2.08 KCAL/MOL
REMARK 927      BINDING AFFINITY PREDICTED BY RF-SCORE:    0.00 PKD
ROOT
HETATM    1  C   UNL     1      -9.102   9.926  67.644  1.00  0.00    -0.131 C  
HETATM    2  C   UNL     1     -10.198   9.374  66.732  1.00  0.00    -0.320 C  
HETATM    3  C   UNL     1     -10.514   8.028  67.266  1.00  0.00    -0.384 A  
HETATM    4  C   UNL     1     -10.770   6.806  66.711  1.00  0.00    -0.242 A  
HETATM    5  N   UNL     1     -11.177   5.981  67.736  1.00  0.00    -0.363 NA 
HETATM    6  H   UNL     1     -11.458   5.008  67.625  1.00  0.00     0.000 HD 
HETATM    7  C   UNL     1     -11.151   6.662  68.933  1.00  0.00    -0.246 A  
HETATM    8  C   UNL     1     -11.649   6.399  70.201  1.00  0.00    -0.449 A  
HETATM    9  C   UNL     1     -11.421   7.385  71.179  1.00  0.00    -0.303 A  
HETATM   10  C   UNL     1     -10.607   8.514  70.939  1.00  0.00    -0.252 A  
HETATM   11  C   UNL     1     -10.078   8.745  69.668  1.00  0.00    -0.204 A  
HETATM   12  C   UNL     1      -9.295   9.977  69.225  1.00  0.00    -0.224 C  
HETATM   13  C   UNL     1     -10.494   7.847  68.672  1.00  0.00    -0.196 A  
HETATM   14  C   UNL     1      -7.864  10.278  69.822  1.00  0.00    -0.151 C  
HETATM   15  C   UNL     1      -6.734   9.946  68.769  1.00  0.00    -0.050 C  
HETATM   16  N   UNL     1      -8.462  11.141  67.146  1.00  0.00    -0.134 NA 
HETATM   17  C   UNL     1      -7.032  10.949  67.538  1.00  0.00    -0.084 C  
ENDROOT
BRANCH  15  18
HETATM   18  C   UNL     1      -6.632   8.301  68.799  1.00  0.00    -0.054 C  
HETATM   19  N   UNL     1      -6.240   7.489  69.876  1.00  0.00    -0.027 N  
HETATM   20  O   UNL     1      -7.048   7.725  67.794  1.00  0.00    -0.078 OA 
BRANCH  19  21
HETATM   21  C   UNL     1      -6.437   5.999  69.733  1.00  0.00    -0.042 C  
BRANCH  21  22
HETATM   22  C   UNL     1      -7.856   5.380  69.678  1.00  0.00    -0.078 C  
HETATM   23  C   UNL     1      -8.492   4.551  70.831  1.00  0.00    -0.089 C  
BRANCH  23  24
HETATM   24  N   UNL     1      -8.524   4.972  72.248  1.00  0.00    -0.123 NA 
HETATM   25  C   UNL     1      -7.473   4.235  72.994  1.00  0.00    -0.080 C  
HETATM   26  C   UNL     1      -9.797   4.682  72.935  1.00  0.00    -0.142 C  
ENDBRANCH  23  24
ENDBRANCH  21  22
ENDBRANCH  19  21
BRANCH  19  27
HETATM   27  C   UNL     1      -6.124   7.996  71.163  1.00  0.00    -0.034 C  
HETATM   28  O   UNL     1      -5.186   8.687  71.549  1.00  0.00    -0.032 OA 
BRANCH  27  29
HETATM   29  N   UNL     1      -7.192   7.719  71.992  1.00  0.00    -0.066 N  
HETATM   30  H   UNL     1      -7.979   7.170  71.646  1.00  0.00     0.000 HD 
BRANCH  29  31
HETATM   31  C   UNL     1      -7.194   8.207  73.350  1.00  0.00    -0.133 C  
HETATM   32  C   UNL     1      -8.545   8.011  74.000  1.00  0.00    -0.296 C  
ENDBRANCH  29  31
ENDBRANCH  27  29
ENDBRANCH  19  27
ENDBRANCH  15  18
BRANCH  16  33
HETATM   33  C   UNL     1      -9.174  12.341  67.641  1.00  0.00    -0.183 C  
BRANCH  33  34
HETATM   34  C   UNL     1      -8.349  13.560  67.953  1.00  0.00    -0.175 C  
HETATM   35  C   UNL     1      -8.282  14.699  67.250  1.00  0.00    -0.235 C  
ENDBRANCH  33  34
ENDBRANCH  16  33
TORSDOF 9
ENDMDL
MODEL      107
REMARK 921   NORMALIZED FREE ENERGY PREDICTED BY IDOCK:   -4.54 KCAL/MOL
REMARK 922        TOTAL FREE ENERGY PREDICTED BY IDOCK:   -7.64 KCAL/MOL
REMARK 923 INTER-LIGAND FREE ENERGY PREDICTED BY IDOCK:   -6.69 KCAL/MOL
REMARK 924 INTRA-LIGAND FREE ENERGY PREDICTED BY IDOCK:   -0.95 KCAL/MOL
REMARK 927      BINDING AFFINITY PREDICTED BY RF-SCORE:    0.00 PKD
ROOT
HETATM    1  C   UNL     1      -9.337  17.235  66.542  1.00  0.00    -0.264 C  
HETATM    2  C   UNL     1     -10.605  17.015  65.718  1.00  0.00    -0.218 C  
HETATM    3  C   UNL     1     -11.176  15.739  66.206  1.00  0.00     0.033 A  
HETATM    4  C   UNL     1     -11.755  14.652  65.613  1.00  0.00    -0.304 A  
HETATM    5  N   UNL     1     -12.252  13.864  66.628  1.00  0.00    -0.440 NA 
HETATM    6  H   UNL     1     -12.759  12.990  66.493  1.00  0.00     0.000 HD 
HETATM    7  C   UNL     1     -11.965  14.427  67.851  1.00  0.00    -0.313 A  
HETATM    8  C   UNL     1     -12.399  14.185  69.147  1.00  0.00    -0.173 A  
HETATM    9  C   UNL     1     -11.865  15.016  70.150  1.00  0.00    -0.357 A  
HETATM   10  C   UNL     1     -10.836  15.948  69.891  1.00  0.00    -0.333 A  
HETATM   11  C   UNL     1     -10.380  16.152  68.587  1.00  0.00    -0.252 A  
HETATM   12  C   UNL     1      -9.375  17.206  68.135  1.00  0.00    -0.264 C  
HETATM   13  C   UNL     1     -11.077  15.449  67.590  1.00  0.00    -0.316 A  
HETATM   14  C   UNL     1      -7.867  17.130  68.598  1.00  0.00    -0.265 C  
HETATM   15  C   UNL     1      -6.940  16.634  67.419  1.00  0.00    -0.190 C  
HETATM   16  N   UNL     1      -8.478  18.310  66.050  1.00  0.00    -0.511 NA 
HETATM   17  C   UNL     1      -7.103  17.771  66.282  1.00  0.00    -0.294 C  
ENDROOT
BRANCH  15  18
HETATM   18  C   UNL     1      -7.219  15.012  67.347  1.00  0.00    -0.194 C  
HETATM   19  N   UNL     1      -6.943  14.054  68.336  1.00  0.00    -0.090 N  
HETATM   20  O   UNL     1      -7.833  14.622  66.354  1.00  0.00     0.515 OA 
BRANCH  19  21
HETATM   21  C   UNL     1      -7.490  12.661  68.129  1.00  0.00    -0.122 C  
BRANCH  21  22
HETATM   22  C   UNL     1      -8.992  12.351  68.343  1.00  0.00    -0.133 C  
HETATM   23  C   UNL     1      -9.854  11.494  67.370  1.00  0.00    -0.186 C  
BRANCH  23  24
HETATM   24  N   UNL     1      -9.460  10.168  66.846  1.00  0.00    -0.165 NA 
HETATM   25  C   UNL     1      -9.168  10.290  65.396  1.00  0.00    -0.193 C  
HETATM   26  C   UNL     1     -10.505   9.135  66.971  1.00  0.00    -0.240 C  
ENDBRANCH  23  24
ENDBRANCH  21  22
ENDBRANCH  19  21
BRANCH  19  27
HETATM   27  C   UNL     1      -6.615  14.423  69.634  1.00  0.00    -0.147 C  
HETATM   28  O   UNL     1      -7.384  14.986  70.405  1.00  0.00     0.131 OA 
BRANCH  27  29
HETATM   29  N   UNL     1      -5.348  14.050  70.038  1.00  0.00    -0.095 N  
HETATM   30  H   UNL     1      -4.535  14.322  69.485  1.00  0.00     0.000 HD 
BRANCH  29  31
HETATM   31  C   UNL     1      -5.177  13.276  71.243  1.00  0.00    -0.184 C  
HETATM   32  C   UNL     1      -5.348  11.798  70.974  1.00  0.00    -0.101 C  
ENDBRANCH  29  31
ENDBRANCH  27  29
ENDBRANCH  19  27
ENDBRANCH  15  18
BRANCH  16  33
HETATM   33  C   UNL     1      -8.848  19.597  66.679  1.00  0.00    -0.353 C  
BRANCH  33  34
HETATM   34  C   UNL     1      -7.779  20.328  67.447  1.00  0.00    -0.352 C  
HETATM   35  C   UNL     1      -6.806  21.102  66.951  1.00  0.00    -0.317 C  
ENDBRANCH  33  34
ENDBRANCH  16  33
TORSDOF 9
ENDMDL
MODEL      108
REMARK 921   NORMALIZED FREE ENERGY PREDICTED BY IDOCK:   -4.54 KCAL/MOL
REMARK 922        TOTAL FREE ENERGY PREDICTED BY IDOCK:   -7.64 KCAL/MOL
REMARK 923 INTER-LIGAND FREE ENERGY PREDICTED BY IDOCK:   -5.69 KCAL/MOL
REMARK 924 INTRA-LIGAND FREE ENERGY PREDICTED BY IDOCK:   -1.95 KCAL/MOL
REMARK 927      BINDING AFFINITY PREDICTED BY RF-SCORE:    0.00 PKD
ROOT
HETATM    1  C   UNL     1      -8.734   6.511  70.752  1.00  0.00    -0.143 C  
HETATM    2  C   UNL     1      -8.365   7.824  71.443  1.00  0.00    -0.118 C  
HETATM    3  C   UNL     1      -9.451   8.770  71.096  1.00  0.00    -0.306 A  
HETATM    4  C   UNL     1      -9.504  10.088  70.736  1.00  0.00     0.560 A  
HETATM    5  N   UNL     1     -10.834  10.443  70.724  1.00  0.00    -0.349 NA 
HETATM    6  H   UNL     1     -11.187  11.375  70.511  1.00  0.00     0.000 HD 
HETATM    7  C   UNL     1     -11.619   9.357  71.041  1.00  0.00    -0.330 A  
HETATM    8  C   UNL     1     -12.957   9.202  71.377  1.00  0.00    -0.366 A  
HETATM    9  C   UNL     1     -13.383   7.890  71.657  1.00  0.00    -0.374 A  
HETATM   10  C   UNL     1     -12.547   6.768  71.468  1.00  0.00    -0.371 A  
HETATM   11  C   UNL     1     -11.214   6.936  71.090  1.00  0.00    -0.314 A  
HETATM   12  C   UNL     1     -10.161   5.838  70.973  1.00  0.00    -0.275 C  
HETATM   13  C   UNL     1     -10.773   8.268  71.016  1.00  0.00    -0.256 A  
HETATM   14  C   UNL     1     -10.284   4.721  69.863  1.00  0.00    -0.238 C  
HETATM   15  C   UNL     1      -9.254   4.975  68.692  1.00  0.00    -0.158 C  
HETATM   16  N   UNL     1      -7.668   5.512  70.753  1.00  0.00    -0.089 NA 
HETATM   17  C   UNL     1      -7.808   4.875  69.408  1.00  0.00    -0.071 C  
ENDROOT
BRANCH  15  18
HETATM   18  C   UNL     1      -9.928   6.205  67.828  1.00  0.00    -0.127 C  
HETATM   19  N   UNL     1      -9.277   7.328  67.291  1.00  0.00    -0.128 N  
HETATM   20  O   UNL     1     -11.115   6.062  67.537  1.00  0.00    -0.302 OA 
BRANCH  19  21
HETATM   21  C   UNL     1     -10.065   8.207  66.349  1.00  0.00    -0.126 C  
BRANCH  21  22
HETATM   22  C   UNL     1      -9.389   9.375  65.590  1.00  0.00    -0.309 C  
HETATM   23  C   UNL     1      -9.783  10.872  65.760  1.00  0.00    -0.224 C  
BRANCH  23  24
HETATM   24  N   UNL     1      -9.936  11.556  67.061  1.00  0.00    -0.198 NA 
HETATM   25  C   UNL     1     -11.380  11.780  67.322  1.00  0.00    -0.315 C  
HETATM   26  C   UNL     1      -9.295  12.883  67.124  1.00  0.00    -0.229 C  
ENDBRANCH  23  24
ENDBRANCH  21  22
ENDBRANCH  19  21
BRANCH  19  27
HETATM   27  C   UNL     1      -7.892   7.401  67.222  1.00  0.00    -0.114 C  
HETATM   28  O   UNL     1      -7.202   8.109  67.949  1.00  0.00    -0.087 OA 
BRANCH  27  29
HETATM   29  N   UNL     1      -7.314   6.555  66.297  1.00  0.00    -0.072 N  
HETATM   30  H   UNL     1      -7.785   5.689  66.032  1.00  0.00     0.000 HD 
BRANCH  29  31
HETATM   31  C   UNL     1      -6.043   6.895  65.705  1.00  0.00    -0.036 C  
HETATM   32  C   UNL     1      -6.226   7.701  64.439  1.00  0.00    -0.048 C  
ENDBRANCH  29  31
ENDBRANCH  27  29
ENDBRANCH  19  27
ENDBRANCH  15  18
BRANCH  16  33
HETATM   33  C   UNL     1      -7.764   4.653  71.954  1.00  0.00    -0.097 C  
BRANCH  33  34
HETATM   34  C   UNL     1      -6.595   4.650  72.903  1.00  0.00    -0.051 C  
HETATM   35  C   UNL     1      -5.733   5.649  73.135  1.00  0.00    -0.031 C  
ENDBRANCH  33  34
ENDBRANCH  16  33
TORSDOF 9
ENDMDL
MODEL      109
REMARK 921   NORMALIZED FREE ENERGY PREDICTED BY IDOCK:   -4.53 KCAL/MOL
REMARK 922        TOTAL FREE ENERGY PREDICTED BY IDOCK:   -7.63 KCAL/MOL
REMARK 923 INTER-LIGAND FREE ENERGY PREDICTED BY IDOCK:   -5.78 KCAL/MOL
REMARK 924 INTRA-LIGAND FREE ENERGY PREDICTED BY IDOCK:   -1.85 KCAL/MOL
REMARK 927      BINDING AFFINITY PREDICTED BY RF-SCORE:    0.00 PKD
ROOT
HETATM    1  C   UNL     1      -8.739   7.956  67.026  1.00  0.00    -0.129 C  
HETATM    2  C   UNL     1     -10.206   8.349  67.200  1.00  0.00    -0.362 C  
HETATM    3  C   UNL     1     -10.356   9.638  66.485  1.00  0.00    -0.264 A  
HETATM    4  C   UNL     1     -11.007  10.812  66.741  1.00  0.00    -0.148 A  
HETATM    5  N   UNL     1     -10.917  11.574  65.597  1.00  0.00    -0.270 NA 
HETATM    6  H   UNL     1     -11.328  12.499  65.477  1.00  0.00     0.000 HD 
HETATM    7  C   UNL     1     -10.190  10.905  64.638  1.00  0.00    -0.345 A  
HETATM    8  C   UNL     1      -9.981  11.099  63.279  1.00  0.00    -0.419 A  
HETATM    9  C   UNL     1      -9.162  10.156  62.631  1.00  0.00    -0.321 A  
HETATM   10  C   UNL     1      -8.464   9.151  63.336  1.00  0.00    -0.195 A  
HETATM   11  C   UNL     1      -8.651   8.993  64.711  1.00  0.00    -0.201 A  
HETATM   12  C   UNL     1      -8.073   7.881  65.580  1.00  0.00    -0.130 C  
HETATM   13  C   UNL     1      -9.629   9.823  65.283  1.00  0.00    -0.368 A  
HETATM   14  C   UNL     1      -6.517   7.783  65.831  1.00  0.00    -0.042 C  
HETATM   15  C   UNL     1      -6.149   8.267  67.289  1.00  0.00    -0.055 C  
HETATM   16  N   UNL     1      -8.312   6.840  67.868  1.00  0.00    -0.120 NA 
HETATM   17  C   UNL     1      -6.923   7.230  68.258  1.00  0.00    -0.076 C  
ENDROOT
BRANCH  15  18
HETATM   18  C   UNL     1      -6.244   9.910  67.199  1.00  0.00    -0.063 C  
HETATM   19  N   UNL     1      -6.873  10.779  68.106  1.00  0.00    -0.067 N  
HETATM   20  O   UNL     1      -5.600  10.430  66.289  1.00  0.00    -0.052 OA 
BRANCH  19  21
HETATM   21  C   UNL     1      -6.638  12.260  67.928  1.00  0.00    -0.087 C  
BRANCH  21  22
HETATM   22  C   UNL     1      -7.193  13.287  68.947  1.00  0.00    -0.054 C  
HETATM   23  C   UNL     1      -8.262  14.366  68.606  1.00  0.00    -0.148 C  
BRANCH  23  24
HETATM   24  N   UNL     1      -9.533  14.093  67.901  1.00  0.00    -0.205 NA 
HETATM   25  C   UNL     1      -9.406  14.539  66.490  1.00  0.00    -0.284 C  
HETATM   26  C   UNL     1     -10.696  14.810  68.456  1.00  0.00    -0.247 C  
ENDBRANCH  23  24
ENDBRANCH  21  22
ENDBRANCH  19  21
BRANCH  19  27
HETATM   27  C   UNL     1      -7.292  10.346  69.357  1.00  0.00    -0.123 C  
HETATM   28  O   UNL     1      -8.461  10.125  69.653  1.00  0.00    -0.172 OA 
BRANCH  27  29
HETATM   29  N   UNL     1      -6.273  10.111  70.258  1.00  0.00    -0.089 N  
HETATM   30  H   UNL     1      -5.388  10.611  70.171  1.00  0.00     0.000 HD 
BRANCH  29  31
HETATM   31  C   UNL     1      -6.461   9.156  71.323  1.00  0.00    -0.082 C  
HETATM   32  C   UNL     1      -5.196   8.370  71.585  1.00  0.00    -0.034 C  
ENDBRANCH  29  31
ENDBRANCH  27  29
ENDBRANCH  19  27
ENDBRANCH  15  18
BRANCH  16  33
HETATM   33  C   UNL     1      -8.514   5.554  67.163  1.00  0.00    -0.110 C  
BRANCH  33  34
HETATM   34  C   UNL     1      -9.926   5.054  67.019  1.00  0.00    -0.231 C  
HETATM   35  C   UNL     1     -10.597   4.829  65.882  1.00  0.00    -0.290 C  
ENDBRANCH  33  34
ENDBRANCH  16  33
TORSDOF 9
ENDMDL
MODEL      110
REMARK 921   NORMALIZED FREE ENERGY PREDICTED BY IDOCK:   -4.53 KCAL/MOL
REMARK 922        TOTAL FREE ENERGY PREDICTED BY IDOCK:   -7.62 KCAL/MOL
REMARK 923 INTER-LIGAND FREE ENERGY PREDICTED BY IDOCK:   -5.93 KCAL/MOL
REMARK 924 INTRA-LIGAND FREE ENERGY PREDICTED BY IDOCK:   -1.69 KCAL/MOL
REMARK 927      BINDING AFFINITY PREDICTED BY RF-SCORE:    0.00 PKD
ROOT
HETATM    1  C   UNL     1      -8.934  11.995  67.129  1.00  0.00    -0.185 C  
HETATM    2  C   UNL     1      -7.418  12.110  66.971  1.00  0.00    -0.086 C  
HETATM    3  C   UNL     1      -6.998  10.866  66.285  1.00  0.00    -0.120 A  
HETATM    4  C   UNL     1      -5.954   9.995  66.421  1.00  0.00    -0.065 A  
HETATM    5  N   UNL     1      -6.021   9.125  65.356  1.00  0.00    -0.058 NA 
HETATM    6  H   UNL     1      -5.358   8.371  65.175  1.00  0.00     0.000 HD 
HETATM    7  C   UNL     1      -7.112   9.420  64.570  1.00  0.00    -0.101 A  
HETATM    8  C   UNL     1      -7.521   9.023  63.304  1.00  0.00    -0.099 A  
HETATM    9  C   UNL     1      -8.725   9.581  62.833  1.00  0.00    -0.233 A  
HETATM   10  C   UNL     1      -9.556  10.382  63.646  1.00  0.00    -0.364 A  
HETATM   11  C   UNL     1      -9.150  10.740  64.934  1.00  0.00    -0.221 A  
HETATM   12  C   UNL     1      -9.872  11.698  65.876  1.00  0.00    -0.262 C  
HETATM   13  C   UNL     1      -7.855  10.330  65.291  1.00  0.00    -0.145 A  
HETATM   14  C   UNL     1     -11.283  11.323  66.478  1.00  0.00    -0.222 C  
HETATM   15  C   UNL     1     -11.156  10.908  67.996  1.00  0.00    -0.351 C  
HETATM   16  N   UNL     1      -9.524  13.002  68.009  1.00  0.00    -0.211 NA 
HETATM   17  C   UNL     1     -10.590  12.235  68.724  1.00  0.00    -0.194 C  
ENDROOT
BRANCH  15  18
HETATM   18  C   UNL     1     -10.539   9.381  67.943  1.00  0.00    -0.237 C  
HETATM   19  N   UNL     1      -9.634   8.794  68.843  1.00  0.00    -0.156 N  
HETATM   20  O   UNL     1     -11.008   8.648  67.072  1.00  0.00    -0.085 OA 
BRANCH  19  21
HETATM   21  C   UNL     1      -9.384   7.310  68.711  1.00  0.00    -0.143 C  
BRANCH  21  22
HETATM   22  C   UNL     1      -8.122   6.654  69.324  1.00  0.00    -0.116 C  
HETATM   23  C   UNL     1      -8.081   5.984  70.729  1.00  0.00    -0.120 C  
BRANCH  23  24
HETATM   24  N   UNL     1      -9.065   4.992  71.214  1.00  0.00    -0.140 NA 
HETATM   25  C   UNL     1      -9.173   5.103  72.690  1.00  0.00    -0.134 C  
HETATM   26  C   UNL     1      -8.699   3.592  70.931  1.00  0.00    -0.074 C  
ENDBRANCH  23  24
ENDBRANCH  21  22
ENDBRANCH  19  21
BRANCH  19  27
HETATM   27  C   UNL     1      -9.339   9.383  70.065  1.00  0.00    -0.226 C  
HETATM   28  O   UNL     1     -10.018   9.246  71.077  1.00  0.00    -0.270 OA 
BRANCH  27  29
HETATM   29  N   UNL     1      -8.164  10.106  70.089  1.00  0.00    -0.332 N  
HETATM   30  H   UNL     1      -8.101  10.995  69.593  1.00  0.00     0.000 HD 
BRANCH  29  31
HETATM   31  C   UNL     1      -7.024   9.603  70.817  1.00  0.00    -0.079 C  
HETATM   32  C   UNL     1      -5.766   9.672  69.982  1.00  0.00    -0.041 C  
ENDBRANCH  29  31
ENDBRANCH  27  29
ENDBRANCH  19  27
ENDBRANCH  15  18
BRANCH  16  33
HETATM   33  C   UNL     1      -9.915  14.201  67.235  1.00  0.00    -0.249 C  
BRANCH  33  34
HETATM   34  C   UNL     1     -10.276  15.441  68.008  1.00  0.00    -0.235 C  
HETATM   35  C   UNL     1     -11.463  15.748  68.547  1.00  0.00    -0.381 C  
ENDBRANCH  33  34
ENDBRANCH  16  33
TORSDOF 9
ENDMDL
MODEL      111
REMARK 921   NORMALIZED FREE ENERGY PREDICTED BY IDOCK:   -4.53 KCAL/MOL
REMARK 922        TOTAL FREE ENERGY PREDICTED BY IDOCK:   -7.62 KCAL/MOL
REMARK 923 INTER-LIGAND FREE ENERGY PREDICTED BY IDOCK:   -6.68 KCAL/MOL
REMARK 924 INTRA-LIGAND FREE ENERGY PREDICTED BY IDOCK:   -0.94 KCAL/MOL
REMARK 927      BINDING AFFINITY PREDICTED BY RF-SCORE:    0.00 PKD
ROOT
HETATM    1  C   UNL     1     -11.303  13.668  69.543  1.00  0.00    -0.214 C  
HETATM    2  C   UNL     1     -10.782  15.054  69.924  1.00  0.00    -0.238 C  
HETATM    3  C   UNL     1      -9.943  15.486  68.782  1.00  0.00    -0.214 A  
HETATM    4  C   UNL     1      -8.740  16.123  68.656  1.00  0.00    -0.214 A  
HETATM    5  N   UNL     1      -8.579  16.407  67.318  1.00  0.00    -0.176 NA 
HETATM    6  H   UNL     1      -7.782  16.900  66.917  1.00  0.00     0.000 HD 
HETATM    7  C   UNL     1      -9.652  15.928  66.599  1.00  0.00    -0.246 A  
HETATM    8  C   UNL     1     -10.100  16.118  65.298  1.00  0.00    -0.105 A  
HETATM    9  C   UNL     1     -11.284  15.444  64.941  1.00  0.00    -0.410 A  
HETATM   10  C   UNL     1     -11.908  14.509  65.796  1.00  0.00    -0.327 A  
HETATM   11  C   UNL     1     -11.421  14.297  67.087  1.00  0.00    -0.377 A  
HETATM   12  C   UNL     1     -12.060  13.424  68.162  1.00  0.00    -0.267 C  
HETATM   13  C   UNL     1     -10.362  15.135  67.475  1.00  0.00    -0.242 A  
HETATM   14  C   UNL     1     -12.134  11.856  67.986  1.00  0.00    -0.010 C  
HETATM   15  C   UNL     1     -11.072  11.135  68.906  1.00  0.00    -0.293 C  
HETATM   16  N   UNL     1     -11.948  12.947  70.638  1.00  0.00    -0.231 NA 
HETATM   17  C   UNL     1     -11.513  11.535  70.409  1.00  0.00     0.028 C  
ENDROOT
BRANCH  15  18
HETATM   18  C   UNL     1      -9.641  11.368  68.123  1.00  0.00    -0.190 C  
HETATM   19  N   UNL     1      -9.170  10.690  66.986  1.00  0.00    -0.151 N  
HETATM   20  O   UNL     1      -8.963  12.313  68.524  1.00  0.00    -0.161 OA 
BRANCH  19  21
HETATM   21  C   UNL     1      -7.927  11.229  66.318  1.00  0.00    -0.086 C  
BRANCH  21  22
HETATM   22  C   UNL     1      -6.983  10.300  65.516  1.00  0.00    -0.138 C  
HETATM   23  C   UNL     1      -5.822   9.478  66.148  1.00  0.00    -0.057 C  
BRANCH  23  24
HETATM   24  N   UNL     1      -5.957   8.621  67.346  1.00  0.00    -0.047 NA 
HETATM   25  C   UNL     1      -7.051   7.643  67.118  1.00  0.00    -0.085 C  
HETATM   26  C   UNL     1      -6.309   9.354  68.575  1.00  0.00    -0.052 C  
ENDBRANCH  23  24
ENDBRANCH  21  22
ENDBRANCH  19  21
BRANCH  19  27
HETATM   27  C   UNL     1     -10.005   9.884  66.223  1.00  0.00    -0.256 C  
HETATM   28  O   UNL     1     -10.645   8.938  66.670  1.00  0.00    -0.216 OA 
BRANCH  27  29
HETATM   29  N   UNL     1     -10.123  10.262  64.900  1.00  0.00    -0.326 N  
HETATM   30  H   UNL     1      -9.577   9.786  64.183  1.00  0.00     0.000 HD 
BRANCH  29  31
HETATM   31  C   UNL     1     -11.020  11.331  64.535  1.00  0.00    -0.231 C  
HETATM   32  C   UNL     1     -10.444  12.172  63.418  1.00  0.00    -0.450 C  
ENDBRANCH  29  31
ENDBRANCH  27  29
ENDBRANCH  19  27
ENDBRANCH  15  18
BRANCH  16  33
HETATM   33  C   UNL     1     -13.397  13.243  70.670  1.00  0.00     0.450 C  
BRANCH  33  34
HETATM   34  C   UNL     1     -13.922  14.025  71.845  1.00  0.00    -0.537 C  
HETATM   35  C   UNL     1     -13.220  14.513  72.876  1.00  0.00    -0.612 C  
ENDBRANCH  33  34
ENDBRANCH  16  33
TORSDOF 9
ENDMDL
MODEL      112
REMARK 921   NORMALIZED FREE ENERGY PREDICTED BY IDOCK:   -4.51 KCAL/MOL
REMARK 922        TOTAL FREE ENERGY PREDICTED BY IDOCK:   -7.59 KCAL/MOL
REMARK 923 INTER-LIGAND FREE ENERGY PREDICTED BY IDOCK:   -6.01 KCAL/MOL
REMARK 924 INTRA-LIGAND FREE ENERGY PREDICTED BY IDOCK:   -1.59 KCAL/MOL
REMARK 927      BINDING AFFINITY PREDICTED BY RF-SCORE:    0.00 PKD
ROOT
HETATM    1  C   UNL     1      -9.015   9.746  69.611  1.00  0.00    -0.215 C  
HETATM    2  C   UNL     1     -10.411  10.228  70.004  1.00  0.00    -0.293 C  
HETATM    3  C   UNL     1     -11.005   9.118  70.785  1.00  0.00    -0.332 A  
HETATM    4  C   UNL     1     -12.238   8.531  70.842  1.00  0.00    -0.094 A  
HETATM    5  N   UNL     1     -12.214   7.660  71.909  1.00  0.00    -0.296 NA 
HETATM    6  H   UNL     1     -13.002   7.090  72.215  1.00  0.00     0.000 HD 
HETATM    7  C   UNL     1     -10.972   7.670  72.503  1.00  0.00    -0.324 A  
HETATM    8  C   UNL     1     -10.473   7.173  73.699  1.00  0.00    -0.412 A  
HETATM    9  C   UNL     1      -9.110   7.414  73.956  1.00  0.00    -0.289 A  
HETATM   10  C   UNL     1      -8.252   7.996  72.998  1.00  0.00    -0.234 A  
HETATM   11  C   UNL     1      -8.760   8.454  71.781  1.00  0.00    -0.241 A  
HETATM   12  C   UNL     1      -7.988   9.215  70.708  1.00  0.00    -0.192 C  
HETATM   13  C   UNL     1     -10.156   8.378  71.646  1.00  0.00    -0.308 A  
HETATM   14  C   UNL     1      -6.826   8.512  69.902  1.00  0.00    -0.042 C  
HETATM   15  C   UNL     1      -7.294   8.156  68.435  1.00  0.00    -0.094 C  
HETATM   16  N   UNL     1      -8.347  10.586  68.619  1.00  0.00    -0.124 NA 
HETATM   17  C   UNL     1      -7.629   9.589  67.767  1.00  0.00    -0.087 C  
ENDROOT
BRANCH  15  18
HETATM   18  C   UNL     1      -8.247   6.827  68.632  1.00  0.00    -0.120 C  
HETATM   19  N   UNL     1      -9.415   6.502  67.923  1.00  0.00    -0.121 N  
HETATM   20  O   UNL     1      -7.823   5.980  69.418  1.00  0.00    -0.096 OA 
BRANCH  19  21
HETATM   21  C   UNL     1      -9.995   5.122  68.130  1.00  0.00    -0.145 C  
BRANCH  21  22
HETATM   22  C   UNL     1      -9.224   3.855  67.685  1.00  0.00    -0.203 C  
HETATM   23  C   UNL     1      -9.405   3.162  66.302  1.00  0.00    -0.097 C  
BRANCH  23  24
HETATM   24  N   UNL     1      -9.379   3.866  65.002  1.00  0.00    -0.148 NA 
HETATM   25  C   UNL     1     -10.657   3.612  64.291  1.00  0.00    -0.199 C  
HETATM   26  C   UNL     1      -8.306   3.417  64.095  1.00  0.00    -0.090 C  
ENDBRANCH  23  24
ENDBRANCH  21  22
ENDBRANCH  19  21
BRANCH  19  27
HETATM   27  C   UNL     1      -9.773   7.176  66.763  1.00  0.00    -0.192 C  
HETATM   28  O   UNL     1     -10.494   8.167  66.738  1.00  0.00    -0.326 OA 
BRANCH  27  29
HETATM   29  N   UNL     1      -9.198   6.684  65.608  1.00  0.00    -0.376 N  
HETATM   30  H   UNL     1      -9.565   5.835  65.177  1.00  0.00     0.000 HD 
BRANCH  29  31
HETATM   31  C   UNL     1      -8.079   7.371  65.012  1.00  0.00    -0.122 C  
HETATM   32  C   UNL     1      -7.929   7.011  63.552  1.00  0.00    -0.070 C  
ENDBRANCH  29  31
ENDBRANCH  27  29
ENDBRANCH  19  27
ENDBRANCH  15  18
BRANCH  16  33
HETATM   33  C   UNL     1      -7.556  11.645  69.285  1.00  0.00     0.125 C  
BRANCH  33  34
HETATM   34  C   UNL     1      -7.459  12.979  68.595  1.00  0.00    -0.093 C  
HETATM   35  C   UNL     1      -6.710  13.292  67.530  1.00  0.00    -0.156 C  
ENDBRANCH  33  34
ENDBRANCH  16  33
TORSDOF 9
ENDMDL
MODEL      113
REMARK 921   NORMALIZED FREE ENERGY PREDICTED BY IDOCK:   -4.50 KCAL/MOL
REMARK 922        TOTAL FREE ENERGY PREDICTED BY IDOCK:   -7.58 KCAL/MOL
REMARK 923 INTER-LIGAND FREE ENERGY PREDICTED BY IDOCK:   -5.93 KCAL/MOL
REMARK 924 INTRA-LIGAND FREE ENERGY PREDICTED BY IDOCK:   -1.65 KCAL/MOL
REMARK 927      BINDING AFFINITY PREDICTED BY RF-SCORE:    0.00 PKD
ROOT
HETATM    1  C   UNL     1      -9.579   7.214  71.365  1.00  0.00    -0.161 C  
HETATM    2  C   UNL     1      -8.492   8.268  71.574  1.00  0.00    -0.179 C  
HETATM    3  C   UNL     1      -8.746   9.304  70.544  1.00  0.00    -0.276 A  
HETATM    4  C   UNL     1      -7.960  10.044  69.708  1.00  0.00    -0.180 A  
HETATM    5  N   UNL     1      -8.781  10.976  69.112  1.00  0.00    -0.368 NA 
HETATM    6  H   UNL     1      -8.473  11.687  68.449  1.00  0.00     0.000 HD 
HETATM    7  C   UNL     1     -10.078  10.809  69.541  1.00  0.00    -0.084 A  
HETATM    8  C   UNL     1     -11.232  11.576  69.440  1.00  0.00    -0.324 A  
HETATM    9  C   UNL     1     -12.387  11.048  70.046  1.00  0.00    -0.377 A  
HETATM   10  C   UNL     1     -12.425   9.749  70.599  1.00  0.00    -0.220 A  
HETATM   11  C   UNL     1     -11.266   8.973  70.657  1.00  0.00    -0.318 A  
HETATM   12  C   UNL     1     -11.121   7.614  71.336  1.00  0.00    -0.265 C  
HETATM   13  C   UNL     1     -10.092   9.612  70.226  1.00  0.00    -0.331 A  
HETATM   14  C   UNL     1     -11.882   6.349  70.774  1.00  0.00    -0.319 C  
HETATM   15  C   UNL     1     -10.887   5.384  70.017  1.00  0.00    -0.208 C  
HETATM   16  N   UNL     1      -9.365   5.975  72.111  1.00  0.00    -0.149 NA 
HETATM   17  C   UNL     1      -9.836   4.925  71.156  1.00  0.00    -0.192 C  
ENDROOT
BRANCH  15  18
HETATM   18  C   UNL     1     -10.627   6.132  68.572  1.00  0.00    -0.271 C  
HETATM   19  N   UNL     1      -9.425   6.200  67.850  1.00  0.00    -0.116 N  
HETATM   20  O   UNL     1     -11.630   6.588  68.023  1.00  0.00     0.016 OA 
BRANCH  19  21
HETATM   21  C   UNL     1      -9.485   6.752  66.445  1.00  0.00    -0.119 C  
BRANCH  21  22
HETATM   22  C   UNL     1      -8.197   7.165  65.691  1.00  0.00    -0.138 C  
HETATM   23  C   UNL     1      -7.234   6.161  64.993  1.00  0.00    -0.070 C  
BRANCH  23  24
HETATM   24  N   UNL     1      -7.664   5.095  64.063  1.00  0.00    -0.073 NA 
HETATM   25  C   UNL     1      -6.607   4.054  64.001  1.00  0.00    -0.042 C  
HETATM   26  C   UNL     1      -7.873   5.552  62.676  1.00  0.00    -0.088 C  
ENDBRANCH  23  24
ENDBRANCH  21  22
ENDBRANCH  19  21
BRANCH  19  27
HETATM   27  C   UNL     1      -8.335   5.403  68.175  1.00  0.00    -0.098 C  
HETATM   28  O   UNL     1      -8.160   4.268  67.742  1.00  0.00    -0.093 OA 
BRANCH  27  29
HETATM   29  N   UNL     1      -7.400   6.006  68.991  1.00  0.00    -0.082 N  
HETATM   30  H   UNL     1      -7.608   6.902  69.431  1.00  0.00     0.000 HD 
BRANCH  29  31
HETATM   31  C   UNL     1      -6.128   5.365  69.223  1.00  0.00    -0.025 C  
HETATM   32  C   UNL     1      -5.877   5.162  70.699  1.00  0.00    -0.017 C  
ENDBRANCH  29  31
ENDBRANCH  27  29
ENDBRANCH  19  27
ENDBRANCH  15  18
BRANCH  16  33
HETATM   33  C   UNL     1     -10.005   6.056  73.443  1.00  0.00    -0.182 C  
BRANCH  33  34
HETATM   34  C   UNL     1     -10.676   4.816  73.969  1.00  0.00    -0.358 C  
HETATM   35  C   UNL     1     -10.088   3.726  74.479  1.00  0.00    -0.224 C  
ENDBRANCH  33  34
ENDBRANCH  16  33
TORSDOF 9
ENDMDL
MODEL      114
REMARK 921   NORMALIZED FREE ENERGY PREDICTED BY IDOCK:   -4.48 KCAL/MOL
REMARK 922        TOTAL FREE ENERGY PREDICTED BY IDOCK:   -7.54 KCAL/MOL
REMARK 923 INTER-LIGAND FREE ENERGY PREDICTED BY IDOCK:   -6.13 KCAL/MOL
REMARK 924 INTRA-LIGAND FREE ENERGY PREDICTED BY IDOCK:   -1.41 KCAL/MOL
REMARK 927      BINDING AFFINITY PREDICTED BY RF-SCORE:    0.00 PKD
ROOT
HETATM    1  C   UNL     1      -7.621   9.028  66.604  1.00  0.00    -0.089 C  
HETATM    2  C   UNL     1      -6.214   9.597  66.418  1.00  0.00    -0.068 C  
HETATM    3  C   UNL     1      -5.934  10.367  67.652  1.00  0.00    -0.048 A  
HETATM    4  C   UNL     1      -5.344  11.570  67.925  1.00  0.00    -0.046 A  
HETATM    5  N   UNL     1      -5.218  11.649  69.294  1.00  0.00    -0.048 NA 
HETATM    6  H   UNL     1      -4.793  12.427  69.797  1.00  0.00     0.000 HD 
HETATM    7  C   UNL     1      -5.750  10.525  69.886  1.00  0.00    -0.053 A  
HETATM    8  C   UNL     1      -5.698   9.997  71.168  1.00  0.00    -0.063 A  
HETATM    9  C   UNL     1      -6.379   8.781  71.372  1.00  0.00    -0.068 A  
HETATM   10  C   UNL     1      -7.195   8.197  70.379  1.00  0.00    -0.048 A  
HETATM   11  C   UNL     1      -7.271   8.763  69.104  1.00  0.00    -0.067 A  
HETATM   12  C   UNL     1      -8.001   8.180  67.899  1.00  0.00    -0.127 C  
HETATM   13  C   UNL     1      -6.421   9.859  68.882  1.00  0.00    -0.045 A  
HETATM   14  C   UNL     1      -9.577   8.069  67.889  1.00  0.00    -0.178 C  
HETATM   15  C   UNL     1     -10.214   9.175  66.960  1.00  0.00    -0.333 C  
HETATM   16  N   UNL     1      -8.197   8.443  65.396  1.00  0.00    -0.135 NA 
HETATM   17  C   UNL     1      -9.636   8.838  65.488  1.00  0.00     0.063 C  
ENDROOT
BRANCH  15  18
HETATM   18  C   UNL     1     -10.107  10.557  67.852  1.00  0.00    -0.176 C  
HETATM   19  N   UNL     1     -10.326  11.874  67.416  1.00  0.00    -0.205 N  
HETATM   20  O   UNL     1      -9.914  10.397  69.057  1.00  0.00    -0.193 OA 
BRANCH  19  21
HETATM   21  C   UNL     1     -10.384  12.955  68.468  1.00  0.00    -0.229 C  
BRANCH  21  22
HETATM   22  C   UNL     1     -11.183  14.261  68.231  1.00  0.00    -0.298 C  
HETATM   23  C   UNL     1     -10.649  15.476  67.419  1.00  0.00    -0.292 C  
BRANCH  23  24
HETATM   24  N   UNL     1     -10.036  15.384  66.076  1.00  0.00    -0.300 NA 
HETATM   25  C   UNL     1      -8.760  16.142  66.076  1.00  0.00    -0.246 C  
HETATM   26  C   UNL     1     -10.859  15.960  64.997  1.00  0.00    -0.426 C  
ENDBRANCH  23  24
ENDBRANCH  21  22
ENDBRANCH  19  21
BRANCH  19  27
HETATM   27  C   UNL     1     -10.921  12.144  66.191  1.00  0.00    -0.298 C  
HETATM   28  O   UNL     1     -12.133  12.155  66.002  1.00  0.00    -0.612 OA 
BRANCH  27  29
HETATM   29  N   UNL     1     -10.040  12.471  65.180  1.00  0.00    -0.359 N  
HETATM   30  H   UNL     1      -9.098  12.792  65.407  1.00  0.00     0.000 HD 
BRANCH  29  31
HETATM   31  C   UNL     1     -10.452  12.358  63.802  1.00  0.00    -0.443 C  
HETATM   32  C   UNL     1      -9.640  11.313  63.071  1.00  0.00    -0.397 C  
ENDBRANCH  29  31
ENDBRANCH  27  29
ENDBRANCH  19  27
ENDBRANCH  15  18
BRANCH  16  33
HETATM   33  C   UNL     1      -7.864   7.004  65.308  1.00  0.00    -0.121 C  
BRANCH  33  34
HETATM   34  C   UNL     1      -7.997   6.340  63.964  1.00  0.00    -0.099 C  
HETATM   35  C   UNL     1      -8.538   5.144  63.697  1.00  0.00    -0.082 C  
ENDBRANCH  33  34
ENDBRANCH  16  33
TORSDOF 9
ENDMDL
MODEL      115
REMARK 921   NORMALIZED FREE ENERGY PREDICTED BY IDOCK:   -4.47 KCAL/MOL
REMARK 922        TOTAL FREE ENERGY PREDICTED BY IDOCK:   -7.54 KCAL/MOL
REMARK 923 INTER-LIGAND FREE ENERGY PREDICTED BY IDOCK:   -5.83 KCAL/MOL
REMARK 924 INTRA-LIGAND FREE ENERGY PREDICTED BY IDOCK:   -1.71 KCAL/MOL
REMARK 927      BINDING AFFINITY PREDICTED BY RF-SCORE:    0.00 PKD
ROOT
HETATM    1  C   UNL     1      -7.960  10.952  68.242  1.00  0.00    -0.121 C  
HETATM    2  C   UNL     1      -9.329  11.560  68.551  1.00  0.00    -0.171 C  
HETATM    3  C   UNL     1     -10.102  10.477  69.202  1.00  0.00    -0.240 A  
HETATM    4  C   UNL     1     -11.390  10.027  69.116  1.00  0.00    -0.094 A  
HETATM    5  N   UNL     1     -11.553   9.096  70.118  1.00  0.00    -0.458 NA 
HETATM    6  H   UNL     1     -12.420   8.599  70.318  1.00  0.00     0.000 HD 
HETATM    7  C   UNL     1     -10.374   8.934  70.812  1.00  0.00    -0.226 A  
HETATM    8  C   UNL     1     -10.039   8.313  72.008  1.00  0.00    -0.331 A  
HETATM    9  C   UNL     1      -8.687   8.388  72.392  1.00  0.00    -0.280 A  
HETATM   10  C   UNL     1      -7.690   8.928  71.551  1.00  0.00    -0.097 A  
HETATM   11  C   UNL     1      -8.037   9.512  70.331  1.00  0.00    -0.209 A  
HETATM   12  C   UNL     1      -7.097  10.246  69.380  1.00  0.00    -0.094 C  
HETATM   13  C   UNL     1      -9.416   9.598  70.076  1.00  0.00    -0.277 A  
HETATM   14  C   UNL     1      -5.948   9.470  68.626  1.00  0.00    -0.043 C  
HETATM   15  C   UNL     1      -6.316   9.256  67.105  1.00  0.00    -0.062 C  
HETATM   16  N   UNL     1      -7.122  11.772  67.370  1.00  0.00    -0.116 NA 
HETATM   17  C   UNL     1      -6.439  10.755  66.513  1.00  0.00    -0.119 C  
ENDROOT
BRANCH  15  18
HETATM   18  C   UNL     1      -7.417   8.030  67.129  1.00  0.00    -0.092 C  
HETATM   19  N   UNL     1      -8.570   7.902  66.337  1.00  0.00    -0.139 N  
HETATM   20  O   UNL     1      -7.133   7.076  67.853  1.00  0.00    -0.080 OA 
BRANCH  19  21
HETATM   21  C   UNL     1      -9.305   6.584  66.385  1.00  0.00    -0.143 C  
BRANCH  21  22
HETATM   22  C   UNL     1      -8.950   5.433  65.411  1.00  0.00    -0.130 C  
HETATM   23  C   UNL     1      -8.019   4.239  65.772  1.00  0.00    -0.095 C  
BRANCH  23  24
HETATM   24  N   UNL     1      -8.143   3.419  66.996  1.00  0.00    -0.083 NA 
HETATM   25  C   UNL     1      -9.477   3.658  67.603  1.00  0.00    -0.185 C  
HETATM   26  C   UNL     1      -7.152   3.739  68.039  1.00  0.00    -0.051 C  
ENDBRANCH  23  24
ENDBRANCH  21  22
ENDBRANCH  19  21
BRANCH  19  27
HETATM   27  C   UNL     1      -8.783   8.711  65.229  1.00  0.00    -0.165 C  
HETATM   28  O   UNL     1      -8.106   8.671  64.207  1.00  0.00    -0.144 OA 
BRANCH  27  29
HETATM   29  N   UNL     1      -9.877   9.547  65.325  1.00  0.00    -0.441 N  
HETATM   30  H   UNL     1     -10.738   9.214  65.760  1.00  0.00     0.000 HD 
BRANCH  29  31
HETATM   31  C   UNL     1      -9.802  10.892  64.809  1.00  0.00    -0.288 C  
HETATM   32  C   UNL     1     -10.760  11.092  63.658  1.00  0.00    -0.381 C  
ENDBRANCH  29  31
ENDBRANCH  27  29
ENDBRANCH  19  27
ENDBRANCH  15  18
BRANCH  16  33
HETATM   33  C   UNL     1      -6.288  12.695  68.171  1.00  0.00    -0.080 C  
BRANCH  33  34
HETATM   34  C   UNL     1      -6.442  14.171  67.916  1.00  0.00    -0.174 C  
HETATM   35  C   UNL     1      -7.482  14.794  67.346  1.00  0.00    -0.221 C  
ENDBRANCH  33  34
ENDBRANCH  16  33
TORSDOF 9
ENDMDL
MODEL      116
REMARK 921   NORMALIZED FREE ENERGY PREDICTED BY IDOCK:   -4.47 KCAL/MOL
REMARK 922        TOTAL FREE ENERGY PREDICTED BY IDOCK:   -7.53 KCAL/MOL
REMARK 923 INTER-LIGAND FREE ENERGY PREDICTED BY IDOCK:   -6.03 KCAL/MOL
REMARK 924 INTRA-LIGAND FREE ENERGY PREDICTED BY IDOCK:   -1.51 KCAL/MOL
REMARK 927      BINDING AFFINITY PREDICTED BY RF-SCORE:    0.00 PKD
ROOT
HETATM    1  C   UNL     1      -8.928   5.920  68.729  1.00  0.00    -0.117 C  
HETATM    2  C   UNL     1      -8.046   5.913  69.978  1.00  0.00    -0.109 C  
HETATM    3  C   UNL     1      -8.540   7.032  70.815  1.00  0.00    -0.143 A  
HETATM    4  C   UNL     1      -7.949   8.002  71.573  1.00  0.00    -0.105 A  
HETATM    5  N   UNL     1      -8.957   8.639  72.262  1.00  0.00    -0.358 NA 
HETATM    6  H   UNL     1      -8.821   9.399  72.927  1.00  0.00     0.000 HD 
HETATM    7  C   UNL     1     -10.178   8.099  71.922  1.00  0.00    -0.224 A  
HETATM    8  C   UNL     1     -11.457   8.203  72.452  1.00  0.00    -0.462 A  
HETATM    9  C   UNL     1     -12.462   7.458  71.807  1.00  0.00    -0.367 A  
HETATM   10  C   UNL     1     -12.230   6.760  70.602  1.00  0.00    -0.312 A  
HETATM   11  C   UNL     1     -10.946   6.698  70.057  1.00  0.00    -0.363 A  
HETATM   12  C   UNL     1     -10.517   5.882  68.842  1.00  0.00    -0.325 C  
HETATM   13  C   UNL     1      -9.934   7.284  70.836  1.00  0.00    -0.186 A  
HETATM   14  C   UNL     1     -11.057   6.239  67.402  1.00  0.00    -0.384 C  
HETATM   15  C   UNL     1      -9.940   6.952  66.542  1.00  0.00    -0.150 C  
HETATM   16  N   UNL     1      -8.450   5.055  67.652  1.00  0.00    -0.105 NA 
HETATM   17  C   UNL     1      -8.765   5.848  66.424  1.00  0.00    -0.131 C  
ENDROOT
BRANCH  15  18
HETATM   18  C   UNL     1      -9.898   8.488  67.137  1.00  0.00    -0.206 C  
HETATM   19  N   UNL     1      -8.785   9.340  67.223  1.00  0.00    -0.127 N  
HETATM   20  O   UNL     1     -10.989   8.969  67.442  1.00  0.00    -0.152 OA 
BRANCH  19  21
HETATM   21  C   UNL     1      -9.037  10.780  67.601  1.00  0.00    -0.147 C  
BRANCH  21  22
HETATM   22  C   UNL     1      -8.187  11.483  68.689  1.00  0.00    -0.124 C  
HETATM   23  C   UNL     1      -7.105  12.561  68.390  1.00  0.00    -0.107 C  
BRANCH  23  24
HETATM   24  N   UNL     1      -7.313  13.740  67.522  1.00  0.00    -0.174 NA 
HETATM   25  C   UNL     1      -6.329  14.789  67.890  1.00  0.00    -0.161 C  
HETATM   26  C   UNL     1      -8.645  14.359  67.654  1.00  0.00    -0.185 C  
ENDBRANCH  23  24
ENDBRANCH  21  22
ENDBRANCH  19  21
BRANCH  19  27
HETATM   27  C   UNL     1      -7.598   9.053  66.562  1.00  0.00    -0.089 C  
HETATM   28  O   UNL     1      -6.659   8.445  67.066  1.00  0.00    -0.056 OA 
BRANCH  27  29
HETATM   29  N   UNL     1      -7.560   9.453  65.241  1.00  0.00    -0.105 N  
HETATM   30  H   UNL     1      -8.284  10.071  64.874  1.00  0.00     0.000 HD 
BRANCH  29  31
HETATM   31  C   UNL     1      -6.496   8.995  64.381  1.00  0.00    -0.075 C  
HETATM   32  C   UNL     1      -5.440  10.061  64.201  1.00  0.00    -0.105 C  
ENDBRANCH  29  31
ENDBRANCH  27  29
ENDBRANCH  19  27
ENDBRANCH  15  18
BRANCH  16  33
HETATM   33  C   UNL     1      -9.025   3.698  67.784  1.00  0.00    -0.135 C  
BRANCH  33  34
HETATM   34  C   UNL     1      -8.994   2.809  66.570  1.00  0.00    -0.159 C  
HETATM   35  C   UNL     1      -8.108   1.845  66.290  1.00  0.00    -0.080 C  
ENDBRANCH  33  34
ENDBRANCH  16  33
TORSDOF 9
ENDMDL
MODEL      117
REMARK 921   NORMALIZED FREE ENERGY PREDICTED BY IDOCK:   -4.47 KCAL/MOL
REMARK 922        TOTAL FREE ENERGY PREDICTED BY IDOCK:   -7.52 KCAL/MOL
REMARK 923 INTER-LIGAND FREE ENERGY PREDICTED BY IDOCK:   -5.70 KCAL/MOL
REMARK 924 INTRA-LIGAND FREE ENERGY PREDICTED BY IDOCK:   -1.83 KCAL/MOL
REMARK 927      BINDING AFFINITY PREDICTED BY RF-SCORE:    0.00 PKD
ROOT
HETATM    1  C   UNL     1      -9.644  10.091  67.552  1.00  0.00    -0.153 C  
HETATM    2  C   UNL     1     -10.843   9.392  66.911  1.00  0.00    -0.055 C  
HETATM    3  C   UNL     1     -10.809   8.002  67.423  1.00  0.00    -0.146 A  
HETATM    4  C   UNL     1     -11.015   6.768  66.874  1.00  0.00    -0.300 A  
HETATM    5  N   UNL     1     -11.019   5.866  67.915  1.00  0.00    -0.275 NA 
HETATM    6  H   UNL     1     -11.172   4.863  67.818  1.00  0.00     0.000 HD 
HETATM    7  C   UNL     1     -10.787   6.516  69.107  1.00  0.00    -0.302 A  
HETATM    8  C   UNL     1     -10.898   6.148  70.441  1.00  0.00    -0.374 A  
HETATM    9  C   UNL     1     -10.575   7.136  71.390  1.00  0.00    -0.234 A  
HETATM   10  C   UNL     1     -10.026   8.384  71.025  1.00  0.00    -0.235 A  
HETATM   11  C   UNL     1      -9.882   8.726  69.679  1.00  0.00    -0.183 A  
HETATM   12  C   UNL     1      -9.430  10.076  69.131  1.00  0.00    -0.214 C  
HETATM   13  C   UNL     1     -10.402   7.795  68.764  1.00  0.00    -0.219 A  
HETATM   14  C   UNL     1      -7.955  10.587  69.368  1.00  0.00    -0.146 C  
HETATM   15  C   UNL     1      -7.097  10.462  68.048  1.00  0.00    -0.082 C  
HETATM   16  N   UNL     1      -9.341  11.404  66.987  1.00  0.00    -0.172 NA 
HETATM   17  C   UNL     1      -7.846  11.432  66.995  1.00  0.00    -0.158 C  
ENDROOT
BRANCH  15  18
HETATM   18  C   UNL     1      -6.749   8.854  67.949  1.00  0.00    -0.069 C  
HETATM   19  N   UNL     1      -6.728   8.055  66.794  1.00  0.00    -0.063 N  
HETATM   20  O   UNL     1      -6.364   8.328  68.993  1.00  0.00    -0.042 OA 
BRANCH  19  21
HETATM   21  C   UNL     1      -6.165   6.659  66.922  1.00  0.00    -0.040 C  
BRANCH  21  22
HETATM   22  C   UNL     1      -6.189   5.674  65.728  1.00  0.00    -0.034 C  
HETATM   23  C   UNL     1      -7.088   4.405  65.659  1.00  0.00    -0.067 C  
BRANCH  23  24
HETATM   24  N   UNL     1      -8.539   4.389  65.945  1.00  0.00    -0.113 NA 
HETATM   25  C   UNL     1      -8.833   3.276  66.883  1.00  0.00    -0.137 C  
HETATM   26  C   UNL     1      -9.385   4.163  64.759  1.00  0.00    -0.164 C  
ENDBRANCH  23  24
ENDBRANCH  21  22
ENDBRANCH  19  21
BRANCH  19  27
HETATM   27  C   UNL     1      -6.763   8.613  65.523  1.00  0.00    -0.063 C  
HETATM   28  O   UNL     1      -5.819   9.200  65.003  1.00  0.00    -0.057 OA 
BRANCH  27  29
HETATM   29  N   UNL     1      -7.941   8.408  64.833  1.00  0.00    -0.128 N  
HETATM   30  H   UNL     1      -8.365   7.481  64.812  1.00  0.00     0.000 HD 
BRANCH  29  31
HETATM   31  C   UNL     1      -8.570   9.507  64.143  1.00  0.00    -0.201 C  
HETATM   32  C   UNL     1      -8.475   9.339  62.643  1.00  0.00    -0.209 C  
ENDBRANCH  29  31
ENDBRANCH  27  29
ENDBRANCH  19  27
ENDBRANCH  15  18
BRANCH  16  33
HETATM   33  C   UNL     1     -10.071  12.463  67.717  1.00  0.00    -0.203 C  
BRANCH  33  34
HETATM   34  C   UNL     1     -11.453  12.814  67.235  1.00  0.00    -0.393 C  
HETATM   35  C   UNL     1     -11.981  14.038  67.097  1.00  0.00    -0.465 C  
ENDBRANCH  33  34
ENDBRANCH  16  33
TORSDOF 9
ENDMDL
MODEL      118
REMARK 921   NORMALIZED FREE ENERGY PREDICTED BY IDOCK:   -4.45 KCAL/MOL
REMARK 922        TOTAL FREE ENERGY PREDICTED BY IDOCK:   -7.50 KCAL/MOL
REMARK 923 INTER-LIGAND FREE ENERGY PREDICTED BY IDOCK:   -6.39 KCAL/MOL
REMARK 924 INTRA-LIGAND FREE ENERGY PREDICTED BY IDOCK:   -1.11 KCAL/MOL
REMARK 927      BINDING AFFINITY PREDICTED BY RF-SCORE:    0.00 PKD
ROOT
HETATM    1  C   UNL     1      -9.364   5.160  67.999  1.00  0.00    -0.121 C  
HETATM    2  C   UNL     1      -9.082   4.031  68.991  1.00  0.00    -0.193 C  
HETATM    3  C   UNL     1      -9.172   4.654  70.332  1.00  0.00    -0.187 A  
HETATM    4  C   UNL     1      -8.453   4.556  71.490  1.00  0.00    -0.110 A  
HETATM    5  N   UNL     1      -9.150   5.255  72.451  1.00  0.00    -0.134 NA 
HETATM    6  H   UNL     1      -8.869   5.344  73.427  1.00  0.00     0.000 HD 
HETATM    7  C   UNL     1     -10.281   5.816  71.902  1.00  0.00    -0.200 A  
HETATM    8  C   UNL     1     -11.415   6.414  72.436  1.00  0.00    -0.320 A  
HETATM    9  C   UNL     1     -12.382   6.856  71.513  1.00  0.00    -0.420 A  
HETATM   10  C   UNL     1     -12.161   6.834  70.119  1.00  0.00    -0.139 A  
HETATM   11  C   UNL     1     -10.997   6.266  69.597  1.00  0.00    -0.440 A  
HETATM   12  C   UNL     1     -10.678   6.054  68.121  1.00  0.00    -0.353 C  
HETATM   13  C   UNL     1     -10.151   5.657  70.539  1.00  0.00    -0.280 A  
HETATM   14  C   UNL     1     -10.447   7.287  67.162  1.00  0.00    -0.394 C  
HETATM   15  C   UNL     1      -8.912   7.463  66.831  1.00  0.00    -0.150 C  
HETATM   16  N   UNL     1      -9.077   4.823  66.607  1.00  0.00    -0.114 NA 
HETATM   17  C   UNL     1      -8.513   6.097  66.065  1.00  0.00    -0.141 C  
ENDROOT
BRANCH  15  18
HETATM   18  C   UNL     1      -8.284   8.138  68.196  1.00  0.00    -0.129 C  
HETATM   19  N   UNL     1      -8.574   9.402  68.735  1.00  0.00    -0.125 N  
HETATM   20  O   UNL     1      -7.559   7.403  68.866  1.00  0.00    -0.098 OA 
BRANCH  19  21
HETATM   21  C   UNL     1      -8.040   9.711  70.114  1.00  0.00    -0.189 C  
BRANCH  21  22
HETATM   22  C   UNL     1      -6.618  10.295  70.309  1.00  0.00    -0.142 C  
HETATM   23  C   UNL     1      -6.000  11.407  69.412  1.00  0.00    -0.066 C  
BRANCH  23  24
HETATM   24  N   UNL     1      -6.678  12.673  69.059  1.00  0.00    -0.098 NA 
HETATM   25  C   UNL     1      -6.332  13.032  67.660  1.00  0.00    -0.161 C  
HETATM   26  C   UNL     1      -6.278  13.823  69.890  1.00  0.00    -0.129 C  
ENDBRANCH  23  24
ENDBRANCH  21  22
ENDBRANCH  19  21
BRANCH  19  27
HETATM   27  C   UNL     1      -9.652  10.153  68.287  1.00  0.00    -0.141 C  
HETATM   28  O   UNL     1     -10.751  10.174  68.832  1.00  0.00    -0.203 OA 
BRANCH  27  29
HETATM   29  N   UNL     1      -9.386  10.949  67.191  1.00  0.00    -0.159 N  
HETATM   30  H   UNL     1      -8.680  10.664  66.512  1.00  0.00     0.000 HD 
BRANCH  29  31
HETATM   31  C   UNL     1     -10.109  12.184  67.006  1.00  0.00    -0.204 C  
HETATM   32  C   UNL     1     -11.035  12.105  65.814  1.00  0.00    -0.338 C  
ENDBRANCH  29  31
ENDBRANCH  27  29
ENDBRANCH  19  27
ENDBRANCH  15  18
BRANCH  16  33
HETATM   33  C   UNL     1     -10.274   4.247  65.956  1.00  0.00    -0.157 C  
BRANCH  33  34
HETATM   34  C   UNL     1     -10.269   4.145  64.454  1.00  0.00    -0.152 C  
HETATM   35  C   UNL     1     -10.691   3.117  63.707  1.00  0.00    -0.202 C  
ENDBRANCH  33  34
ENDBRANCH  16  33
TORSDOF 9
ENDMDL
MODEL      119
REMARK 921   NORMALIZED FREE ENERGY PREDICTED BY IDOCK:   -4.43 KCAL/MOL
REMARK 922        TOTAL FREE ENERGY PREDICTED BY IDOCK:   -7.47 KCAL/MOL
REMARK 923 INTER-LIGAND FREE ENERGY PREDICTED BY IDOCK:   -5.99 KCAL/MOL
REMARK 924 INTRA-LIGAND FREE ENERGY PREDICTED BY IDOCK:   -1.48 KCAL/MOL
REMARK 927      BINDING AFFINITY PREDICTED BY RF-SCORE:    0.00 PKD
ROOT
HETATM    1  C   UNL     1      -7.608   8.273  67.490  1.00  0.00    -0.098 C  
HETATM    2  C   UNL     1      -6.385   7.678  68.187  1.00  0.00    -0.049 C  
HETATM    3  C   UNL     1      -6.731   6.260  68.446  1.00  0.00    -0.068 A  
HETATM    4  C   UNL     1      -6.552   5.400  69.493  1.00  0.00    -0.047 A  
HETATM    5  N   UNL     1      -6.935   4.153  69.052  1.00  0.00    -0.046 NA 
HETATM    6  H   UNL     1      -6.894   3.299  69.608  1.00  0.00     0.000 HD 
HETATM    7  C   UNL     1      -7.382   4.225  67.752  1.00  0.00    -0.068 A  
HETATM    8  C   UNL     1      -7.670   3.277  66.779  1.00  0.00    -0.076 A  
HETATM    9  C   UNL     1      -8.097   3.772  65.532  1.00  0.00    -0.097 A  
HETATM   10  C   UNL     1      -8.365   5.141  65.314  1.00  0.00    -0.139 A  
HETATM   11  C   UNL     1      -8.110   6.079  66.316  1.00  0.00    -0.112 A  
HETATM   12  C   UNL     1      -8.224   7.595  66.186  1.00  0.00    -0.124 C  
HETATM   13  C   UNL     1      -7.496   5.571  67.472  1.00  0.00    -0.084 A  
HETATM   14  C   UNL     1      -9.631   8.279  65.972  1.00  0.00    -0.151 C  
HETATM   15  C   UNL     1     -10.126   8.977  67.300  1.00  0.00    -0.297 C  
HETATM   16  N   UNL     1      -7.581   9.729  67.370  1.00  0.00    -0.091 NA 
HETATM   17  C   UNL     1      -9.010  10.108  67.594  1.00  0.00    -0.131 C  
ENDROOT
BRANCH  15  18
HETATM   18  C   UNL     1     -10.643   7.725  68.239  1.00  0.00    -0.117 C  
HETATM   19  N   UNL     1     -10.826   7.722  69.632  1.00  0.00    -0.223 N  
HETATM   20  O   UNL     1     -11.005   6.718  67.631  1.00  0.00    -0.273 OA 
BRANCH  19  21
HETATM   21  C   UNL     1     -11.517   6.526  70.241  1.00  0.00    -0.411 C  
BRANCH  21  22
HETATM   22  C   UNL     1     -10.738   5.224  70.553  1.00  0.00    -0.208 C  
HETATM   23  C   UNL     1      -9.672   5.092  71.679  1.00  0.00    -0.163 C  
BRANCH  23  24
HETATM   24  N   UNL     1      -9.869   5.534  73.077  1.00  0.00    -0.161 NA 
HETATM   25  C   UNL     1     -11.182   5.037  73.558  1.00  0.00    -0.269 C  
HETATM   26  C   UNL     1      -9.894   6.998  73.249  1.00  0.00    -0.214 C  
ENDBRANCH  23  24
ENDBRANCH  21  22
ENDBRANCH  19  21
BRANCH  19  27
HETATM   27  C   UNL     1     -10.823   8.900  70.368  1.00  0.00    -0.236 C  
HETATM   28  O   UNL     1      -9.826   9.376  70.900  1.00  0.00    -0.276 OA 
BRANCH  27  29
HETATM   29  N   UNL     1     -12.036   9.556  70.415  1.00  0.00    -0.466 N  
HETATM   30  H   UNL     1     -12.548   9.744  69.553  1.00  0.00     0.000 HD 
BRANCH  29  31
HETATM   31  C   UNL     1     -12.579   9.974  71.684  1.00  0.00    -0.427 C  
HETATM   32  C   UNL     1     -13.551   8.952  72.228  1.00  0.00    -0.513 C  
ENDBRANCH  29  31
ENDBRANCH  27  29
ENDBRANCH  19  27
ENDBRANCH  15  18
BRANCH  16  33
HETATM   33  C   UNL     1      -6.934  10.133  66.102  1.00  0.00    -0.113 C  
BRANCH  33  34
HETATM   34  C   UNL     1      -5.576  10.777  66.188  1.00  0.00    -0.120 C  
HETATM   35  C   UNL     1      -5.177  11.722  67.050  1.00  0.00    -0.115 C  
ENDBRANCH  33  34
ENDBRANCH  16  33
TORSDOF 9
ENDMDL
MODEL      120
REMARK 921   NORMALIZED FREE ENERGY PREDICTED BY IDOCK:   -4.42 KCAL/MOL
REMARK 922        TOTAL FREE ENERGY PREDICTED BY IDOCK:   -7.45 KCAL/MOL
REMARK 923 INTER-LIGAND FREE ENERGY PREDICTED BY IDOCK:   -6.03 KCAL/MOL
REMARK 924 INTRA-LIGAND FREE ENERGY PREDICTED BY IDOCK:   -1.43 KCAL/MOL
REMARK 927      BINDING AFFINITY PREDICTED BY RF-SCORE:    0.00 PKD
ROOT
HETATM    1  C   UNL     1      -7.615   9.588  69.916  1.00  0.00    -0.123 C  
HETATM    2  C   UNL     1      -7.767  10.937  69.213  1.00  0.00    -0.100 C  
HETATM    3  C   UNL     1      -9.146  10.945  68.670  1.00  0.00    -0.175 A  
HETATM    4  C   UNL     1      -9.718  11.354  67.498  1.00  0.00    -0.178 A  
HETATM    5  N   UNL     1     -11.081  11.265  67.670  1.00  0.00    -0.257 NA 
HETATM    6  H   UNL     1     -11.776  11.524  66.970  1.00  0.00     0.000 HD 
HETATM    7  C   UNL     1     -11.371  10.777  68.924  1.00  0.00    -0.284 A  
HETATM    8  C   UNL     1     -12.533  10.694  69.680  1.00  0.00    -0.121 A  
HETATM    9  C   UNL     1     -12.406  10.127  70.961  1.00  0.00    -0.474 A  
HETATM   10  C   UNL     1     -11.205   9.534  71.410  1.00  0.00    -0.452 A  
HETATM   11  C   UNL     1     -10.054   9.588  70.621  1.00  0.00    -0.353 A  
HETATM   12  C   UNL     1      -8.660   9.113  71.021  1.00  0.00    -0.236 C  
HETATM   13  C   UNL     1     -10.169  10.338  69.439  1.00  0.00    -0.255 A  
HETATM   14  C   UNL     1      -8.370   7.578  71.253  1.00  0.00    -0.111 C  
HETATM   15  C   UNL     1      -7.555   6.970  70.044  1.00  0.00    -0.099 C  
HETATM   16  N   UNL     1      -6.245   9.264  70.305  1.00  0.00    -0.044 NA 
HETATM   17  C   UNL     1      -6.164   7.793  70.050  1.00  0.00    -0.030 C  
ENDROOT
BRANCH  15  18
HETATM   18  C   UNL     1      -8.680   6.793  68.853  1.00  0.00    -0.129 C  
HETATM   19  N   UNL     1      -9.852   6.020  68.893  1.00  0.00    -0.134 N  
HETATM   20  O   UNL     1      -8.519   7.504  67.861  1.00  0.00    -0.122 OA 
BRANCH  19  21
HETATM   21  C   UNL     1     -10.838   6.189  67.762  1.00  0.00    -0.325 C  
BRANCH  21  22
HETATM   22  C   UNL     1     -10.637   5.461  66.409  1.00  0.00    -0.322 C  
HETATM   23  C   UNL     1      -9.470   4.474  66.113  1.00  0.00    -0.173 C  
BRANCH  23  24
HETATM   24  N   UNL     1      -9.077   3.352  66.992  1.00  0.00    -0.159 NA 
HETATM   25  C   UNL     1      -7.674   3.554  67.434  1.00  0.00    -0.078 C  
HETATM   26  C   UNL     1      -9.117   2.031  66.337  1.00  0.00    -0.043 C  
ENDBRANCH  23  24
ENDBRANCH  21  22
ENDBRANCH  19  21
BRANCH  19  27
HETATM   27  C   UNL     1     -10.332   5.490  70.083  1.00  0.00    -0.284 C  
HETATM   28  O   UNL     1     -11.203   6.016  70.769  1.00  0.00    -0.303 OA 
BRANCH  27  29
HETATM   29  N   UNL     1      -9.799   4.265  70.428  1.00  0.00    -0.211 N  
HETATM   30  H   UNL     1      -9.443   3.640  69.704  1.00  0.00     0.000 HD 
BRANCH  29  31
HETATM   31  C   UNL     1      -9.745   3.868  71.814  1.00  0.00    -0.173 C  
HETATM   32  C   UNL     1      -9.988   2.384  71.969  1.00  0.00    -0.231 C  
ENDBRANCH  29  31
ENDBRANCH  27  29
ENDBRANCH  19  27
ENDBRANCH  15  18
BRANCH  16  33
HETATM   33  C   UNL     1      -5.964   9.760  71.671  1.00  0.00     0.098 C  
BRANCH  33  34
HETATM   34  C   UNL     1      -5.212   8.847  72.602  1.00  0.00    -0.061 C  
HETATM   35  C   UNL     1      -5.589   8.437  73.820  1.00  0.00    -0.087 C  
ENDBRANCH  33  34
ENDBRANCH  16  33
TORSDOF 9
ENDMDL
MODEL      121
REMARK 921   NORMALIZED FREE ENERGY PREDICTED BY IDOCK:   -4.42 KCAL/MOL
REMARK 922        TOTAL FREE ENERGY PREDICTED BY IDOCK:   -7.45 KCAL/MOL
REMARK 923 INTER-LIGAND FREE ENERGY PREDICTED BY IDOCK:   -7.73 KCAL/MOL
REMARK 924 INTRA-LIGAND FREE ENERGY PREDICTED BY IDOCK:    0.28 KCAL/MOL
REMARK 927      BINDING AFFINITY PREDICTED BY RF-SCORE:    0.00 PKD
ROOT
HETATM    1  C   UNL     1     -11.242  14.224  69.859  1.00  0.00    -0.141 C  
HETATM    2  C   UNL     1     -10.354  15.365  70.355  1.00  0.00    -0.121 C  
HETATM    3  C   UNL     1      -9.280  15.497  69.342  1.00  0.00    -0.280 A  
HETATM    4  C   UNL     1      -7.931  15.707  69.390  1.00  0.00    -0.226 A  
HETATM    5  N   UNL     1      -7.515  15.917  68.094  1.00  0.00    -0.124 NA 
HETATM    6  H   UNL     1      -6.557  16.122  67.815  1.00  0.00     0.000 HD 
HETATM    7  C   UNL     1      -8.582  15.811  67.230  1.00  0.00    -0.188 A  
HETATM    8  C   UNL     1      -8.773  16.132  65.893  1.00  0.00    -0.126 A  
HETATM    9  C   UNL     1     -10.054  15.880  65.367  1.00  0.00    -0.296 A  
HETATM   10  C   UNL     1     -11.053  15.202  66.101  1.00  0.00    -0.311 A  
HETATM   11  C   UNL     1     -10.832  14.848  67.433  1.00  0.00    -0.304 A  
HETATM   12  C   UNL     1     -11.852  14.234  68.387  1.00  0.00    -0.373 C  
HETATM   13  C   UNL     1      -9.618  15.296  67.981  1.00  0.00    -0.203 A  
HETATM   14  C   UNL     1     -12.405  12.776  68.142  1.00  0.00     0.277 C  
HETATM   15  C   UNL     1     -11.763  11.751  69.158  1.00  0.00    -0.388 C  
HETATM   16  N   UNL     1     -12.222  13.756  70.838  1.00  0.00    -0.359 NA 
HETATM   17  C   UNL     1     -12.241  12.279  70.609  1.00  0.00    -0.287 C  
ENDROOT
BRANCH  15  18
HETATM   18  C   UNL     1     -10.245  11.502  68.567  1.00  0.00    -0.213 C  
HETATM   19  N   UNL     1      -9.272  10.616  69.059  1.00  0.00    -0.180 N  
HETATM   20  O   UNL     1      -9.982  12.085  67.516  1.00  0.00    -0.189 OA 
BRANCH  19  21
HETATM   21  C   UNL     1      -8.036  10.402  68.218  1.00  0.00    -0.113 C  
BRANCH  21  22
HETATM   22  C   UNL     1      -7.778  11.245  66.945  1.00  0.00    -0.152 C  
HETATM   23  C   UNL     1      -7.756  10.663  65.501  1.00  0.00    -0.083 C  
BRANCH  23  24
HETATM   24  N   UNL     1      -8.801   9.783  64.936  1.00  0.00    -0.182 NA 
HETATM   25  C   UNL     1      -8.212   8.980  63.835  1.00  0.00    -0.172 C  
HETATM   26  C   UNL     1      -9.946  10.505  64.351  1.00  0.00    -0.343 C  
ENDBRANCH  23  24
ENDBRANCH  21  22
ENDBRANCH  19  21
BRANCH  19  27
HETATM   27  C   UNL     1      -9.587   9.635  69.990  1.00  0.00    -0.243 C  
HETATM   28  O   UNL     1      -9.283   9.692  71.177  1.00  0.00    -0.171 OA 
BRANCH  27  29
HETATM   29  N   UNL     1     -10.340   8.590  69.497  1.00  0.00    -0.215 N  
HETATM   30  H   UNL     1     -10.253   8.314  68.519  1.00  0.00     0.000 HD 
BRANCH  29  31
HETATM   31  C   UNL     1     -11.252   7.887  70.367  1.00  0.00    -0.234 C  
HETATM   32  C   UNL     1     -11.448   6.458  69.917  1.00  0.00    -0.483 C  
ENDBRANCH  29  31
ENDBRANCH  27  29
ENDBRANCH  19  27
ENDBRANCH  15  18
BRANCH  16  33
HETATM   33  C   UNL     1     -13.489  14.509  70.702  1.00  0.00     0.008 C  
BRANCH  33  34
HETATM   34  C   UNL     1     -14.078  15.110  71.950  1.00  0.00    -0.649 C  
HETATM   35  C   UNL     1     -13.423  15.717  72.948  1.00  0.00    -0.666 C  
ENDBRANCH  33  34
ENDBRANCH  16  33
TORSDOF 9
ENDMDL
MODEL      122
REMARK 921   NORMALIZED FREE ENERGY PREDICTED BY IDOCK:   -4.39 KCAL/MOL
REMARK 922        TOTAL FREE ENERGY PREDICTED BY IDOCK:   -7.42 KCAL/MOL
REMARK 923 INTER-LIGAND FREE ENERGY PREDICTED BY IDOCK:   -6.37 KCAL/MOL
REMARK 924 INTRA-LIGAND FREE ENERGY PREDICTED BY IDOCK:   -1.05 KCAL/MOL
REMARK 927      BINDING AFFINITY PREDICTED BY RF-SCORE:    0.00 PKD
ROOT
HETATM    1  C   UNL     1      -6.974  10.964  69.015  1.00  0.00    -0.089 C  
HETATM    2  C   UNL     1      -6.783  12.476  69.130  1.00  0.00    -0.089 C  
HETATM    3  C   UNL     1      -7.901  13.074  68.362  1.00  0.00    -0.134 A  
HETATM    4  C   UNL     1      -8.021  14.122  67.494  1.00  0.00    -0.188 A  
HETATM    5  N   UNL     1      -9.368  14.288  67.256  1.00  0.00    -0.205 NA 
HETATM    6  H   UNL     1      -9.771  15.011  66.660  1.00  0.00     0.000 HD 
HETATM    7  C   UNL     1     -10.091  13.338  67.942  1.00  0.00    -0.235 A  
HETATM    8  C   UNL     1     -11.440  13.179  68.230  1.00  0.00    -0.349 A  
HETATM    9  C   UNL     1     -11.786  12.049  68.995  1.00  0.00    -0.372 A  
HETATM   10  C   UNL     1     -10.849  11.048  69.331  1.00  0.00    -0.278 A  
HETATM   11  C   UNL     1      -9.501  11.202  68.999  1.00  0.00    -0.074 A  
HETATM   12  C   UNL     1      -8.358  10.277  69.404  1.00  0.00    -0.169 C  
HETATM   13  C   UNL     1      -9.164  12.434  68.414  1.00  0.00    -0.145 A  
HETATM   14  C   UNL     1      -8.278   8.804  68.842  1.00  0.00    -0.118 C  
HETATM   15  C   UNL     1      -7.158   8.684  67.734  1.00  0.00    -0.079 C  
HETATM   16  N   UNL     1      -5.837  10.177  69.488  1.00  0.00    -0.037 NA 
HETATM   17  C   UNL     1      -5.789   9.043  68.514  1.00  0.00    -0.042 C  
ENDROOT
BRANCH  15  18
HETATM   18  C   UNL     1      -7.837   9.380  66.403  1.00  0.00    -0.100 C  
HETATM   19  N   UNL     1      -9.024   9.003  65.755  1.00  0.00    -0.184 N  
HETATM   20  O   UNL     1      -7.289  10.407  66.004  1.00  0.00    -0.122 OA 
BRANCH  19  21
HETATM   21  C   UNL     1      -9.559   9.929  64.688  1.00  0.00    -0.252 C  
BRANCH  21  22
HETATM   22  C   UNL     1      -9.453  11.467  64.835  1.00  0.00    -0.194 C  
HETATM   23  C   UNL     1     -10.526  12.470  64.320  1.00  0.00    -0.378 C  
BRANCH  23  24
HETATM   24  N   UNL     1     -11.977  12.354  64.582  1.00  0.00    -0.386 NA 
HETATM   25  C   UNL     1     -12.656  11.897  63.343  1.00  0.00    -0.431 C  
HETATM   26  C   UNL     1     -12.624  13.624  64.962  1.00  0.00    -0.390 C  
ENDBRANCH  23  24
ENDBRANCH  21  22
ENDBRANCH  19  21
BRANCH  19  27
HETATM   27  C   UNL     1      -9.921   8.117  66.337  1.00  0.00    -0.168 C  
HETATM   28  O   UNL     1     -10.895   8.459  66.999  1.00  0.00    -0.224 OA 
BRANCH  27  29
HETATM   29  N   UNL     1      -9.676   6.786  66.065  1.00  0.00    -0.395 N  
HETATM   30  H   UNL     1      -8.911   6.523  65.444  1.00  0.00     0.000 HD 
BRANCH  29  31
HETATM   31  C   UNL     1     -10.506   5.766  66.660  1.00  0.00    -0.268 C  
HETATM   32  C   UNL     1     -10.818   4.667  65.671  1.00  0.00    -0.105 C  
ENDBRANCH  29  31
ENDBRANCH  27  29
ENDBRANCH  19  27
ENDBRANCH  15  18
BRANCH  16  33
HETATM   33  C   UNL     1      -5.986   9.866  70.927  1.00  0.00    -0.088 C  
BRANCH  33  34
HETATM   34  C   UNL     1      -5.636   8.473  71.377  1.00  0.00    -0.036 C  
HETATM   35  C   UNL     1      -6.405   7.625  72.073  1.00  0.00    -0.042 C  
ENDBRANCH  33  34
ENDBRANCH  16  33
TORSDOF 9
ENDMDL
MODEL      123
REMARK 921   NORMALIZED FREE ENERGY PREDICTED BY IDOCK:   -4.39 KCAL/MOL
REMARK 922        TOTAL FREE ENERGY PREDICTED BY IDOCK:   -7.41 KCAL/MOL
REMARK 923 INTER-LIGAND FREE ENERGY PREDICTED BY IDOCK:   -5.64 KCAL/MOL
REMARK 924 INTRA-LIGAND FREE ENERGY PREDICTED BY IDOCK:   -1.77 KCAL/MOL
REMARK 927      BINDING AFFINITY PREDICTED BY RF-SCORE:    0.00 PKD
ROOT
HETATM    1  C   UNL     1      -8.294   7.325  67.091  1.00  0.00    -0.118 C  
HETATM    2  C   UNL     1      -6.812   6.959  67.183  1.00  0.00    -0.072 C  
HETATM    3  C   UNL     1      -6.763   5.717  67.990  1.00  0.00    -0.054 A  
HETATM    4  C   UNL     1      -5.955   5.246  68.986  1.00  0.00    -0.021 A  
HETATM    5  N   UNL     1      -6.316   3.935  69.203  1.00  0.00    -0.028 NA 
HETATM    6  H   UNL     1      -5.873   3.312  69.878  1.00  0.00     0.000 HD 
HETATM    7  C   UNL     1      -7.361   3.586  68.377  1.00  0.00    -0.050 A  
HETATM    8  C   UNL     1      -7.952   2.379  68.030  1.00  0.00    -0.063 A  
HETATM    9  C   UNL     1      -9.017   2.446  67.112  1.00  0.00    -0.169 A  
HETATM   10  C   UNL     1      -9.561   3.673  66.674  1.00  0.00    -0.168 A  
HETATM   11  C   UNL     1      -8.981   4.882  67.064  1.00  0.00    -0.109 A  
HETATM   12  C   UNL     1      -9.372   6.273  66.573  1.00  0.00    -0.173 C  
HETATM   13  C   UNL     1      -7.800   4.767  67.816  1.00  0.00    -0.086 A  
HETATM   14  C   UNL     1     -10.780   6.887  66.937  1.00  0.00    -0.386 C  
HETATM   15  C   UNL     1     -10.639   7.998  68.051  1.00  0.00    -0.190 C  
HETATM   16  N   UNL     1      -8.550   8.659  66.551  1.00  0.00    -0.112 NA 
HETATM   17  C   UNL     1      -9.711   9.131  67.367  1.00  0.00    -0.162 C  
ENDROOT
BRANCH  15  18
HETATM   18  C   UNL     1     -10.417   7.142  69.442  1.00  0.00    -0.222 C  
HETATM   19  N   UNL     1      -9.726   7.549  70.594  1.00  0.00    -0.175 N  
HETATM   20  O   UNL     1     -11.018   6.069  69.506  1.00  0.00    -0.336 OA 
BRANCH  19  21
HETATM   21  C   UNL     1      -9.845   6.680  71.823  1.00  0.00    -0.161 C  
BRANCH  21  22
HETATM   22  C   UNL     1     -10.901   6.979  72.916  1.00  0.00    -0.334 C  
HETATM   23  C   UNL     1     -12.018   8.055  72.781  1.00  0.00    -0.188 C  
BRANCH  23  24
HETATM   24  N   UNL     1     -12.912   8.194  71.611  1.00  0.00    -0.330 NA 
HETATM   25  C   UNL     1     -13.499   9.558  71.612  1.00  0.00    -0.385 C  
HETATM   26  C   UNL     1     -14.049   7.255  71.607  1.00  0.00    -0.384 C  
ENDBRANCH  23  24
ENDBRANCH  21  22
ENDBRANCH  19  21
BRANCH  19  27
HETATM   27  C   UNL     1      -9.344   8.871  70.784  1.00  0.00    -0.230 C  
HETATM   28  O   UNL     1     -10.084   9.833  70.606  1.00  0.00    -0.272 OA 
BRANCH  27  29
HETATM   29  N   UNL     1      -8.060   9.040  71.259  1.00  0.00    -0.135 N  
HETATM   30  H   UNL     1      -7.906   9.312  72.231  1.00  0.00     0.000 HD 
BRANCH  29  31
HETATM   31  C   UNL     1      -6.934   8.832  70.381  1.00  0.00    -0.047 C  
HETATM   32  C   UNL     1      -6.725  10.019  69.468  1.00  0.00    -0.059 C  
ENDBRANCH  29  31
ENDBRANCH  27  29
ENDBRANCH  19  27
ENDBRANCH  15  18
BRANCH  16  33
HETATM   33  C   UNL     1      -8.697   8.603  65.080  1.00  0.00    -0.118 C  
BRANCH  33  34
HETATM   34  C   UNL     1      -8.370   9.848  64.300  1.00  0.00    -0.167 C  
HETATM   35  C   UNL     1      -7.581   9.949  63.222  1.00  0.00    -0.137 C  
ENDBRANCH  33  34
ENDBRANCH  16  33
TORSDOF 9
ENDMDL
MODEL      124
REMARK 921   NORMALIZED FREE ENERGY PREDICTED BY IDOCK:   -4.38 KCAL/MOL
REMARK 922        TOTAL FREE ENERGY PREDICTED BY IDOCK:   -7.39 KCAL/MOL
REMARK 923 INTER-LIGAND FREE ENERGY PREDICTED BY IDOCK:   -6.26 KCAL/MOL
REMARK 924 INTRA-LIGAND FREE ENERGY PREDICTED BY IDOCK:   -1.13 KCAL/MOL
REMARK 927      BINDING AFFINITY PREDICTED BY RF-SCORE:    0.00 PKD
ROOT
HETATM    1  C   UNL     1     -11.527  12.331  67.459  1.00  0.00    -0.347 C  
HETATM    2  C   UNL     1     -12.526  12.128  66.320  1.00  0.00     0.900 C  
HETATM    3  C   UNL     1     -11.783  12.459  65.081  1.00  0.00    -0.430 A  
HETATM    4  C   UNL     1     -12.077  13.142  63.934  1.00  0.00    -0.470 A  
HETATM    5  N   UNL     1     -11.021  12.944  63.073  1.00  0.00    -0.374 NA 
HETATM    6  H   UNL     1     -10.963  13.316  62.125  1.00  0.00     0.000 HD 
HETATM    7  C   UNL     1     -10.054  12.172  63.676  1.00  0.00    -0.385 A  
HETATM    8  C   UNL     1      -8.926  11.508  63.214  1.00  0.00     0.037 A  
HETATM    9  C   UNL     1      -8.186  10.791  64.173  1.00  0.00     0.116 A  
HETATM   10  C   UNL     1      -8.476  10.855  65.553  1.00  0.00    -0.115 A  
HETATM   11  C   UNL     1      -9.591  11.561  66.009  1.00  0.00    -0.251 A  
HETATM   12  C   UNL     1     -10.104  11.613  67.444  1.00  0.00    -0.218 C  
HETATM   13  C   UNL     1     -10.416  12.093  65.004  1.00  0.00    -0.326 A  
HETATM   14  C   UNL     1      -9.257  12.318  68.576  1.00  0.00    -0.089 C  
HETATM   15  C   UNL     1      -9.882  13.718  68.957  1.00  0.00     0.091 C  
HETATM   16  N   UNL     1     -12.123  12.303  68.793  1.00  0.00    -0.210 NA 
HETATM   17  C   UNL     1     -11.352  13.355  69.524  1.00  0.00    -0.183 C  
ENDROOT
BRANCH  15  18
HETATM   18  C   UNL     1      -9.437  14.706  67.716  1.00  0.00    -0.205 C  
HETATM   19  N   UNL     1      -8.179  15.291  67.499  1.00  0.00    -0.160 N  
HETATM   20  O   UNL     1     -10.278  14.857  66.830  1.00  0.00    -0.252 OA 
BRANCH  19  21
HETATM   21  C   UNL     1      -7.949  15.979  66.175  1.00  0.00     0.207 C  
BRANCH  21  22
HETATM   22  C   UNL     1      -7.379  17.418  66.109  1.00  0.00    -0.331 C  
HETATM   23  C   UNL     1      -7.957  18.624  66.906  1.00  0.00    -0.242 C  
BRANCH  23  24
HETATM   24  N   UNL     1      -8.257  18.606  68.354  1.00  0.00    -0.325 NA 
HETATM   25  C   UNL     1      -9.699  18.899  68.551  1.00  0.00    -0.387 C  
HETATM   26  C   UNL     1      -7.520  19.617  69.134  1.00  0.00    -0.275 C  
ENDBRANCH  23  24
ENDBRANCH  21  22
ENDBRANCH  19  21
BRANCH  19  27
HETATM   27  C   UNL     1      -7.057  14.886  68.210  1.00  0.00    -0.112 C  
HETATM   28  O   UNL     1      -6.351  13.933  67.897  1.00  0.00    -0.133 OA 
BRANCH  27  29
HETATM   29  N   UNL     1      -6.738  15.683  69.291  1.00  0.00    -0.146 N  
HETATM   30  H   UNL     1      -7.372  15.741  70.088  1.00  0.00     0.000 HD 
BRANCH  29  31
HETATM   31  C   UNL     1      -5.506  16.434  69.291  1.00  0.00    -0.125 C  
HETATM   32  C   UNL     1      -5.284  17.123  70.618  1.00  0.00    -0.253 C  
ENDBRANCH  29  31
ENDBRANCH  27  29
ENDBRANCH  19  27
ENDBRANCH  15  18
BRANCH  16  33
HETATM   33  C   UNL     1     -12.124  10.925  69.331  1.00  0.00    -0.290 C  
BRANCH  33  34
HETATM   34  C   UNL     1     -12.253  10.760  70.822  1.00  0.00    -0.480 C  
HETATM   35  C   UNL     1     -13.082  11.417  71.644  1.00  0.00    -0.498 C  
ENDBRANCH  33  34
ENDBRANCH  16  33
TORSDOF 9
ENDMDL
MODEL      125
REMARK 921   NORMALIZED FREE ENERGY PREDICTED BY IDOCK:   -4.38 KCAL/MOL
REMARK 922        TOTAL FREE ENERGY PREDICTED BY IDOCK:   -7.39 KCAL/MOL
REMARK 923 INTER-LIGAND FREE ENERGY PREDICTED BY IDOCK:   -5.44 KCAL/MOL
REMARK 924 INTRA-LIGAND FREE ENERGY PREDICTED BY IDOCK:   -1.95 KCAL/MOL
REMARK 927      BINDING AFFINITY PREDICTED BY RF-SCORE:    0.00 PKD
ROOT
HETATM    1  C   UNL     1      -7.554   4.897  68.073  1.00  0.00    -0.082 C  
HETATM    2  C   UNL     1      -8.703   4.508  67.142  1.00  0.00    -0.104 C  
HETATM    3  C   UNL     1      -9.622   5.671  67.145  1.00  0.00    -0.137 A  
HETATM    4  C   UNL     1     -10.979   5.826  67.184  1.00  0.00    -0.108 A  
HETATM    5  N   UNL     1     -11.232   7.164  66.974  1.00  0.00    -0.565 NA 
HETATM    6  H   UNL     1     -12.160   7.582  66.928  1.00  0.00     0.000 HD 
HETATM    7  C   UNL     1     -10.049   7.854  66.833  1.00  0.00    -0.291 A  
HETATM    8  C   UNL     1      -9.727   9.134  66.402  1.00  0.00    -0.330 A  
HETATM    9  C   UNL     1      -8.358   9.462  66.388  1.00  0.00    -0.116 A  
HETATM   10  C   UNL     1      -7.369   8.605  66.918  1.00  0.00    -0.079 A  
HETATM   11  C   UNL     1      -7.713   7.335  67.386  1.00  0.00    -0.110 A  
HETATM   12  C   UNL     1      -6.747   6.255  67.863  1.00  0.00    -0.064 C  
HETATM   13  C   UNL     1      -9.056   6.969  67.198  1.00  0.00    -0.137 A  
HETATM   14  C   UNL     1      -5.901   6.458  69.181  1.00  0.00    -0.021 C  
HETATM   15  C   UNL     1      -6.483   5.588  70.364  1.00  0.00    -0.031 C  
HETATM   16  N   UNL     1      -6.659   3.793  68.415  1.00  0.00    -0.044 NA 
HETATM   17  C   UNL     1      -6.330   4.064  69.849  1.00  0.00    -0.028 C  
ENDROOT
BRANCH  15  18
HETATM   18  C   UNL     1      -7.823   6.417  70.846  1.00  0.00    -0.107 C  
HETATM   19  N   UNL     1      -9.076   5.885  71.194  1.00  0.00    -0.142 N  
HETATM   20  O   UNL     1      -7.668   7.626  71.017  1.00  0.00    -0.085 OA 
BRANCH  19  21
HETATM   21  C   UNL     1     -10.083   6.823  71.815  1.00  0.00    -0.182 C  
BRANCH  21  22
HETATM   22  C   UNL     1     -11.463   7.069  71.155  1.00  0.00    -0.333 C  
HETATM   23  C   UNL     1     -12.385   8.279  71.483  1.00  0.00    -0.306 C  
BRANCH  23  24
HETATM   24  N   UNL     1     -11.939   9.688  71.517  1.00  0.00    -0.384 NA 
HETATM   25  C   UNL     1     -13.133  10.571  71.528  1.00  0.00    -0.430 C  
HETATM   26  C   UNL     1     -11.136  10.095  70.350  1.00  0.00    -0.324 C  
ENDBRANCH  23  24
ENDBRANCH  21  22
ENDBRANCH  19  21
BRANCH  19  27
HETATM   27  C   UNL     1      -9.253   4.525  71.412  1.00  0.00    -0.136 C  
HETATM   28  O   UNL     1      -9.699   3.747  70.576  1.00  0.00    -0.185 OA 
BRANCH  27  29
HETATM   29  N   UNL     1      -8.825   4.076  72.645  1.00  0.00    -0.102 N  
HETATM   30  H   UNL     1      -7.873   4.268  72.956  1.00  0.00     0.000 HD 
BRANCH  29  31
HETATM   31  C   UNL     1      -9.727   3.336  73.494  1.00  0.00    -0.107 C  
HETATM   32  C   UNL     1     -10.735   4.250  74.152  1.00  0.00    -0.303 C  
ENDBRANCH  29  31
ENDBRANCH  27  29
ENDBRANCH  19  27
ENDBRANCH  15  18
BRANCH  16  33
HETATM   33  C   UNL     1      -5.549   3.706  67.440  1.00  0.00    -0.021 C  
BRANCH  33  34
HETATM   34  C   UNL     1      -5.439   2.446  66.624  1.00  0.00    -0.017 C  
HETATM   35  C   UNL     1      -6.440   1.703  66.135  1.00  0.00    -0.023 C  
ENDBRANCH  33  34
ENDBRANCH  16  33
TORSDOF 9
ENDMDL
MODEL      126
REMARK 921   NORMALIZED FREE ENERGY PREDICTED BY IDOCK:   -4.37 KCAL/MOL
REMARK 922        TOTAL FREE ENERGY PREDICTED BY IDOCK:   -7.38 KCAL/MOL
REMARK 923 INTER-LIGAND FREE ENERGY PREDICTED BY IDOCK:   -6.93 KCAL/MOL
REMARK 924 INTRA-LIGAND FREE ENERGY PREDICTED BY IDOCK:   -0.45 KCAL/MOL
REMARK 927      BINDING AFFINITY PREDICTED BY RF-SCORE:    0.00 PKD
ROOT
HETATM    1  C   UNL     1      -9.850  12.270  65.748  1.00  0.00    -0.244 C  
HETATM    2  C   UNL     1      -8.597  11.414  65.933  1.00  0.00    -0.049 C  
HETATM    3  C   UNL     1      -8.416  11.294  67.399  1.00  0.00    -0.137 A  
HETATM    4  C   UNL     1      -7.343  11.339  68.244  1.00  0.00    -0.095 A  
HETATM    5  N   UNL     1      -7.803  10.974  69.490  1.00  0.00    -0.374 NA 
HETATM    6  H   UNL     1      -7.225  10.895  70.325  1.00  0.00     0.000 HD 
HETATM    7  C   UNL     1      -9.157  10.729  69.443  1.00  0.00     0.040 A  
HETATM    8  C   UNL     1     -10.060  10.142  70.319  1.00  0.00    -0.131 A  
HETATM    9  C   UNL     1     -11.395  10.063  69.880  1.00  0.00    -0.306 A  
HETATM   10  C   UNL     1     -11.835  10.674  68.686  1.00  0.00    -0.135 A  
HETATM   11  C   UNL     1     -10.922  11.298  67.833  1.00  0.00    -0.302 A  
HETATM   12  C   UNL     1     -11.224  11.884  66.458  1.00  0.00    -0.383 C  
HETATM   13  C   UNL     1      -9.574  11.180  68.208  1.00  0.00    -0.185 A  
HETATM   14  C   UNL     1     -12.154  13.151  66.310  1.00  0.00    -0.460 C  
HETATM   15  C   UNL     1     -11.301  14.441  65.987  1.00  0.00    -0.335 C  
HETATM   16  N   UNL     1     -10.069  12.726  64.377  1.00  0.00    -0.294 NA 
HETATM   17  C   UNL     1     -10.603  14.110  64.568  1.00  0.00    -0.261 C  
ENDROOT
BRANCH  15  18
HETATM   18  C   UNL     1     -10.625  14.845  67.435  1.00  0.00    -0.263 C  
HETATM   19  N   UNL     1      -9.367  15.430  67.656  1.00  0.00    -0.202 N  
HETATM   20  O   UNL     1     -11.353  14.709  68.417  1.00  0.00    -0.266 OA 
BRANCH  19  21
HETATM   21  C   UNL     1      -9.058  15.909  69.055  1.00  0.00    -0.240 C  
BRANCH  21  22
HETATM   22  C   UNL     1      -9.690  17.208  69.614  1.00  0.00     0.339 C  
HETATM   23  C   UNL     1      -9.537  18.609  68.954  1.00  0.00    -0.293 C  
BRANCH  23  24
HETATM   24  N   UNL     1      -9.766  18.890  67.520  1.00  0.00    -0.306 NA 
HETATM   25  C   UNL     1      -8.673  19.761  67.020  1.00  0.00    -0.325 C  
HETATM   26  C   UNL     1     -11.025  19.605  67.240  1.00  0.00    -0.290 C  
ENDBRANCH  23  24
ENDBRANCH  21  22
ENDBRANCH  19  21
BRANCH  19  27
HETATM   27  C   UNL     1      -8.628  15.979  66.616  1.00  0.00    -0.281 C  
HETATM   28  O   UNL     1      -9.115  16.612  65.686  1.00  0.00    -0.477 OA 
BRANCH  27  29
HETATM   29  N   UNL     1      -7.262  15.816  66.729  1.00  0.00    -0.104 N  
HETATM   30  H   UNL     1      -6.825  14.945  66.427  1.00  0.00     0.000 HD 
BRANCH  29  31
HETATM   31  C   UNL     1      -6.454  16.879  67.276  1.00  0.00    -0.168 C  
HETATM   32  C   UNL     1      -5.704  17.612  66.187  1.00  0.00    -0.245 C  
ENDBRANCH  29  31
ENDBRANCH  27  29
ENDBRANCH  19  27
ENDBRANCH  15  18
BRANCH  16  33
HETATM   33  C   UNL     1     -10.893  11.749  63.632  1.00  0.00    -0.440 C  
BRANCH  33  34
HETATM   34  C   UNL     1     -12.238  12.208  63.135  1.00  0.00    -0.371 C  
HETATM   35  C   UNL     1     -13.441  11.747  63.500  1.00  0.00     0.654 C  
ENDBRANCH  33  34
ENDBRANCH  16  33
TORSDOF 9
ENDMDL
MODEL      127
REMARK 921   NORMALIZED FREE ENERGY PREDICTED BY IDOCK:   -4.36 KCAL/MOL
REMARK 922        TOTAL FREE ENERGY PREDICTED BY IDOCK:   -7.37 KCAL/MOL
REMARK 923 INTER-LIGAND FREE ENERGY PREDICTED BY IDOCK:   -6.08 KCAL/MOL
REMARK 924 INTRA-LIGAND FREE ENERGY PREDICTED BY IDOCK:   -1.29 KCAL/MOL
REMARK 927      BINDING AFFINITY PREDICTED BY RF-SCORE:    0.00 PKD
ROOT
HETATM    1  C   UNL     1      -7.160  15.386  67.395  1.00  0.00    -0.196 C  
HETATM    2  C   UNL     1      -7.928  16.201  66.354  1.00  0.00    -0.252 C  
HETATM    3  C   UNL     1      -9.306  15.657  66.367  1.00  0.00    -0.332 A  
HETATM    4  C   UNL     1     -10.232  15.353  65.409  1.00  0.00    -0.377 A  
HETATM    5  N   UNL     1     -11.403  15.052  66.069  1.00  0.00    -0.313 NA 
HETATM    6  H   UNL     1     -12.281  14.805  65.615  1.00  0.00     0.000 HD 
HETATM    7  C   UNL     1     -11.214  15.132  67.430  1.00  0.00    -0.323 A  
HETATM    8  C   UNL     1     -12.073  15.145  68.521  1.00  0.00    -0.146 A  
HETATM    9  C   UNL     1     -11.470  15.262  69.789  1.00  0.00    -0.332 A  
HETATM   10  C   UNL     1     -10.070  15.219  69.967  1.00  0.00    -0.178 A  
HETATM   11  C   UNL     1      -9.219  15.165  68.861  1.00  0.00    -0.209 A  
HETATM   12  C   UNL     1      -7.696  15.243  68.888  1.00  0.00    -0.167 C  
HETATM   13  C   UNL     1      -9.852  15.253  67.611  1.00  0.00    -0.217 A  
HETATM   14  C   UNL     1      -6.842  14.086  69.541  1.00  0.00    -0.052 C  
HETATM   15  C   UNL     1      -6.158  13.196  68.430  1.00  0.00    -0.083 C  
HETATM   16  N   UNL     1      -5.712  15.587  67.366  1.00  0.00    -0.340 NA 
HETATM   17  C   UNL     1      -5.181  14.218  67.648  1.00  0.00     0.113 C  
ENDROOT
BRANCH  15  18
HETATM   18  C   UNL     1      -7.386  12.255  67.861  1.00  0.00    -0.111 C  
HETATM   19  N   UNL     1      -7.336  11.338  66.799  1.00  0.00    -0.144 N  
HETATM   20  O   UNL     1      -8.429  12.292  68.512  1.00  0.00    -0.152 OA 
BRANCH  19  21
HETATM   21  C   UNL     1      -8.529  10.432  66.604  1.00  0.00    -0.126 C  
BRANCH  21  22
HETATM   22  C   UNL     1      -8.464   8.930  66.979  1.00  0.00    -0.112 C  
HETATM   23  C   UNL     1      -8.738   8.374  68.406  1.00  0.00    -0.136 C  
BRANCH  23  24
HETATM   24  N   UNL     1      -9.915   8.723  69.231  1.00  0.00    -0.188 NA 
HETATM   25  C   UNL     1      -9.455   9.436  70.450  1.00  0.00    -0.268 C  
HETATM   26  C   UNL     1     -10.689   7.560  69.702  1.00  0.00    -0.230 C  
ENDBRANCH  23  24
ENDBRANCH  21  22
ENDBRANCH  19  21
BRANCH  19  27
HETATM   27  C   UNL     1      -6.129  10.929  66.247  1.00  0.00    -0.137 C  
HETATM   28  O   UNL     1      -5.176  10.522  66.903  1.00  0.00    -0.039 OA 
BRANCH  27  29
HETATM   29  N   UNL     1      -6.087  10.951  64.868  1.00  0.00    -0.371 N  
HETATM   30  H   UNL     1      -6.475  11.745  64.357  1.00  0.00     0.000 HD 
BRANCH  29  31
HETATM   31  C   UNL     1      -5.493   9.851  64.149  1.00  0.00    -0.086 C  
HETATM   32  C   UNL     1      -6.547   8.883  63.660  1.00  0.00    -0.089 C  
ENDBRANCH  29  31
ENDBRANCH  27  29
ENDBRANCH  19  27
ENDBRANCH  15  18
BRANCH  16  33
HETATM   33  C   UNL     1      -5.325  16.695  68.267  1.00  0.00    -0.115 C  
BRANCH  33  34
HETATM   34  C   UNL     1      -5.350  18.090  67.704  1.00  0.00    -0.146 C  
HETATM   35  C   UNL     1      -6.218  19.069  67.992  1.00  0.00    -0.228 C  
ENDBRANCH  33  34
ENDBRANCH  16  33
TORSDOF 9
ENDMDL
MODEL      128
REMARK 921   NORMALIZED FREE ENERGY PREDICTED BY IDOCK:   -4.33 KCAL/MOL
REMARK 922        TOTAL FREE ENERGY PREDICTED BY IDOCK:   -7.31 KCAL/MOL
REMARK 923 INTER-LIGAND FREE ENERGY PREDICTED BY IDOCK:   -5.19 KCAL/MOL
REMARK 924 INTRA-LIGAND FREE ENERGY PREDICTED BY IDOCK:   -2.12 KCAL/MOL
REMARK 927      BINDING AFFINITY PREDICTED BY RF-SCORE:    0.00 PKD
ROOT
HETATM    1  C   UNL     1      -8.760   8.468  66.687  1.00  0.00    -0.125 C  
HETATM    2  C   UNL     1     -10.159   7.909  66.429  1.00  0.00    -0.149 C  
HETATM    3  C   UNL     1     -10.593   7.324  67.720  1.00  0.00    -0.289 A  
HETATM    4  C   UNL     1     -11.251   6.185  68.089  1.00  0.00    -0.058 A  
HETATM    5  N   UNL     1     -11.521   6.300  69.435  1.00  0.00    -0.559 NA 
HETATM    6  H   UNL     1     -12.023   5.609  69.990  1.00  0.00     0.000 HD 
HETATM    7  C   UNL     1     -11.014   7.484  69.921  1.00  0.00    -0.211 A  
HETATM    8  C   UNL     1     -11.180   8.188  71.106  1.00  0.00    -0.289 A  
HETATM    9  C   UNL     1     -10.481   9.405  71.214  1.00  0.00    -0.385 A  
HETATM   10  C   UNL     1      -9.545   9.827  70.244  1.00  0.00    -0.264 A  
HETATM   11  C   UNL     1      -9.357   9.087  69.075  1.00  0.00    -0.140 A  
HETATM   12  C   UNL     1      -8.485   9.480  67.887  1.00  0.00    -0.119 C  
HETATM   13  C   UNL     1     -10.219   7.989  68.914  1.00  0.00    -0.220 A  
HETATM   14  C   UNL     1      -6.915   9.556  68.032  1.00  0.00    -0.079 C  
HETATM   15  C   UNL     1      -6.224   8.317  67.337  1.00  0.00    -0.056 C  
HETATM   16  N   UNL     1      -8.040   8.866  65.479  1.00  0.00    -0.107 NA 
HETATM   17  C   UNL     1      -6.634   8.458  65.779  1.00  0.00    -0.053 C  
ENDROOT
BRANCH  15  18
HETATM   18  C   UNL     1      -6.473   7.077  68.392  1.00  0.00    -0.040 C  
HETATM   19  N   UNL     1      -6.883   5.768  68.090  1.00  0.00    -0.065 N  
HETATM   20  O   UNL     1      -6.163   7.304  69.561  1.00  0.00    -0.030 OA 
BRANCH  19  21
HETATM   21  C   UNL     1      -6.829   4.747  69.202  1.00  0.00    -0.050 C  
BRANCH  21  22
HETATM   22  C   UNL     1      -8.120   4.078  69.737  1.00  0.00    -0.060 C  
HETATM   23  C   UNL     1      -8.606   4.176  71.212  1.00  0.00    -0.096 C  
BRANCH  23  24
HETATM   24  N   UNL     1      -8.715   5.436  71.978  1.00  0.00    -0.130 NA 
HETATM   25  C   UNL     1      -7.487   5.612  72.794  1.00  0.00    -0.096 C  
HETATM   26  C   UNL     1      -9.847   5.472  72.923  1.00  0.00    -0.163 C  
ENDBRANCH  23  24
ENDBRANCH  21  22
ENDBRANCH  19  21
BRANCH  19  27
HETATM   27  C   UNL     1      -6.888   5.291  66.786  1.00  0.00    -0.063 C  
HETATM   28  O   UNL     1      -5.876   5.000  66.156  1.00  0.00    -0.021 OA 
BRANCH  27  29
HETATM   29  N   UNL     1      -8.143   5.098  66.245  1.00  0.00    -0.108 N  
HETATM   30  H   UNL     1      -8.846   5.835  66.311  1.00  0.00     0.000 HD 
BRANCH  29  31
HETATM   31  C   UNL     1      -8.459   3.854  65.587  1.00  0.00    -0.110 C  
HETATM   32  C   UNL     1      -9.879   3.854  65.069  1.00  0.00    -0.192 C  
ENDBRANCH  29  31
ENDBRANCH  27  29
ENDBRANCH  19  27
ENDBRANCH  15  18
BRANCH  16  33
HETATM   33  C   UNL     1      -8.310  10.286  65.160  1.00  0.00    -0.161 C  
BRANCH  33  34
HETATM   34  C   UNL     1      -9.458  10.584  64.233  1.00  0.00    -0.337 C  
HETATM   35  C   UNL     1     -10.302  11.623  64.290  1.00  0.00    -0.371 C  
ENDBRANCH  33  34
ENDBRANCH  16  33
TORSDOF 9
ENDMDL
MODEL      129
REMARK 921   NORMALIZED FREE ENERGY PREDICTED BY IDOCK:   -4.30 KCAL/MOL
REMARK 922        TOTAL FREE ENERGY PREDICTED BY IDOCK:   -7.28 KCAL/MOL
REMARK 923 INTER-LIGAND FREE ENERGY PREDICTED BY IDOCK:   -5.82 KCAL/MOL
REMARK 924 INTRA-LIGAND FREE ENERGY PREDICTED BY IDOCK:   -1.46 KCAL/MOL
REMARK 927      BINDING AFFINITY PREDICTED BY RF-SCORE:    0.00 PKD
ROOT
HETATM    1  C   UNL     1      -9.953   8.974  67.772  1.00  0.00    -0.187 C  
HETATM    2  C   UNL     1     -10.893   7.785  67.577  1.00  0.00    -0.182 C  
HETATM    3  C   UNL     1     -10.563   6.839  68.669  1.00  0.00    -0.263 A  
HETATM    4  C   UNL     1     -10.421   5.483  68.760  1.00  0.00    -0.191 A  
HETATM    5  N   UNL     1     -10.288   5.187  70.098  1.00  0.00    -0.282 NA 
HETATM    6  H   UNL     1     -10.185   4.247  70.481  1.00  0.00     0.000 HD 
HETATM    7  C   UNL     1     -10.314   6.343  70.846  1.00  0.00    -0.204 A  
HETATM    8  C   UNL     1     -10.436   6.609  72.203  1.00  0.00    -0.228 A  
HETATM    9  C   UNL     1     -10.437   7.966  72.576  1.00  0.00    -0.363 A  
HETATM   10  C   UNL     1     -10.180   9.004  71.653  1.00  0.00    -0.418 A  
HETATM   11  C   UNL     1     -10.018   8.718  70.296  1.00  0.00    -0.210 A  
HETATM   12  C   UNL     1      -9.865   9.735  69.169  1.00  0.00    -0.192 C  
HETATM   13  C   UNL     1     -10.224   7.376  69.936  1.00  0.00    -0.212 A  
HETATM   14  C   UNL     1      -8.581  10.649  69.080  1.00  0.00    -0.150 C  
HETATM   15  C   UNL     1      -7.617  10.156  67.929  1.00  0.00    -0.089 C  
HETATM   16  N   UNL     1      -9.933   9.914  66.653  1.00  0.00    -0.205 NA 
HETATM   17  C   UNL     1      -8.495  10.317  66.582  1.00  0.00    -0.124 C  
ENDROOT
BRANCH  15  18
HETATM   18  C   UNL     1      -6.884   8.825  68.566  1.00  0.00    -0.064 C  
HETATM   19  N   UNL     1      -6.134   8.748  69.752  1.00  0.00    -0.035 N  
HETATM   20  O   UNL     1      -7.111   7.764  67.985  1.00  0.00    -0.080 OA 
BRANCH  19  21
HETATM   21  C   UNL     1      -5.747   7.374  70.244  1.00  0.00    -0.024 C  
BRANCH  21  22
HETATM   22  C   UNL     1      -6.810   6.390  70.792  1.00  0.00    -0.063 C  
HETATM   23  C   UNL     1      -6.649   5.573  72.106  1.00  0.00    -0.057 C  
BRANCH  23  24
HETATM   24  N   UNL     1      -6.235   6.146  73.405  1.00  0.00    -0.062 NA 
HETATM   25  C   UNL     1      -6.338   5.096  74.450  1.00  0.00    -0.064 C  
HETATM   26  C   UNL     1      -7.075   7.268  73.864  1.00  0.00    -0.086 C  
ENDBRANCH  23  24
ENDBRANCH  21  22
ENDBRANCH  19  21
BRANCH  19  27
HETATM   27  C   UNL     1      -6.136   9.781  70.681  1.00  0.00    -0.088 C  
HETATM   28  O   UNL     1      -6.835   9.798  71.688  1.00  0.00    -0.284 OA 
BRANCH  27  29
HETATM   29  N   UNL     1      -5.229  10.789  70.426  1.00  0.00    -0.059 N  
HETATM   30  H   UNL     1      -4.272  10.560  70.158  1.00  0.00     0.000 HD 
BRANCH  29  31
HETATM   31  C   UNL     1      -5.637  12.169  70.539  1.00  0.00    -0.167 C  
HETATM   32  C   UNL     1      -5.353  12.931  69.265  1.00  0.00    -0.074 C  
ENDBRANCH  29  31
ENDBRANCH  27  29
ENDBRANCH  19  27
ENDBRANCH  15  18
BRANCH  16  33
HETATM   33  C   UNL     1     -10.953  10.969  66.844  1.00  0.00    -0.249 C  
BRANCH  33  34
HETATM   34  C   UNL     1     -11.063  12.031  65.783  1.00  0.00    -0.371 C  
HETATM   35  C   UNL     1     -12.181  12.504  65.219  1.00  0.00    -0.493 C  
ENDBRANCH  33  34
ENDBRANCH  16  33
TORSDOF 9
ENDMDL
MODEL      130
REMARK 921   NORMALIZED FREE ENERGY PREDICTED BY IDOCK:   -4.30 KCAL/MOL
REMARK 922        TOTAL FREE ENERGY PREDICTED BY IDOCK:   -7.27 KCAL/MOL
REMARK 923 INTER-LIGAND FREE ENERGY PREDICTED BY IDOCK:   -6.45 KCAL/MOL
REMARK 924 INTRA-LIGAND FREE ENERGY PREDICTED BY IDOCK:   -0.82 KCAL/MOL
REMARK 927      BINDING AFFINITY PREDICTED BY RF-SCORE:    0.00 PKD
ROOT
HETATM    1  C   UNL     1      -9.788   6.850  70.226  1.00  0.00    -0.178 C  
HETATM    2  C   UNL     1     -10.422   5.672  69.486  1.00  0.00    -0.372 C  
HETATM    3  C   UNL     1     -10.184   5.937  68.048  1.00  0.00    -0.224 A  
HETATM    4  C   UNL     1     -10.928   5.812  66.908  1.00  0.00    -0.153 A  
HETATM    5  N   UNL     1     -10.077   6.047  65.851  1.00  0.00    -0.376 NA 
HETATM    6  H   UNL     1     -10.343   6.004  64.868  1.00  0.00     0.000 HD 
HETATM    7  C   UNL     1      -8.816   6.347  66.314  1.00  0.00    -0.145 A  
HETATM    8  C   UNL     1      -7.569   6.450  65.711  1.00  0.00    -0.085 A  
HETATM    9  C   UNL     1      -6.491   6.769  66.558  1.00  0.00    -0.043 A  
HETATM   10  C   UNL     1      -6.672   7.114  67.915  1.00  0.00    -0.061 A  
HETATM   11  C   UNL     1      -7.939   7.047  68.498  1.00  0.00    -0.123 A  
HETATM   12  C   UNL     1      -8.270   7.261  69.972  1.00  0.00    -0.132 C  
HETATM   13  C   UNL     1      -8.953   6.531  67.674  1.00  0.00    -0.114 A  
HETATM   14  C   UNL     1      -8.094   8.683  70.636  1.00  0.00    -0.127 C  
HETATM   15  C   UNL     1      -9.495   9.377  70.860  1.00  0.00    -0.279 C  
HETATM   16  N   UNL     1     -10.128   6.921  71.646  1.00  0.00    -0.190 NA 
HETATM   17  C   UNL     1     -10.268   8.391  71.881  1.00  0.00    -0.270 C  
ENDROOT
BRANCH  15  18
HETATM   18  C   UNL     1      -9.926   9.900  69.358  1.00  0.00    -0.212 C  
HETATM   19  N   UNL     1      -9.255  10.837  68.555  1.00  0.00    -0.167 N  
HETATM   20  O   UNL     1     -10.886   9.321  68.849  1.00  0.00    -0.194 OA 
BRANCH  19  21
HETATM   21  C   UNL     1      -9.721  10.991  67.126  1.00  0.00    -0.174 C  
BRANCH  21  22
HETATM   22  C   UNL     1     -10.790  12.043  66.741  1.00  0.00    -0.307 C  
HETATM   23  C   UNL     1     -11.034  12.549  65.289  1.00  0.00    -0.293 C  
BRANCH  23  24
HETATM   24  N   UNL     1     -11.203  11.669  64.112  1.00  0.00    -0.357 NA 
HETATM   25  C   UNL     1      -9.963  11.713  63.297  1.00  0.00    -0.419 C  
HETATM   26  C   UNL     1     -12.302  12.069  63.214  1.00  0.00    -0.438 C  
ENDBRANCH  23  24
ENDBRANCH  21  22
ENDBRANCH  19  21
BRANCH  19  27
HETATM   27  C   UNL     1      -7.968  11.262  68.855  1.00  0.00    -0.104 C  
HETATM   28  O   UNL     1      -6.964  10.572  68.709  1.00  0.00    -0.063 OA 
BRANCH  27  29
HETATM   29  N   UNL     1      -7.876  12.571  69.282  1.00  0.00    -0.202 N  
HETATM   30  H   UNL     1      -8.595  12.961  69.892  1.00  0.00     0.000 HD 
BRANCH  29  31
HETATM   31  C   UNL     1      -6.761  13.387  68.866  1.00  0.00    -0.110 C  
HETATM   32  C   UNL     1      -6.101  14.058  70.049  1.00  0.00    -0.148 C  
ENDBRANCH  29  31
ENDBRANCH  27  29
ENDBRANCH  19  27
ENDBRANCH  15  18
BRANCH  16  33
HETATM   33  C   UNL     1      -9.143   6.167  72.452  1.00  0.00    -0.136 C  
BRANCH  33  34
HETATM   34  C   UNL     1      -9.540   4.797  72.932  1.00  0.00    -0.154 C  
HETATM   35  C   UNL     1      -8.892   3.643  72.726  1.00  0.00    -0.104 C  
ENDBRANCH  33  34
ENDBRANCH  16  33
TORSDOF 9
ENDMDL
MODEL      131
REMARK 921   NORMALIZED FREE ENERGY PREDICTED BY IDOCK:   -4.29 KCAL/MOL
REMARK 922        TOTAL FREE ENERGY PREDICTED BY IDOCK:   -7.26 KCAL/MOL
REMARK 923 INTER-LIGAND FREE ENERGY PREDICTED BY IDOCK:   -5.97 KCAL/MOL
REMARK 924 INTRA-LIGAND FREE ENERGY PREDICTED BY IDOCK:   -1.29 KCAL/MOL
REMARK 927      BINDING AFFINITY PREDICTED BY RF-SCORE:    0.00 PKD
ROOT
HETATM    1  C   UNL     1      -8.523  12.283  68.532  1.00  0.00    -0.077 C  
HETATM    2  C   UNL     1      -9.831  11.707  69.077  1.00  0.00     0.032 C  
HETATM    3  C   UNL     1     -10.858  12.741  68.808  1.00  0.00    -0.270 A  
HETATM    4  C   UNL     1     -11.912  13.258  69.508  1.00  0.00    -0.307 A  
HETATM    5  N   UNL     1     -12.606  14.070  68.639  1.00  0.00    -0.275 NA 
HETATM    6  H   UNL     1     -13.458  14.580  68.870  1.00  0.00     0.000 HD 
HETATM    7  C   UNL     1     -11.983  14.093  67.411  1.00  0.00    -0.404 A  
HETATM    8  C   UNL     1     -12.352  14.551  66.153  1.00  0.00    -0.229 A  
HETATM    9  C   UNL     1     -11.412  14.369  65.121  1.00  0.00    -0.362 A  
HETATM   10  C   UNL     1     -10.107  13.886  65.364  1.00  0.00    -0.328 A  
HETATM   11  C   UNL     1      -9.736  13.468  66.644  1.00  0.00    -0.281 A  
HETATM   12  C   UNL     1      -8.417  12.808  67.032  1.00  0.00    -0.154 C  
HETATM   13  C   UNL     1     -10.764  13.477  67.601  1.00  0.00    -0.257 A  
HETATM   14  C   UNL     1      -7.061  13.614  66.956  1.00  0.00     0.513 C  
HETATM   15  C   UNL     1      -6.567  14.023  68.399  1.00  0.00    -0.106 C  
HETATM   16  N   UNL     1      -7.330  11.534  68.921  1.00  0.00    -0.118 NA 
HETATM   17  C   UNL     1      -6.320  12.613  69.148  1.00  0.00    -0.099 C  
ENDROOT
BRANCH  15  18
HETATM   18  C   UNL     1      -7.541  15.288  68.810  1.00  0.00    -0.139 C  
HETATM   19  N   UNL     1      -7.634  16.536  68.173  1.00  0.00    -0.157 N  
HETATM   20  O   UNL     1      -8.346  15.066  69.715  1.00  0.00    -0.112 OA 
BRANCH  19  21
HETATM   21  C   UNL     1      -8.756  17.453  68.598  1.00  0.00    -0.261 C  
BRANCH  21  22
HETATM   22  C   UNL     1     -10.189  17.279  68.036  1.00  0.00    -0.332 C  
HETATM   23  C   UNL     1     -11.159  18.459  67.737  1.00  0.00     0.094 C  
BRANCH  23  24
HETATM   24  N   UNL     1     -10.799  19.666  66.963  1.00  0.00    -0.464 NA 
HETATM   25  C   UNL     1     -10.418  19.259  65.587  1.00  0.00    -0.227 C  
HETATM   26  C   UNL     1      -9.647  20.409  67.507  1.00  0.00    -0.420 C  
ENDBRANCH  23  24
ENDBRANCH  21  22
ENDBRANCH  19  21
BRANCH  19  27
HETATM   27  C   UNL     1      -7.067  16.759  66.925  1.00  0.00    -0.223 C  
HETATM   28  O   UNL     1      -7.701  16.783  65.875  1.00  0.00    -0.258 OA 
BRANCH  27  29
HETATM   29  N   UNL     1      -5.712  17.021  66.945  1.00  0.00    -0.169 N  
HETATM   30  H   UNL     1      -5.060  16.379  66.494  1.00  0.00     0.000 HD 
BRANCH  29  31
HETATM   31  C   UNL     1      -5.219  18.206  67.605  1.00  0.00    -0.143 C  
HETATM   32  C   UNL     1      -5.912  19.447  67.093  1.00  0.00    -0.180 C  
ENDBRANCH  29  31
ENDBRANCH  27  29
ENDBRANCH  19  27
ENDBRANCH  15  18
BRANCH  16  33
HETATM   33  C   UNL     1      -7.030  10.485  67.922  1.00  0.00    -0.077 C  
BRANCH  33  34
HETATM   34  C   UNL     1      -7.392   9.066  68.272  1.00  0.00    -0.082 C  
HETATM   35  C   UNL     1      -7.586   8.044  67.429  1.00  0.00    -0.097 C  
ENDBRANCH  33  34
ENDBRANCH  16  33
TORSDOF 9
ENDMDL
MODEL      132
REMARK 921   NORMALIZED FREE ENERGY PREDICTED BY IDOCK:   -4.25 KCAL/MOL
REMARK 922        TOTAL FREE ENERGY PREDICTED BY IDOCK:   -7.19 KCAL/MOL
REMARK 923 INTER-LIGAND FREE ENERGY PREDICTED BY IDOCK:   -5.52 KCAL/MOL
REMARK 924 INTRA-LIGAND FREE ENERGY PREDICTED BY IDOCK:   -1.67 KCAL/MOL
REMARK 927      BINDING AFFINITY PREDICTED BY RF-SCORE:    0.00 PKD
ROOT
HETATM    1  C   UNL     1      -8.092  14.472  67.313  1.00  0.00    -0.196 C  
HETATM    2  C   UNL     1      -8.999  15.221  66.336  1.00  0.00    -0.339 C  
HETATM    3  C   UNL     1     -10.383  14.884  66.746  1.00  0.00    -0.269 A  
HETATM    4  C   UNL     1     -11.536  14.573  66.081  1.00  0.00    -0.357 A  
HETATM    5  N   UNL     1     -12.540  14.542  67.023  1.00  0.00    -0.365 NA 
HETATM    6  H   UNL     1     -13.522  14.355  66.823  1.00  0.00     0.000 HD 
HETATM    7  C   UNL     1     -12.026  14.798  68.274  1.00  0.00    -0.223 A  
HETATM    8  C   UNL     1     -12.595  15.094  69.506  1.00  0.00    -0.024 A  
HETATM    9  C   UNL     1     -11.700  15.314  70.570  1.00  0.00    -0.355 A  
HETATM   10  C   UNL     1     -10.309  15.102  70.444  1.00  0.00    -0.020 A  
HETATM   11  C   UNL     1      -9.755  14.764  69.208  1.00  0.00    -0.098 A  
HETATM   12  C   UNL     1      -8.270  14.631  68.889  1.00  0.00    -0.145 C  
HETATM   13  C   UNL     1     -10.655  14.752  68.130  1.00  0.00    -0.241 A  
HETATM   14  C   UNL     1      -7.408  13.477  69.535  1.00  0.00     0.361 C  
HETATM   15  C   UNL     1      -7.103  12.343  68.479  1.00  0.00    -0.100 C  
HETATM   16  N   UNL     1      -6.681  14.461  66.935  1.00  0.00     0.343 NA 
HETATM   17  C   UNL     1      -6.240  13.089  67.334  1.00  0.00    -0.074 C  
ENDROOT
BRANCH  15  18
HETATM   18  C   UNL     1      -8.519  11.509  68.367  1.00  0.00    -0.159 C  
HETATM   19  N   UNL     1      -9.169  11.083  67.197  1.00  0.00    -0.152 N  
HETATM   20  O   UNL     1      -9.000  11.134  69.436  1.00  0.00     0.079 OA 
BRANCH  19  21
HETATM   21  C   UNL     1     -10.342  10.144  67.354  1.00  0.00    -0.238 C  
BRANCH  21  22
HETATM   22  C   UNL     1     -10.217   8.641  67.001  1.00  0.00    -0.360 C  
HETATM   23  C   UNL     1      -9.227   7.661  67.694  1.00  0.00    -0.135 C  
BRANCH  23  24
HETATM   24  N   UNL     1      -9.067   7.525  69.158  1.00  0.00    -0.138 NA 
HETATM   25  C   UNL     1      -7.671   7.873  69.524  1.00  0.00    -0.104 C  
HETATM   26  C   UNL     1      -9.298   6.160  69.666  1.00  0.00    -0.146 C  
ENDBRANCH  23  24
ENDBRANCH  21  22
ENDBRANCH  19  21
BRANCH  19  27
HETATM   27  C   UNL     1      -8.533  11.108  65.963  1.00  0.00    -0.138 C  
HETATM   28  O   UNL     1      -7.489  10.514  65.715  1.00  0.00    -0.143 OA 
BRANCH  27  29
HETATM   29  N   UNL     1      -9.201  11.813  64.982  1.00  0.00    -0.422 N  
HETATM   30  H   UNL     1      -9.057  12.818  64.888  1.00  0.00     0.000 HD 
BRANCH  29  31
HETATM   31  C   UNL     1     -10.104  11.126  64.091  1.00  0.00    -0.333 C  
HETATM   32  C   UNL     1     -11.136  12.071  63.520  1.00  0.00    -0.519 C  
ENDBRANCH  29  31
ENDBRANCH  27  29
ENDBRANCH  19  27
ENDBRANCH  15  18
BRANCH  16  33
HETATM   33  C   UNL     1      -5.980  15.626  67.518  1.00  0.00    -0.094 C  
BRANCH  33  34
HETATM   34  C   UNL     1      -6.090  16.940  66.792  1.00  0.00    -0.216 C  
HETATM   35  C   UNL     1      -5.126  17.583  66.121  1.00  0.00    -0.208 C  
ENDBRANCH  33  34
ENDBRANCH  16  33
TORSDOF 9
ENDMDL
MODEL      133
REMARK 921   NORMALIZED FREE ENERGY PREDICTED BY IDOCK:   -4.23 KCAL/MOL
REMARK 922        TOTAL FREE ENERGY PREDICTED BY IDOCK:   -7.16 KCAL/MOL
REMARK 923 INTER-LIGAND FREE ENERGY PREDICTED BY IDOCK:   -6.27 KCAL/MOL
REMARK 924 INTRA-LIGAND FREE ENERGY PREDICTED BY IDOCK:   -0.89 KCAL/MOL
REMARK 927      BINDING AFFINITY PREDICTED BY RF-SCORE:    0.00 PKD
ROOT
HETATM    1  C   UNL     1      -9.430   4.457  69.095  1.00  0.00    -0.170 C  
HETATM    2  C   UNL     1      -9.615   3.408  67.998  1.00  0.00    -0.160 C  
HETATM    3  C   UNL     1      -9.429   4.136  66.721  1.00  0.00    -0.211 A  
HETATM    4  C   UNL     1     -10.052   4.124  65.505  1.00  0.00    -0.187 A  
HETATM    5  N   UNL     1      -9.291   4.903  64.662  1.00  0.00    -0.341 NA 
HETATM    6  H   UNL     1      -9.495   5.067  63.676  1.00  0.00     0.000 HD 
HETATM    7  C   UNL     1      -8.216   5.429  65.342  1.00  0.00    -0.130 A  
HETATM    8  C   UNL     1      -7.053   6.079  64.949  1.00  0.00    -0.060 A  
HETATM    9  C   UNL     1      -6.170   6.455  65.979  1.00  0.00    -0.038 A  
HETATM   10  C   UNL     1      -6.500   6.320  67.345  1.00  0.00    -0.046 A  
HETATM   11  C   UNL     1      -7.693   5.702  67.725  1.00  0.00    -0.096 A  
HETATM   12  C   UNL     1      -8.125   5.370  69.150  1.00  0.00    -0.094 C  
HETATM   13  C   UNL     1      -8.451   5.161  66.674  1.00  0.00    -0.107 A  
HETATM   14  C   UNL     1      -8.450   6.521  70.181  1.00  0.00    -0.135 C  
HETATM   15  C   UNL     1     -10.009   6.656  70.401  1.00  0.00    -0.193 C  
HETATM   16  N   UNL     1      -9.822   4.008  70.429  1.00  0.00    -0.188 NA 
HETATM   17  C   UNL     1     -10.447   5.230  71.022  1.00  0.00    -0.203 C  
ENDROOT
BRANCH  15  18
HETATM   18  C   UNL     1     -10.537   7.431  69.046  1.00  0.00    -0.192 C  
HETATM   19  N   UNL     1     -10.397   8.793  68.732  1.00  0.00    -0.214 N  
HETATM   20  O   UNL     1     -11.015   6.708  68.172  1.00  0.00    -0.260 OA 
BRANCH  19  21
HETATM   21  C   UNL     1     -10.768   9.228  67.334  1.00  0.00    -0.193 C  
BRANCH  21  22
HETATM   22  C   UNL     1     -10.928  10.727  66.978  1.00  0.00    -0.292 C  
HETATM   23  C   UNL     1      -9.915  11.532  66.113  1.00  0.00    -0.224 C  
BRANCH  23  24
HETATM   24  N   UNL     1      -9.385  11.083  64.807  1.00  0.00    -0.215 NA 
HETATM   25  C   UNL     1     -10.480  11.115  63.806  1.00  0.00    -0.381 C  
HETATM   26  C   UNL     1      -8.868   9.703  64.809  1.00  0.00    -0.207 C  
ENDBRANCH  23  24
ENDBRANCH  21  22
ENDBRANCH  19  21
BRANCH  19  27
HETATM   27  C   UNL     1      -9.546   9.621  69.452  1.00  0.00    -0.191 C  
HETATM   28  O   UNL     1      -8.393   9.877  69.121  1.00  0.00    -0.123 OA 
BRANCH  27  29
HETATM   29  N   UNL     1     -10.113  10.206  70.566  1.00  0.00    -0.366 N  
HETATM   30  H   UNL     1      -9.560  10.334  71.414  1.00  0.00     0.000 HD 
BRANCH  29  31
HETATM   31  C   UNL     1     -11.490  10.634  70.531  1.00  0.00    -0.317 C  
HETATM   32  C   UNL     1     -12.330   9.864  71.525  1.00  0.00    -0.504 C  
ENDBRANCH  29  31
ENDBRANCH  27  29
ENDBRANCH  19  27
ENDBRANCH  15  18
BRANCH  16  33
HETATM   33  C   UNL     1      -8.671   3.393  71.127  1.00  0.00    -0.078 C  
BRANCH  33  34
HETATM   34  C   UNL     1      -8.539   3.644  72.605  1.00  0.00    -0.094 C  
HETATM   35  C   UNL     1      -7.797   2.958  73.484  1.00  0.00    -0.060 C  
ENDBRANCH  33  34
ENDBRANCH  16  33
TORSDOF 9
ENDMDL
MODEL      134
REMARK 921   NORMALIZED FREE ENERGY PREDICTED BY IDOCK:   -4.22 KCAL/MOL
REMARK 922        TOTAL FREE ENERGY PREDICTED BY IDOCK:   -7.16 KCAL/MOL
REMARK 923 INTER-LIGAND FREE ENERGY PREDICTED BY IDOCK:   -5.56 KCAL/MOL
REMARK 924 INTRA-LIGAND FREE ENERGY PREDICTED BY IDOCK:   -1.60 KCAL/MOL
REMARK 927      BINDING AFFINITY PREDICTED BY RF-SCORE:    0.00 PKD
ROOT
HETATM    1  C   UNL     1      -9.888   9.057  67.384  1.00  0.00    -0.190 C  
HETATM    2  C   UNL     1     -10.878   7.918  67.146  1.00  0.00    -0.187 C  
HETATM    3  C   UNL     1     -10.698   6.993  68.290  1.00  0.00    -0.231 A  
HETATM    4  C   UNL     1     -10.647   5.635  68.433  1.00  0.00    -0.179 A  
HETATM    5  N   UNL     1     -10.643   5.378  69.786  1.00  0.00    -0.313 NA 
HETATM    6  H   UNL     1     -10.629   4.448  70.203  1.00  0.00     0.000 HD 
HETATM    7  C   UNL     1     -10.661   6.559  70.493  1.00  0.00    -0.254 A  
HETATM    8  C   UNL     1     -10.879   6.878  71.827  1.00  0.00    -0.253 A  
HETATM    9  C   UNL     1     -10.829   8.246  72.158  1.00  0.00    -0.390 A  
HETATM   10  C   UNL     1     -10.434   9.234  71.230  1.00  0.00    -0.408 A  
HETATM   11  C   UNL     1     -10.177   8.892  69.900  1.00  0.00    -0.209 A  
HETATM   12  C   UNL     1      -9.870   9.859  68.761  1.00  0.00    -0.177 C  
HETATM   13  C   UNL     1     -10.434   7.553  69.564  1.00  0.00    -0.227 A  
HETATM   14  C   UNL     1      -8.530  10.693  68.754  1.00  0.00    -0.149 C  
HETATM   15  C   UNL     1      -7.506  10.106  67.705  1.00  0.00    -0.090 C  
HETATM   16  N   UNL     1      -9.718   9.954  66.243  1.00  0.00    -0.206 NA 
HETATM   17  C   UNL     1      -8.257  10.270  66.283  1.00  0.00    -0.131 C  
ENDROOT
BRANCH  15  18
HETATM   18  C   UNL     1      -6.910   8.758  68.441  1.00  0.00    -0.065 C  
HETATM   19  N   UNL     1      -6.210   8.687  69.656  1.00  0.00    -0.035 N  
HETATM   20  O   UNL     1      -7.207   7.687  67.910  1.00  0.00    -0.088 OA 
BRANCH  19  21
HETATM   21  C   UNL     1      -5.957   7.316  70.237  1.00  0.00    -0.024 C  
BRANCH  21  22
HETATM   22  C   UNL     1      -7.034   6.594  71.083  1.00  0.00    -0.071 C  
HETATM   23  C   UNL     1      -7.280   5.057  71.057  1.00  0.00    -0.060 C  
BRANCH  23  24
HETATM   24  N   UNL     1      -6.219   4.036  71.191  1.00  0.00    -0.014 NA 
HETATM   25  C   UNL     1      -6.567   2.866  70.346  1.00  0.00    -0.032 C  
HETATM   26  C   UNL     1      -6.049   3.519  72.561  1.00  0.00    -0.009 C  
ENDBRANCH  23  24
ENDBRANCH  21  22
ENDBRANCH  19  21
BRANCH  19  27
HETATM   27  C   UNL     1      -6.155   9.768  70.526  1.00  0.00    -0.078 C  
HETATM   28  O   UNL     1      -6.886   9.904  71.502  1.00  0.00    -0.273 OA 
BRANCH  27  29
HETATM   29  N   UNL     1      -5.154  10.679  70.255  1.00  0.00    -0.044 N  
HETATM   30  H   UNL     1      -4.299  10.375  69.790  1.00  0.00     0.000 HD 
BRANCH  29  31
HETATM   31  C   UNL     1      -5.321  12.063  70.628  1.00  0.00    -0.150 C  
HETATM   32  C   UNL     1      -5.810  12.890  69.462  1.00  0.00    -0.104 C  
ENDBRANCH  29  31
ENDBRANCH  27  29
ENDBRANCH  19  27
ENDBRANCH  15  18
BRANCH  16  33
HETATM   33  C   UNL     1     -10.685  11.072  66.316  1.00  0.00    -0.212 C  
BRANCH  33  34
HETATM   34  C   UNL     1     -10.863  11.919  65.085  1.00  0.00    -0.350 C  
HETATM   35  C   UNL     1     -10.359  13.139  64.856  1.00  0.00    -0.352 C  
ENDBRANCH  33  34
ENDBRANCH  16  33
TORSDOF 9
ENDMDL
MODEL      135
REMARK 921   NORMALIZED FREE ENERGY PREDICTED BY IDOCK:   -4.20 KCAL/MOL
REMARK 922        TOTAL FREE ENERGY PREDICTED BY IDOCK:   -7.12 KCAL/MOL
REMARK 923 INTER-LIGAND FREE ENERGY PREDICTED BY IDOCK:   -5.09 KCAL/MOL
REMARK 924 INTRA-LIGAND FREE ENERGY PREDICTED BY IDOCK:   -2.03 KCAL/MOL
REMARK 927      BINDING AFFINITY PREDICTED BY RF-SCORE:    0.00 PKD
ROOT
HETATM    1  C   UNL     1      -8.336  10.036  66.273  1.00  0.00    -0.127 C  
HETATM    2  C   UNL     1      -9.792   9.679  65.973  1.00  0.00    -0.345 C  
HETATM    3  C   UNL     1     -10.580  10.279  67.076  1.00  0.00    -0.302 A  
HETATM    4  C   UNL     1     -11.640   9.872  67.836  1.00  0.00     0.711 A  
HETATM    5  N   UNL     1     -12.037  10.961  68.580  1.00  0.00    -0.812 NA 
HETATM    6  H   UNL     1     -12.823  10.968  69.229  1.00  0.00     0.000 HD 
HETATM    7  C   UNL     1     -11.220  12.037  68.319  1.00  0.00    -0.261 A  
HETATM    8  C   UNL     1     -11.292  13.393  68.611  1.00  0.00    -0.322 A  
HETATM    9  C   UNL     1     -10.232  14.190  68.139  1.00  0.00    -0.241 A  
HETATM   10  C   UNL     1      -9.082  13.638  67.534  1.00  0.00    -0.213 A  
HETATM   11  C   UNL     1      -9.005  12.266  67.284  1.00  0.00    -0.187 A  
HETATM   12  C   UNL     1      -7.894  11.546  66.527  1.00  0.00    -0.071 C  
HETATM   13  C   UNL     1     -10.165  11.535  67.586  1.00  0.00    -0.205 A  
HETATM   14  C   UNL     1      -6.434  11.470  67.123  1.00  0.00    -0.123 C  
HETATM   15  C   UNL     1      -6.132  10.028  67.693  1.00  0.00    -0.057 C  
HETATM   16  N   UNL     1      -7.362   9.328  65.446  1.00  0.00    -0.089 NA 
HETATM   17  C   UNL     1      -6.245   9.060  66.404  1.00  0.00    -0.064 C  
ENDROOT
BRANCH  15  18
HETATM   18  C   UNL     1      -6.946   9.987  69.125  1.00  0.00    -0.059 C  
HETATM   19  N   UNL     1      -7.732   8.939  69.631  1.00  0.00    -0.075 N  
HETATM   20  O   UNL     1      -6.751  10.945  69.874  1.00  0.00    -0.140 OA 
BRANCH  19  21
HETATM   21  C   UNL     1      -8.198   9.046  71.064  1.00  0.00    -0.176 C  
BRANCH  21  22
HETATM   22  C   UNL     1      -7.492   8.259  72.196  1.00  0.00    -0.146 C  
HETATM   23  C   UNL     1      -8.188   7.182  73.077  1.00  0.00    -0.105 C  
BRANCH  23  24
HETATM   24  N   UNL     1      -9.000   6.064  72.550  1.00  0.00    -0.132 NA 
HETATM   25  C   UNL     1     -10.410   6.249  72.977  1.00  0.00    -0.212 C  
HETATM   26  C   UNL     1      -8.591   4.736  73.043  1.00  0.00    -0.114 C  
ENDBRANCH  23  24
ENDBRANCH  21  22
ENDBRANCH  19  21
BRANCH  19  27
HETATM   27  C   UNL     1      -7.709   7.673  69.061  1.00  0.00    -0.117 C  
HETATM   28  O   UNL     1      -6.755   6.905  69.130  1.00  0.00    -0.049 OA 
BRANCH  27  29
HETATM   29  N   UNL     1      -8.885   7.294  68.446  1.00  0.00    -0.128 N  
HETATM   30  H   UNL     1      -9.249   7.836  67.662  1.00  0.00     0.000 HD 
BRANCH  29  31
HETATM   31  C   UNL     1      -9.599   6.131  68.913  1.00  0.00    -0.129 C  
HETATM   32  C   UNL     1     -11.032   6.469  69.258  1.00  0.00    -0.389 C  
ENDBRANCH  29  31
ENDBRANCH  27  29
ENDBRANCH  19  27
ENDBRANCH  15  18
BRANCH  16  33
HETATM   33  C   UNL     1      -7.069  10.098  64.217  1.00  0.00    -0.102 C  
BRANCH  33  34
HETATM   34  C   UNL     1      -7.450   9.477  62.900  1.00  0.00    -0.106 C  
HETATM   35  C   UNL     1      -8.648   8.998  62.542  1.00  0.00    -0.210 C  
ENDBRANCH  33  34
ENDBRANCH  16  33
TORSDOF 9
ENDMDL
MODEL      136
REMARK 921   NORMALIZED FREE ENERGY PREDICTED BY IDOCK:   -4.18 KCAL/MOL
REMARK 922        TOTAL FREE ENERGY PREDICTED BY IDOCK:   -7.09 KCAL/MOL
REMARK 923 INTER-LIGAND FREE ENERGY PREDICTED BY IDOCK:   -5.34 KCAL/MOL
REMARK 924 INTRA-LIGAND FREE ENERGY PREDICTED BY IDOCK:   -1.75 KCAL/MOL
REMARK 927      BINDING AFFINITY PREDICTED BY RF-SCORE:    0.00 PKD
ROOT
HETATM    1  C   UNL     1      -8.612  10.101  69.130  1.00  0.00    -0.165 C  
HETATM    2  C   UNL     1     -10.013  10.453  69.630  1.00  0.00    -0.209 C  
HETATM    3  C   UNL     1     -10.411   9.329  70.510  1.00  0.00    -0.312 A  
HETATM    4  C   UNL     1     -11.563   8.621  70.706  1.00  0.00    -0.242 A  
HETATM    5  N   UNL     1     -11.351   7.814  71.802  1.00  0.00    -0.252 NA 
HETATM    6  H   UNL     1     -12.042   7.182  72.204  1.00  0.00     0.000 HD 
HETATM    7  C   UNL     1     -10.069   7.985  72.277  1.00  0.00    -0.246 A  
HETATM    8  C   UNL     1      -9.416   7.606  73.442  1.00  0.00    -0.330 A  
HETATM    9  C   UNL     1      -8.070   8.001  73.560  1.00  0.00    -0.255 A  
HETATM   10  C   UNL     1      -7.368   8.618  72.502  1.00  0.00    -0.006 A  
HETATM   11  C   UNL     1      -8.028   8.957  71.319  1.00  0.00    -0.172 A  
HETATM   12  C   UNL     1      -7.441   9.738  70.148  1.00  0.00    -0.170 C  
HETATM   13  C   UNL     1      -9.414   8.729  71.318  1.00  0.00    -0.320 A  
HETATM   14  C   UNL     1      -6.285   9.118  69.267  1.00  0.00    -0.041 C  
HETATM   15  C   UNL     1      -6.838   8.640  67.867  1.00  0.00    -0.067 C  
HETATM   16  N   UNL     1      -8.129  10.953  68.045  1.00  0.00    -0.115 NA 
HETATM   17  C   UNL     1      -7.385   9.993  67.173  1.00  0.00    -0.091 C  
ENDROOT
BRANCH  15  18
HETATM   18  C   UNL     1      -7.621   7.230  68.208  1.00  0.00    -0.118 C  
HETATM   19  N   UNL     1      -8.827   6.768  67.656  1.00  0.00    -0.118 N  
HETATM   20  O   UNL     1      -7.020   6.456  68.954  1.00  0.00    -0.070 OA 
BRANCH  19  21
HETATM   21  C   UNL     1      -9.233   5.346  67.961  1.00  0.00    -0.110 C  
BRANCH  21  22
HETATM   22  C   UNL     1      -9.930   4.982  69.296  1.00  0.00    -0.277 C  
HETATM   23  C   UNL     1      -9.773   3.612  70.018  1.00  0.00    -0.109 C  
BRANCH  23  24
HETATM   24  N   UNL     1      -8.478   2.954  70.296  1.00  0.00    -0.051 NA 
HETATM   25  C   UNL     1      -8.709   1.502  70.499  1.00  0.00    -0.058 C  
HETATM   26  C   UNL     1      -7.805   3.439  71.515  1.00  0.00    -0.057 C  
ENDBRANCH  23  24
ENDBRANCH  21  22
ENDBRANCH  19  21
BRANCH  19  27
HETATM   27  C   UNL     1      -9.388   7.364  66.534  1.00  0.00    -0.173 C  
HETATM   28  O   UNL     1     -10.228   8.257  66.578  1.00  0.00    -0.288 OA 
BRANCH  27  29
HETATM   29  N   UNL     1      -8.881   6.921  65.329  1.00  0.00    -0.365 N  
HETATM   30  H   UNL     1      -9.050   5.962  65.026  1.00  0.00     0.000 HD 
BRANCH  29  31
HETATM   31  C   UNL     1      -8.114   7.817  64.499  1.00  0.00    -0.108 C  
HETATM   32  C   UNL     1      -6.750   7.244  64.189  1.00  0.00    -0.047 C  
ENDBRANCH  29  31
ENDBRANCH  27  29
ENDBRANCH  19  27
ENDBRANCH  15  18
BRANCH  16  33
HETATM   33  C   UNL     1      -7.403  12.122  68.589  1.00  0.00    -0.109 C  
BRANCH  33  34
HETATM   34  C   UNL     1      -7.439  13.397  67.791  1.00  0.00    -0.160 C  
HETATM   35  C   UNL     1      -7.874  14.598  68.195  1.00  0.00    -0.128 C  
ENDBRANCH  33  34
ENDBRANCH  16  33
TORSDOF 9
ENDMDL
MODEL      137
REMARK 921   NORMALIZED FREE ENERGY PREDICTED BY IDOCK:   -4.17 KCAL/MOL
REMARK 922        TOTAL FREE ENERGY PREDICTED BY IDOCK:   -7.07 KCAL/MOL
REMARK 923 INTER-LIGAND FREE ENERGY PREDICTED BY IDOCK:   -6.43 KCAL/MOL
REMARK 924 INTRA-LIGAND FREE ENERGY PREDICTED BY IDOCK:   -0.63 KCAL/MOL
REMARK 927      BINDING AFFINITY PREDICTED BY RF-SCORE:    0.00 PKD
ROOT
HETATM    1  C   UNL     1      -9.808  11.399  66.531  1.00  0.00    -0.208 C  
HETATM    2  C   UNL     1      -8.902  10.194  66.780  1.00  0.00    -0.143 C  
HETATM    3  C   UNL     1      -8.767  10.100  68.253  1.00  0.00    -0.120 A  
HETATM    4  C   UNL     1      -7.737   9.840  69.112  1.00  0.00    -0.092 A  
HETATM    5  N   UNL     1      -8.290   9.711  70.368  1.00  0.00    -0.208 NA 
HETATM    6  H   UNL     1      -7.767   9.494  71.216  1.00  0.00     0.000 HD 
HETATM    7  C   UNL     1      -9.650   9.919  70.311  1.00  0.00    -0.127 A  
HETATM    8  C   UNL     1     -10.693   9.705  71.201  1.00  0.00    -0.365 A  
HETATM    9  C   UNL     1     -11.982  10.040  70.745  1.00  0.00    -0.426 A  
HETATM   10  C   UNL     1     -12.201  10.696  69.514  1.00  0.00    -0.230 A  
HETATM   11  C   UNL     1     -11.136  10.943  68.646  1.00  0.00    -0.305 A  
HETATM   12  C   UNL     1     -11.232  11.519  67.237  1.00  0.00    -0.365 C  
HETATM   13  C   UNL     1      -9.898  10.413  69.048  1.00  0.00    -0.222 A  
HETATM   14  C   UNL     1     -11.698  13.011  67.009  1.00  0.00    -0.441 C  
HETATM   15  C   UNL     1     -10.472  13.933  66.635  1.00  0.00    -0.272 C  
HETATM   16  N   UNL     1      -9.868  11.827  65.135  1.00  0.00    -0.245 NA 
HETATM   17  C   UNL     1      -9.922  13.317  65.246  1.00  0.00    -0.173 C  
ENDROOT
BRANCH  15  18
HETATM   18  C   UNL     1      -9.700  14.173  68.070  1.00  0.00    -0.226 C  
HETATM   19  N   UNL     1      -8.526  14.910  68.296  1.00  0.00    -0.145 N  
HETATM   20  O   UNL     1     -10.281  13.739  69.065  1.00  0.00    -0.158 OA 
BRANCH  19  21
HETATM   21  C   UNL     1      -8.131  15.170  69.730  1.00  0.00     0.009 C  
BRANCH  21  22
HETATM   22  C   UNL     1      -6.689  15.600  70.098  1.00  0.00     0.072 C  
HETATM   23  C   UNL     1      -5.606  14.633  70.662  1.00  0.00    -0.150 C  
BRANCH  23  24
HETATM   24  N   UNL     1      -5.268  13.319  70.075  1.00  0.00    -0.087 NA 
HETATM   25  C   UNL     1      -5.915  13.204  68.744  1.00  0.00    -0.076 C  
HETATM   26  C   UNL     1      -5.741  12.167  70.864  1.00  0.00    -0.012 C  
ENDBRANCH  23  24
ENDBRANCH  21  22
ENDBRANCH  19  21
BRANCH  19  27
HETATM   27  C   UNL     1      -8.002  15.756  67.327  1.00  0.00    -0.186 C  
HETATM   28  O   UNL     1      -7.350  15.375  66.361  1.00  0.00     0.230 OA 
BRANCH  27  29
HETATM   29  N   UNL     1      -8.322  17.089  67.489  1.00  0.00    -0.187 N  
HETATM   30  H   UNL     1      -7.676  17.714  67.972  1.00  0.00     0.000 HD 
BRANCH  29  31
HETATM   31  C   UNL     1      -9.571  17.597  66.975  1.00  0.00    -0.276 C  
HETATM   32  C   UNL     1     -10.662  17.527  68.019  1.00  0.00    -0.342 C  
ENDBRANCH  29  31
ENDBRANCH  27  29
ENDBRANCH  19  27
ENDBRANCH  15  18
BRANCH  16  33
HETATM   33  C   UNL     1     -10.967  11.132  64.428  1.00  0.00    -0.200 C  
BRANCH  33  34
HETATM   34  C   UNL     1     -11.718  11.906  63.378  1.00  0.00    -0.500 C  
HETATM   35  C   UNL     1     -13.032  12.157  63.337  1.00  0.00    -0.258 C  
ENDBRANCH  33  34
ENDBRANCH  16  33
TORSDOF 9
ENDMDL
MODEL      138
REMARK 921   NORMALIZED FREE ENERGY PREDICTED BY IDOCK:   -4.16 KCAL/MOL
REMARK 922        TOTAL FREE ENERGY PREDICTED BY IDOCK:   -7.06 KCAL/MOL
REMARK 923 INTER-LIGAND FREE ENERGY PREDICTED BY IDOCK:   -6.05 KCAL/MOL
REMARK 924 INTRA-LIGAND FREE ENERGY PREDICTED BY IDOCK:   -1.01 KCAL/MOL
REMARK 927      BINDING AFFINITY PREDICTED BY RF-SCORE:    0.00 PKD
ROOT
HETATM    1  C   UNL     1     -10.402  11.640  68.315  1.00  0.00    -0.200 C  
HETATM    2  C   UNL     1     -11.232  10.540  68.978  1.00  0.00    -0.316 C  
HETATM    3  C   UNL     1     -10.373   9.332  68.956  1.00  0.00    -0.228 A  
HETATM    4  C   UNL     1     -10.582   8.006  68.700  1.00  0.00    -0.109 A  
HETATM    5  N   UNL     1      -9.414   7.351  69.023  1.00  0.00    -0.148 NA 
HETATM    6  H   UNL     1      -9.273   6.344  68.957  1.00  0.00     0.000 HD 
HETATM    7  C   UNL     1      -8.466   8.253  69.449  1.00  0.00    -0.123 A  
HETATM    8  C   UNL     1      -7.235   8.130  70.080  1.00  0.00    -0.056 A  
HETATM    9  C   UNL     1      -6.560   9.331  70.372  1.00  0.00    -0.068 A  
HETATM   10  C   UNL     1      -7.023  10.587  69.923  1.00  0.00    -0.151 A  
HETATM   11  C   UNL     1      -8.243  10.691  69.252  1.00  0.00    -0.122 A  
HETATM   12  C   UNL     1      -8.932  11.983  68.823  1.00  0.00     0.077 C  
HETATM   13  C   UNL     1      -8.981   9.499  69.158  1.00  0.00    -0.148 A  
HETATM   14  C   UNL     1      -8.296  12.901  67.707  1.00  0.00    -0.178 C  
HETATM   15  C   UNL     1      -9.083  12.758  66.345  1.00  0.00    -0.096 C  
HETATM   16  N   UNL     1     -11.154  12.853  68.003  1.00  0.00    -0.241 NA 
HETATM   17  C   UNL     1     -10.573  13.277  66.692  1.00  0.00    -0.281 C  
ENDROOT
BRANCH  15  18
HETATM   18  C   UNL     1      -8.575  11.312  65.740  1.00  0.00    -0.067 C  
HETATM   19  N   UNL     1      -9.058  10.646  64.602  1.00  0.00    -0.203 N  
HETATM   20  O   UNL     1      -7.594  10.819  66.296  1.00  0.00    -0.135 OA 
BRANCH  19  21
HETATM   21  C   UNL     1      -8.287   9.440  64.121  1.00  0.00    -0.168 C  
BRANCH  21  22
HETATM   22  C   UNL     1      -8.514   8.042  64.748  1.00  0.00    -0.037 C  
HETATM   23  C   UNL     1      -7.441   6.915  64.782  1.00  0.00    -0.096 C  
BRANCH  23  24
HETATM   24  N   UNL     1      -6.044   7.100  65.233  1.00  0.00    -0.037 NA 
HETATM   25  C   UNL     1      -6.049   7.797  66.543  1.00  0.00    -0.045 C  
HETATM   26  C   UNL     1      -5.224   7.927  64.329  1.00  0.00    -0.036 C  
ENDBRANCH  23  24
ENDBRANCH  21  22
ENDBRANCH  19  21
BRANCH  19  27
HETATM   27  C   UNL     1      -9.886  11.281  63.685  1.00  0.00    -0.340 C  
HETATM   28  O   UNL     1      -9.482  11.888  62.699  1.00  0.00    -0.223 OA 
BRANCH  27  29
HETATM   29  N   UNL     1     -11.237  11.129  63.924  1.00  0.00    -0.442 N  
HETATM   30  H   UNL     1     -11.558  10.491  64.652  1.00  0.00     0.000 HD 
BRANCH  29  31
HETATM   31  C   UNL     1     -12.193  11.875  63.143  1.00  0.00    -0.226 C  
HETATM   32  C   UNL     1     -12.277  13.312  63.604  1.00  0.00    -0.522 C  
ENDBRANCH  29  31
ENDBRANCH  27  29
ENDBRANCH  19  27
ENDBRANCH  15  18
BRANCH  16  33
HETATM   33  C   UNL     1     -11.101  13.801  69.138  1.00  0.00    -0.240 C  
BRANCH  33  34
HETATM   34  C   UNL     1     -12.282  13.836  70.071  1.00  0.00    -0.407 C  
HETATM   35  C   UNL     1     -12.318  14.315  71.321  1.00  0.00    -0.439 C  
ENDBRANCH  33  34
ENDBRANCH  16  33
TORSDOF 9
ENDMDL
MODEL      139
REMARK 921   NORMALIZED FREE ENERGY PREDICTED BY IDOCK:   -4.16 KCAL/MOL
REMARK 922        TOTAL FREE ENERGY PREDICTED BY IDOCK:   -7.05 KCAL/MOL
REMARK 923 INTER-LIGAND FREE ENERGY PREDICTED BY IDOCK:   -6.38 KCAL/MOL
REMARK 924 INTRA-LIGAND FREE ENERGY PREDICTED BY IDOCK:   -0.67 KCAL/MOL
REMARK 927      BINDING AFFINITY PREDICTED BY RF-SCORE:    0.00 PKD
ROOT
HETATM    1  C   UNL     1     -10.104   7.771  70.389  1.00  0.00    -0.194 C  
HETATM    2  C   UNL     1      -9.454   8.965  71.088  1.00  0.00    -0.335 C  
HETATM    3  C   UNL     1      -8.585   9.594  70.065  1.00  0.00    -0.237 A  
HETATM    4  C   UNL     1      -7.329  10.133  70.066  1.00  0.00    -0.165 A  
HETATM    5  N   UNL     1      -7.150  10.726  68.837  1.00  0.00    -0.074 NA 
HETATM    6  H   UNL     1      -6.312  11.231  68.548  1.00  0.00     0.000 HD 
HETATM    7  C   UNL     1      -8.266  10.540  68.052  1.00  0.00    -0.112 A  
HETATM    8  C   UNL     1      -8.703  11.088  66.854  1.00  0.00    -0.148 A  
HETATM    9  C   UNL     1      -9.946  10.633  66.375  1.00  0.00    -0.273 A  
HETATM   10  C   UNL     1     -10.650   9.574  66.988  1.00  0.00    -0.271 A  
HETATM   11  C   UNL     1     -10.178   9.003  68.171  1.00  0.00    -0.247 A  
HETATM   12  C   UNL     1     -10.889   7.949  69.014  1.00  0.00    -0.029 C  
HETATM   13  C   UNL     1      -9.043   9.619  68.724  1.00  0.00    -0.134 A  
HETATM   14  C   UNL     1     -11.109   6.488  68.455  1.00  0.00    -0.347 C  
HETATM   15  C   UNL     1     -10.114   5.468  69.137  1.00  0.00    -0.286 C  
HETATM   16  N   UNL     1     -10.808   6.859  71.289  1.00  0.00    -0.231 NA 
HETATM   17  C   UNL     1     -10.508   5.517  70.703  1.00  0.00    -0.272 C  
ENDROOT
BRANCH  15  18
HETATM   18  C   UNL     1      -8.673   5.761  68.394  1.00  0.00    -0.111 C  
HETATM   19  N   UNL     1      -8.288   5.383  67.098  1.00  0.00    -0.108 N  
HETATM   20  O   UNL     1      -7.892   6.482  69.016  1.00  0.00    -0.106 OA 
BRANCH  19  21
HETATM   21  C   UNL     1      -6.998   5.955  66.558  1.00  0.00    -0.060 C  
BRANCH  21  22
HETATM   22  C   UNL     1      -6.749   7.484  66.534  1.00  0.00    -0.058 C  
HETATM   23  C   UNL     1      -6.197   8.259  65.302  1.00  0.00    -0.045 C  
BRANCH  23  24
HETATM   24  N   UNL     1      -6.724   8.131  63.926  1.00  0.00    -0.070 NA 
HETATM   25  C   UNL     1      -5.839   8.881  63.000  1.00  0.00    -0.085 C  
HETATM   26  C   UNL     1      -8.077   8.688  63.744  1.00  0.00    -0.163 C  
ENDBRANCH  23  24
ENDBRANCH  21  22
ENDBRANCH  19  21
BRANCH  19  27
HETATM   27  C   UNL     1      -9.211   4.912  66.174  1.00  0.00    -0.146 C  
HETATM   28  O   UNL     1     -10.138   4.158  66.451  1.00  0.00    -0.206 OA 
BRANCH  27  29
HETATM   29  N   UNL     1      -9.055   5.408  64.895  1.00  0.00    -0.356 N  
HETATM   30  H   UNL     1      -9.051   6.415  64.735  1.00  0.00     0.000 HD 
BRANCH  29  31
HETATM   31  C   UNL     1      -8.898   4.499  63.786  1.00  0.00    -0.140 C  
HETATM   32  C   UNL     1      -7.671   4.837  62.970  1.00  0.00    -0.065 C  
ENDBRANCH  29  31
ENDBRANCH  27  29
ENDBRANCH  19  27
ENDBRANCH  15  18
BRANCH  16  33
HETATM   33  C   UNL     1     -12.223   7.266  71.436  1.00  0.00    -0.349 C  
BRANCH  33  34
HETATM   34  C   UNL     1     -12.517   8.460  72.303  1.00  0.00    -0.417 C  
HETATM   35  C   UNL     1     -13.429   9.417  72.088  1.00  0.00    -0.543 C  
ENDBRANCH  33  34
ENDBRANCH  16  33
TORSDOF 9
ENDMDL
MODEL      140
REMARK 921   NORMALIZED FREE ENERGY PREDICTED BY IDOCK:   -4.14 KCAL/MOL
REMARK 922        TOTAL FREE ENERGY PREDICTED BY IDOCK:   -7.02 KCAL/MOL
REMARK 923 INTER-LIGAND FREE ENERGY PREDICTED BY IDOCK:   -6.43 KCAL/MOL
REMARK 924 INTRA-LIGAND FREE ENERGY PREDICTED BY IDOCK:   -0.59 KCAL/MOL
REMARK 927      BINDING AFFINITY PREDICTED BY RF-SCORE:    0.00 PKD
ROOT
HETATM    1  C   UNL     1      -8.404  16.780  67.505  1.00  0.00    -0.188 C  
HETATM    2  C   UNL     1      -9.359  17.150  66.369  1.00  0.00    -0.286 C  
HETATM    3  C   UNL     1     -10.109  15.909  66.066  1.00  0.00    -0.359 A  
HETATM    4  C   UNL     1     -10.520  15.286  64.920  1.00  0.00    -0.302 A  
HETATM    5  N   UNL     1     -11.343  14.251  65.304  1.00  0.00    -0.323 NA 
HETATM    6  H   UNL     1     -11.820  13.616  64.665  1.00  0.00     0.000 HD 
HETATM    7  C   UNL     1     -11.430  14.197  66.678  1.00  0.00    -0.366 A  
HETATM    8  C   UNL     1     -12.258  13.522  67.564  1.00  0.00    -0.247 A  
HETATM    9  C   UNL     1     -12.029  13.755  68.933  1.00  0.00    -0.394 A  
HETATM   10  C   UNL     1     -10.932  14.512  69.398  1.00  0.00    -0.275 A  
HETATM   11  C   UNL     1     -10.082  15.152  68.494  1.00  0.00    -0.228 A  
HETATM   12  C   UNL     1      -8.941  16.103  68.844  1.00  0.00    -0.247 C  
HETATM   13  C   UNL     1     -10.461  15.061  67.145  1.00  0.00    -0.277 A  
HETATM   14  C   UNL     1      -7.659  15.576  69.600  1.00  0.00    -0.144 C  
HETATM   15  C   UNL     1      -6.431  15.456  68.613  1.00  0.00    -0.094 C  
HETATM   16  N   UNL     1      -7.389  17.792  67.789  1.00  0.00    -0.199 NA 
HETATM   17  C   UNL     1      -6.180  16.970  68.107  1.00  0.00    -0.130 C  
ENDROOT
BRANCH  15  18
HETATM   18  C   UNL     1      -6.744  14.086  67.752  1.00  0.00    -0.177 C  
HETATM   19  N   UNL     1      -6.542  12.757  68.159  1.00  0.00    -0.077 N  
HETATM   20  O   UNL     1      -7.315  14.255  66.674  1.00  0.00     0.474 OA 
BRANCH  19  21
HETATM   21  C   UNL     1      -7.110  11.666  67.282  1.00  0.00    -0.134 C  
BRANCH  21  22
HETATM   22  C   UNL     1      -6.205  10.869  66.310  1.00  0.00    -0.134 C  
HETATM   23  C   UNL     1      -6.741   9.943  65.180  1.00  0.00    -0.109 C  
BRANCH  23  24
HETATM   24  N   UNL     1      -7.778  10.330  64.199  1.00  0.00    -0.132 NA 
HETATM   25  C   UNL     1      -9.045   9.636  64.538  1.00  0.00    -0.236 C  
HETATM   26  C   UNL     1      -7.461   9.956  62.808  1.00  0.00    -0.128 C  
ENDBRANCH  23  24
ENDBRANCH  21  22
ENDBRANCH  19  21
BRANCH  19  27
HETATM   27  C   UNL     1      -6.272  12.436  69.483  1.00  0.00    -0.126 C  
HETATM   28  O   UNL     1      -5.537  13.091  70.214  1.00  0.00    -0.117 OA 
BRANCH  27  29
HETATM   29  N   UNL     1      -6.952  11.333  69.960  1.00  0.00    -0.333 N  
HETATM   30  H   UNL     1      -7.950  11.231  69.779  1.00  0.00     0.000 HD 
BRANCH  29  31
HETATM   31  C   UNL     1      -6.248  10.326  70.716  1.00  0.00    -0.049 C  
HETATM   32  C   UNL     1      -5.246   9.594  69.853  1.00  0.00    -0.033 C  
ENDBRANCH  29  31
ENDBRANCH  27  29
ENDBRANCH  19  27
ENDBRANCH  15  18
BRANCH  16  33
HETATM   33  C   UNL     1      -7.881  18.746  68.807  1.00  0.00    -0.310 C  
BRANCH  33  34
HETATM   34  C   UNL     1      -6.887  19.715  69.391  1.00  0.00    -0.377 C  
HETATM   35  C   UNL     1      -6.110  20.581  68.728  1.00  0.00    -0.373 C  
ENDBRANCH  33  34
ENDBRANCH  16  33
TORSDOF 9
ENDMDL
MODEL      141
REMARK 921   NORMALIZED FREE ENERGY PREDICTED BY IDOCK:   -4.12 KCAL/MOL
REMARK 922        TOTAL FREE ENERGY PREDICTED BY IDOCK:   -7.00 KCAL/MOL
REMARK 923 INTER-LIGAND FREE ENERGY PREDICTED BY IDOCK:   -7.13 KCAL/MOL
REMARK 924 INTRA-LIGAND FREE ENERGY PREDICTED BY IDOCK:    0.13 KCAL/MOL
REMARK 927      BINDING AFFINITY PREDICTED BY RF-SCORE:    0.00 PKD
ROOT
HETATM    1  C   UNL     1      -8.386  12.527  68.262  1.00  0.00    -0.167 C  
HETATM    2  C   UNL     1      -7.680  13.525  69.181  1.00  0.00     0.223 C  
HETATM    3  C   UNL     1      -8.537  14.734  69.180  1.00  0.00    -0.089 A  
HETATM    4  C   UNL     1      -8.304  16.080  69.131  1.00  0.00    -0.244 A  
HETATM    5  N   UNL     1      -9.514  16.700  69.350  1.00  0.00    -0.110 NA 
HETATM    6  H   UNL     1      -9.653  17.709  69.391  1.00  0.00     0.000 HD 
HETATM    7  C   UNL     1     -10.508  15.761  69.504  1.00  0.00    -0.270 A  
HETATM    8  C   UNL     1     -11.823  15.815  69.947  1.00  0.00    -0.355 A  
HETATM    9  C   UNL     1     -12.524  14.594  69.975  1.00  0.00    -0.333 A  
HETATM   10  C   UNL     1     -11.984  13.401  69.446  1.00  0.00    -0.369 A  
HETATM   11  C   UNL     1     -10.674  13.371  68.965  1.00  0.00    -0.160 A  
HETATM   12  C   UNL     1      -9.914  12.137  68.488  1.00  0.00    -0.180 C  
HETATM   13  C   UNL     1      -9.942  14.557  69.140  1.00  0.00    -0.114 A  
HETATM   14  C   UNL     1     -10.360  11.376  67.178  1.00  0.00    -0.247 C  
HETATM   15  C   UNL     1      -9.372  11.683  65.984  1.00  0.00    -0.241 C  
HETATM   16  N   UNL     1      -7.582  11.356  67.918  1.00  0.00    -0.103 NA 
HETATM   17  C   UNL     1      -7.948  11.109  66.489  1.00  0.00    -0.158 C  
ENDROOT
BRANCH  15  18
HETATM   18  C   UNL     1      -9.793  13.200  65.498  1.00  0.00    -0.138 C  
HETATM   19  N   UNL     1     -10.839  13.559  64.632  1.00  0.00    -0.384 N  
HETATM   20  O   UNL     1      -9.184  14.120  66.042  1.00  0.00    -0.140 OA 
BRANCH  19  21
HETATM   21  C   UNL     1     -11.169  15.028  64.509  1.00  0.00    -0.265 C  
BRANCH  21  22
HETATM   22  C   UNL     1     -11.631  15.850  65.737  1.00  0.00     0.467 C  
HETATM   23  C   UNL     1     -10.782  16.967  66.411  1.00  0.00    -0.075 C  
BRANCH  23  24
HETATM   24  N   UNL     1     -10.119  18.071  65.683  1.00  0.00    -0.527 NA 
HETATM   25  C   UNL     1      -8.738  18.230  66.203  1.00  0.00    -0.094 C  
HETATM   26  C   UNL     1     -10.775  19.381  65.848  1.00  0.00    -0.407 C  
ENDBRANCH  23  24
ENDBRANCH  21  22
ENDBRANCH  19  21
BRANCH  19  27
HETATM   27  C   UNL     1     -11.826  12.652  64.268  1.00  0.00    -0.393 C  
HETATM   28  O   UNL     1     -12.973  12.673  64.701  1.00  0.00    -0.768 OA 
BRANCH  27  29
HETATM   29  N   UNL     1     -11.442  11.733  63.312  1.00  0.00    -0.760 N  
HETATM   30  H   UNL     1     -12.121  11.067  62.942  1.00  0.00     0.000 HD 
BRANCH  29  31
HETATM   31  C   UNL     1     -10.080  11.715  62.837  1.00  0.00    -0.135 C  
HETATM   32  C   UNL     1      -9.504  10.319  62.877  1.00  0.00    -0.333 C  
ENDBRANCH  29  31
ENDBRANCH  27  29
ENDBRANCH  19  27
ENDBRANCH  15  18
BRANCH  16  33
HETATM   33  C   UNL     1      -7.802  10.272  68.901  1.00  0.00    -0.106 C  
BRANCH  33  34
HETATM   34  C   UNL     1      -6.611   9.795  69.688  1.00  0.00    -0.052 C  
HETATM   35  C   UNL     1      -5.904  10.485  70.593  1.00  0.00    -0.107 C  
ENDBRANCH  33  34
ENDBRANCH  16  33
TORSDOF 9
ENDMDL
MODEL      142
REMARK 921   NORMALIZED FREE ENERGY PREDICTED BY IDOCK:   -4.10 KCAL/MOL
REMARK 922        TOTAL FREE ENERGY PREDICTED BY IDOCK:   -6.97 KCAL/MOL
REMARK 923 INTER-LIGAND FREE ENERGY PREDICTED BY IDOCK:   -6.58 KCAL/MOL
REMARK 924 INTRA-LIGAND FREE ENERGY PREDICTED BY IDOCK:   -0.39 KCAL/MOL
REMARK 927      BINDING AFFINITY PREDICTED BY RF-SCORE:    0.00 PKD
ROOT
HETATM    1  C   UNL     1     -11.409   7.920  70.119  1.00  0.00    -0.092 C  
HETATM    2  C   UNL     1     -11.153   6.747  69.174  1.00  0.00    -0.270 C  
HETATM    3  C   UNL     1     -10.361   7.309  68.054  1.00  0.00    -0.243 A  
HETATM    4  C   UNL     1     -10.369   7.155  66.696  1.00  0.00    -0.151 A  
HETATM    5  N   UNL     1      -9.258   7.813  66.216  1.00  0.00    -0.243 NA 
HETATM    6  H   UNL     1      -8.985   7.857  65.235  1.00  0.00     0.000 HD 
HETATM    7  C   UNL     1      -8.571   8.404  67.253  1.00  0.00    -0.123 A  
HETATM    8  C   UNL     1      -7.315   8.983  67.368  1.00  0.00    -0.084 A  
HETATM    9  C   UNL     1      -6.966   9.471  68.641  1.00  0.00    -0.064 A  
HETATM   10  C   UNL     1      -7.885   9.511  69.713  1.00  0.00    -0.128 A  
HETATM   11  C   UNL     1      -9.161   8.961  69.570  1.00  0.00    -0.146 A  
HETATM   12  C   UNL     1     -10.209   8.814  70.668  1.00  0.00    -0.247 C  
HETATM   13  C   UNL     1      -9.399   8.306  68.351  1.00  0.00    -0.136 A  
HETATM   14  C   UNL     1     -10.884  10.088  71.311  1.00  0.00     0.043 C  
HETATM   15  C   UNL     1     -12.361  10.272  70.782  1.00  0.00    -0.445 C  
HETATM   16  N   UNL     1     -12.390   7.645  71.167  1.00  0.00    -0.297 NA 
HETATM   17  C   UNL     1     -13.129   8.939  71.280  1.00  0.00    -0.197 C  
ENDROOT
BRANCH  15  18
HETATM   18  C   UNL     1     -12.168  10.881  69.264  1.00  0.00    -0.169 C  
HETATM   19  N   UNL     1     -12.150  12.232  68.882  1.00  0.00    -0.213 N  
HETATM   20  O   UNL     1     -11.908  10.055  68.389  1.00  0.00     0.005 OA 
BRANCH  19  21
HETATM   21  C   UNL     1     -11.739  12.551  67.464  1.00  0.00    -0.374 C  
BRANCH  21  22
HETATM   22  C   UNL     1     -10.305  13.036  67.136  1.00  0.00    -0.243 C  
HETATM   23  C   UNL     1      -9.912  14.530  66.941  1.00  0.00    -0.259 C  
BRANCH  23  24
HETATM   24  N   UNL     1     -10.273  15.621  67.871  1.00  0.00    -0.236 NA 
HETATM   25  C   UNL     1     -10.507  16.862  67.091  1.00  0.00    -0.296 C  
HETATM   26  C   UNL     1      -9.224  15.945  68.856  1.00  0.00    -0.232 C  
ENDBRANCH  23  24
ENDBRANCH  21  22
ENDBRANCH  19  21
BRANCH  19  27
HETATM   27  C   UNL     1     -12.046  13.251  69.820  1.00  0.00    -0.290 C  
HETATM   28  O   UNL     1     -11.161  13.318  70.667  1.00  0.00     0.550 OA 
BRANCH  27  29
HETATM   29  N   UNL     1     -12.992  14.248  69.699  1.00  0.00    -0.284 N  
HETATM   30  H   UNL     1     -13.844  14.082  69.163  1.00  0.00     0.000 HD 
BRANCH  29  31
HETATM   31  C   UNL     1     -12.775  15.527  70.330  1.00  0.00    -0.338 C  
HETATM   32  C   UNL     1     -13.379  15.565  71.715  1.00  0.00    -0.577 C  
ENDBRANCH  29  31
ENDBRANCH  27  29
ENDBRANCH  19  27
ENDBRANCH  15  18
BRANCH  16  33
HETATM   33  C   UNL     1     -11.722   7.105  72.372  1.00  0.00    -0.222 C  
BRANCH  33  34
HETATM   34  C   UNL     1     -11.518   5.615  72.445  1.00  0.00    -0.309 C  
HETATM   35  C   UNL     1     -10.377   4.940  72.257  1.00  0.00    -0.267 C  
ENDBRANCH  33  34
ENDBRANCH  16  33
TORSDOF 9
ENDMDL
MODEL      143
REMARK 921   NORMALIZED FREE ENERGY PREDICTED BY IDOCK:   -4.10 KCAL/MOL
REMARK 922        TOTAL FREE ENERGY PREDICTED BY IDOCK:   -6.96 KCAL/MOL
REMARK 923 INTER-LIGAND FREE ENERGY PREDICTED BY IDOCK:   -6.06 KCAL/MOL
REMARK 924 INTRA-LIGAND FREE ENERGY PREDICTED BY IDOCK:   -0.90 KCAL/MOL
REMARK 927      BINDING AFFINITY PREDICTED BY RF-SCORE:    0.00 PKD
ROOT
HETATM    1  C   UNL     1      -8.394  11.558  66.819  1.00  0.00    -0.165 C  
HETATM    2  C   UNL     1      -7.986  12.910  66.233  1.00  0.00     1.052 C  
HETATM    3  C   UNL     1      -7.901  13.831  67.390  1.00  0.00    -0.167 A  
HETATM    4  C   UNL     1      -8.275  15.126  67.621  1.00  0.00    -0.164 A  
HETATM    5  N   UNL     1      -7.755  15.476  68.847  1.00  0.00    -0.159 NA 
HETATM    6  H   UNL     1      -7.852  16.394  69.281  1.00  0.00     0.000 HD 
HETATM    7  C   UNL     1      -7.087  14.408  69.403  1.00  0.00    -0.113 A  
HETATM    8  C   UNL     1      -6.221  14.269  70.479  1.00  0.00    -0.157 A  
HETATM    9  C   UNL     1      -5.723  12.974  70.717  1.00  0.00    -0.160 A  
HETATM   10  C   UNL     1      -6.182  11.845  70.004  1.00  0.00    -0.123 A  
HETATM   11  C   UNL     1      -7.085  11.995  68.950  1.00  0.00    -0.104 A  
HETATM   12  C   UNL     1      -7.569  10.895  68.011  1.00  0.00    -0.092 C  
HETATM   13  C   UNL     1      -7.403  13.321  68.615  1.00  0.00    -0.101 A  
HETATM   14  C   UNL     1      -8.470   9.716  68.550  1.00  0.00    -0.118 C  
HETATM   15  C   UNL     1      -9.973   9.904  68.101  1.00  0.00    -0.175 C  
HETATM   16  N   UNL     1      -8.782  10.563  65.822  1.00  0.00    -0.171 NA 
HETATM   17  C   UNL     1      -9.914   9.849  66.487  1.00  0.00    -0.228 C  
ENDROOT
BRANCH  15  18
HETATM   18  C   UNL     1     -10.545  11.080  69.103  1.00  0.00    -0.219 C  
HETATM   19  N   UNL     1     -11.199  12.269  68.739  1.00  0.00    -0.246 N  
HETATM   20  O   UNL     1     -10.478  10.831  70.307  1.00  0.00     0.030 OA 
BRANCH  19  21
HETATM   21  C   UNL     1     -11.826  13.086  69.844  1.00  0.00    -0.307 C  
BRANCH  21  22
HETATM   22  C   UNL     1     -11.309  14.506  70.181  1.00  0.00    -0.250 C  
HETATM   23  C   UNL     1     -12.161  15.601  70.886  1.00  0.00    -0.407 C  
BRANCH  23  24
HETATM   24  N   UNL     1     -12.946  15.388  72.121  1.00  0.00    -0.363 NA 
HETATM   25  C   UNL     1     -12.038  15.483  73.292  1.00  0.00    -0.487 C  
HETATM   26  C   UNL     1     -13.589  14.063  72.205  1.00  0.00    -0.525 C  
ENDBRANCH  23  24
ENDBRANCH  21  22
ENDBRANCH  19  21
BRANCH  19  27
HETATM   27  C   UNL     1     -11.671  12.472  67.449  1.00  0.00    -0.366 C  
HETATM   28  O   UNL     1     -12.260  11.621  66.790  1.00  0.00    -0.243 OA 
BRANCH  27  29
HETATM   29  N   UNL     1     -11.487  13.750  66.961  1.00  0.00    -0.329 N  
HETATM   30  H   UNL     1     -10.919  14.418  67.481  1.00  0.00     0.000 HD 
BRANCH  29  31
HETATM   31  C   UNL     1     -12.100  14.138  65.714  1.00  0.00    -0.420 C  
HETATM   32  C   UNL     1     -11.065  14.610  64.718  1.00  0.00    -0.394 C  
ENDBRANCH  29  31
ENDBRANCH  27  29
ENDBRANCH  19  27
ENDBRANCH  15  18
BRANCH  16  33
HETATM   33  C   UNL     1      -7.605   9.775  65.392  1.00  0.00    -0.121 C  
BRANCH  33  34
HETATM   34  C   UNL     1      -7.357   9.646  63.913  1.00  0.00    -0.120 C  
HETATM   35  C   UNL     1      -7.916  10.362  62.929  1.00  0.00    -0.150 C  
ENDBRANCH  33  34
ENDBRANCH  16  33
TORSDOF 9
ENDMDL
MODEL      144
REMARK 921   NORMALIZED FREE ENERGY PREDICTED BY IDOCK:   -4.10 KCAL/MOL
REMARK 922        TOTAL FREE ENERGY PREDICTED BY IDOCK:   -6.96 KCAL/MOL
REMARK 923 INTER-LIGAND FREE ENERGY PREDICTED BY IDOCK:   -6.31 KCAL/MOL
REMARK 924 INTRA-LIGAND FREE ENERGY PREDICTED BY IDOCK:   -0.65 KCAL/MOL
REMARK 927      BINDING AFFINITY PREDICTED BY RF-SCORE:    0.00 PKD
ROOT
HETATM    1  C   UNL     1     -10.471  11.424  66.315  1.00  0.00    -0.255 C  
HETATM    2  C   UNL     1     -10.138   9.933  66.340  1.00  0.00    -0.308 C  
HETATM    3  C   UNL     1      -9.691   9.652  67.725  1.00  0.00    -0.173 A  
HETATM    4  C   UNL     1      -8.692   8.904  68.282  1.00  0.00    -0.134 A  
HETATM    5  N   UNL     1      -8.911   8.900  69.642  1.00  0.00    -0.143 NA 
HETATM    6  H   UNL     1      -8.338   8.405  70.324  1.00  0.00     0.000 HD 
HETATM    7  C   UNL     1     -10.017   9.661  69.947  1.00  0.00    -0.241 A  
HETATM    8  C   UNL     1     -10.791   9.820  71.089  1.00  0.00    -0.333 A  
HETATM    9  C   UNL     1     -11.881  10.706  70.987  1.00  0.00    -0.396 A  
HETATM   10  C   UNL     1     -12.099  11.506  69.845  1.00  0.00    -0.389 A  
HETATM   11  C   UNL     1     -11.287  11.366  68.718  1.00  0.00    -0.334 A  
HETATM   12  C   UNL     1     -11.478  12.061  67.374  1.00  0.00    -0.406 C  
HETATM   13  C   UNL     1     -10.339  10.332  68.786  1.00  0.00    -0.211 A  
HETATM   14  C   UNL     1     -11.302  13.625  67.245  1.00  0.00    -0.346 C  
HETATM   15  C   UNL     1      -9.936  13.982  66.535  1.00  0.00    -0.289 C  
HETATM   16  N   UNL     1     -10.691  11.969  64.977  1.00  0.00    -0.285 NA 
HETATM   17  C   UNL     1     -10.071  13.327  65.064  1.00  0.00    -0.227 C  
ENDROOT
BRANCH  15  18
HETATM   18  C   UNL     1      -8.802  13.738  67.706  1.00  0.00    -0.188 C  
HETATM   19  N   UNL     1      -8.601  14.497  68.871  1.00  0.00    -0.142 N  
HETATM   20  O   UNL     1      -8.130  12.714  67.589  1.00  0.00    -0.148 OA 
BRANCH  19  21
HETATM   21  C   UNL     1      -7.644  13.950  69.902  1.00  0.00     0.779 C  
BRANCH  21  22
HETATM   22  C   UNL     1      -6.675  14.884  70.670  1.00  0.00     0.251 C  
HETATM   23  C   UNL     1      -5.319  15.393  70.102  1.00  0.00    -0.126 C  
BRANCH  23  24
HETATM   24  N   UNL     1      -5.144  15.999  68.765  1.00  0.00    -0.099 NA 
HETATM   25  C   UNL     1      -6.177  17.048  68.572  1.00  0.00    -0.149 C  
HETATM   26  C   UNL     1      -5.306  15.051  67.647  1.00  0.00     0.044 C  
ENDBRANCH  23  24
ENDBRANCH  21  22
ENDBRANCH  19  21
BRANCH  19  27
HETATM   27  C   UNL     1      -9.535  15.431  69.300  1.00  0.00    -0.261 C  
HETATM   28  O   UNL     1      -9.628  16.568  68.850  1.00  0.00    -0.243 OA 
BRANCH  27  29
HETATM   29  N   UNL     1     -10.422  14.967  70.250  1.00  0.00    -0.491 N  
HETATM   30  H   UNL     1     -10.373  13.998  70.565  1.00  0.00     0.000 HD 
BRANCH  29  31
HETATM   31  C   UNL     1     -11.420  15.854  70.796  1.00  0.00    -0.407 C  
HETATM   32  C   UNL     1     -12.774  15.184  70.858  1.00  0.00    -0.464 C  
ENDBRANCH  29  31
ENDBRANCH  27  29
ENDBRANCH  19  27
ENDBRANCH  15  18
BRANCH  16  33
HETATM   33  C   UNL     1     -12.120  11.867  64.606  1.00  0.00    -0.137 C  
BRANCH  33  34
HETATM   34  C   UNL     1     -12.838  13.140  64.247  1.00  0.00    -0.066 C  
HETATM   35  C   UNL     1     -12.337  14.203  63.603  1.00  0.00     0.006 C  
ENDBRANCH  33  34
ENDBRANCH  16  33
TORSDOF 9
ENDMDL
MODEL      145
REMARK 921   NORMALIZED FREE ENERGY PREDICTED BY IDOCK:   -4.08 KCAL/MOL
REMARK 922        TOTAL FREE ENERGY PREDICTED BY IDOCK:   -6.93 KCAL/MOL
REMARK 923 INTER-LIGAND FREE ENERGY PREDICTED BY IDOCK:   -5.40 KCAL/MOL
REMARK 924 INTRA-LIGAND FREE ENERGY PREDICTED BY IDOCK:   -1.54 KCAL/MOL
REMARK 927      BINDING AFFINITY PREDICTED BY RF-SCORE:    0.00 PKD
ROOT
HETATM    1  C   UNL     1     -10.765   7.282  72.021  1.00  0.00    -0.211 C  
HETATM    2  C   UNL     1     -11.033   6.160  73.024  1.00  0.00    -0.278 C  
HETATM    3  C   UNL     1      -9.710   5.551  73.297  1.00  0.00    -0.160 A  
HETATM    4  C   UNL     1      -9.250   4.274  73.448  1.00  0.00    -0.101 A  
HETATM    5  N   UNL     1      -7.943   4.370  73.872  1.00  0.00    -0.092 NA 
HETATM    6  H   UNL     1      -7.340   3.577  74.090  1.00  0.00     0.000 HD 
HETATM    7  C   UNL     1      -7.568   5.692  73.959  1.00  0.00    -0.093 A  
HETATM    8  C   UNL     1      -6.481   6.349  74.519  1.00  0.00    -0.074 A  
HETATM    9  C   UNL     1      -6.475   7.753  74.409  1.00  0.00    -0.106 A  
HETATM   10  C   UNL     1      -7.434   8.455  73.647  1.00  0.00    -0.140 A  
HETATM   11  C   UNL     1      -8.499   7.776  73.053  1.00  0.00    -0.207 A  
HETATM   12  C   UNL     1      -9.675   8.407  72.315  1.00  0.00    -0.386 C  
HETATM   13  C   UNL     1      -8.581   6.406  73.354  1.00  0.00    -0.128 A  
HETATM   14  C   UNL     1      -9.454   9.158  70.943  1.00  0.00    -0.343 C  
HETATM   15  C   UNL     1      -9.965   8.281  69.732  1.00  0.00    -0.191 C  
HETATM   16  N   UNL     1     -11.969   7.851  71.420  1.00  0.00    -0.297 NA 
HETATM   17  C   UNL     1     -11.548   8.108  70.008  1.00  0.00     0.189 C  
ENDROOT
BRANCH  15  18
HETATM   18  C   UNL     1      -8.790   7.142  69.540  1.00  0.00    -0.137 C  
HETATM   19  N   UNL     1      -7.460   7.348  69.140  1.00  0.00    -0.096 N  
HETATM   20  O   UNL     1      -9.094   6.002  69.889  1.00  0.00    -0.139 OA 
BRANCH  19  21
HETATM   21  C   UNL     1      -6.511   6.178  69.248  1.00  0.00    -0.043 C  
BRANCH  21  22
HETATM   22  C   UNL     1      -6.109   5.354  67.999  1.00  0.00    -0.026 C  
HETATM   23  C   UNL     1      -7.104   4.505  67.156  1.00  0.00    -0.068 C  
BRANCH  23  24
HETATM   24  N   UNL     1      -8.404   4.995  66.649  1.00  0.00    -0.108 NA 
HETATM   25  C   UNL     1      -9.461   4.017  67.010  1.00  0.00    -0.199 C  
HETATM   26  C   UNL     1      -8.462   5.142  65.183  1.00  0.00    -0.147 C  
ENDBRANCH  23  24
ENDBRANCH  21  22
ENDBRANCH  19  21
BRANCH  19  27
HETATM   27  C   UNL     1      -6.902   8.619  69.096  1.00  0.00    -0.055 C  
HETATM   28  O   UNL     1      -6.308   9.142  70.033  1.00  0.00    -0.036 OA 
BRANCH  27  29
HETATM   29  N   UNL     1      -7.006   9.254  67.875  1.00  0.00    -0.076 N  
HETATM   30  H   UNL     1      -6.582   8.838  67.045  1.00  0.00     0.000 HD 
BRANCH  29  31
HETATM   31  C   UNL     1      -7.715  10.506  67.774  1.00  0.00    -0.093 C  
HETATM   32  C   UNL     1      -8.259  10.717  66.379  1.00  0.00    -0.146 C  
ENDBRANCH  29  31
ENDBRANCH  27  29
ENDBRANCH  19  27
ENDBRANCH  15  18
BRANCH  16  33
HETATM   33  C   UNL     1     -12.462   8.989  72.228  1.00  0.00    -0.357 C  
BRANCH  33  34
HETATM   34  C   UNL     1     -13.159  10.108  71.501  1.00  0.00    -0.529 C  
HETATM   35  C   UNL     1     -13.042  11.423  71.729  1.00  0.00    -0.523 C  
ENDBRANCH  33  34
ENDBRANCH  16  33
TORSDOF 9
ENDMDL
MODEL      146
REMARK 921   NORMALIZED FREE ENERGY PREDICTED BY IDOCK:   -4.06 KCAL/MOL
REMARK 922        TOTAL FREE ENERGY PREDICTED BY IDOCK:   -6.91 KCAL/MOL
REMARK 923 INTER-LIGAND FREE ENERGY PREDICTED BY IDOCK:   -5.53 KCAL/MOL
REMARK 924 INTRA-LIGAND FREE ENERGY PREDICTED BY IDOCK:   -1.38 KCAL/MOL
REMARK 927      BINDING AFFINITY PREDICTED BY RF-SCORE:    0.00 PKD
ROOT
HETATM    1  C   UNL     1      -9.285   5.665  72.253  1.00  0.00    -0.145 C  
HETATM    2  C   UNL     1      -8.145   4.901  71.579  1.00  0.00    -0.111 C  
HETATM    3  C   UNL     1      -7.183   5.939  71.140  1.00  0.00    -0.074 A  
HETATM    4  C   UNL     1      -6.428   6.140  70.018  1.00  0.00    -0.039 A  
HETATM    5  N   UNL     1      -5.589   7.198  70.289  1.00  0.00    -0.023 NA 
HETATM    6  H   UNL     1      -4.891   7.569  69.645  1.00  0.00     0.000 HD 
HETATM    7  C   UNL     1      -5.829   7.683  71.555  1.00  0.00    -0.035 A  
HETATM    8  C   UNL     1      -5.155   8.561  72.393  1.00  0.00    -0.039 A  
HETATM    9  C   UNL     1      -5.736   8.789  73.655  1.00  0.00    -0.117 A  
HETATM   10  C   UNL     1      -7.005   8.281  74.007  1.00  0.00    -0.182 A  
HETATM   11  C   UNL     1      -7.691   7.431  73.136  1.00  0.00    -0.110 A  
HETATM   12  C   UNL     1      -9.000   6.704  73.426  1.00  0.00    -0.140 C  
HETATM   13  C   UNL     1      -6.990   7.067  71.975  1.00  0.00    -0.065 A  
HETATM   14  C   UNL     1     -10.344   7.513  73.618  1.00  0.00    -0.311 C  
HETATM   15  C   UNL     1     -11.269   7.376  72.345  1.00  0.00    -0.337 C  
HETATM   16  N   UNL     1     -10.467   4.853  72.537  1.00  0.00    -0.200 NA 
HETATM   17  C   UNL     1     -11.594   5.795  72.258  1.00  0.00    -0.241 C  
ENDROOT
BRANCH  15  18
HETATM   18  C   UNL     1     -10.576   8.381  71.238  1.00  0.00    -0.222 C  
HETATM   19  N   UNL     1     -10.246   8.084  69.905  1.00  0.00    -0.199 N  
HETATM   20  O   UNL     1     -10.431   9.549  71.598  1.00  0.00    -0.258 OA 
BRANCH  19  21
HETATM   21  C   UNL     1      -9.822   9.232  69.020  1.00  0.00    -0.166 C  
BRANCH  21  22
HETATM   22  C   UNL     1     -10.865  10.061  68.229  1.00  0.00    -0.286 C  
HETATM   23  C   UNL     1     -10.696  11.566  67.873  1.00  0.00    -0.200 C  
BRANCH  23  24
HETATM   24  N   UNL     1      -9.485  12.153  67.260  1.00  0.00    -0.181 NA 
HETATM   25  C   UNL     1      -9.024  11.267  66.161  1.00  0.00    -0.202 C  
HETATM   26  C   UNL     1      -8.345  12.287  68.186  1.00  0.00    -0.174 C  
ENDBRANCH  23  24
ENDBRANCH  21  22
ENDBRANCH  19  21
BRANCH  19  27
HETATM   27  C   UNL     1     -10.713   6.936  69.279  1.00  0.00    -0.238 C  
HETATM   28  O   UNL     1     -11.890   6.592  69.261  1.00  0.00    -0.140 OA 
BRANCH  27  29
HETATM   29  N   UNL     1      -9.750   6.213  68.604  1.00  0.00    -0.126 N  
HETATM   30  H   UNL     1      -8.944   5.842  69.107  1.00  0.00     0.000 HD 
BRANCH  29  31
HETATM   31  C   UNL     1      -9.885   5.985  67.186  1.00  0.00    -0.142 C  
HETATM   32  C   UNL     1      -8.591   6.272  66.459  1.00  0.00    -0.128 C  
ENDBRANCH  29  31
ENDBRANCH  27  29
ENDBRANCH  19  27
ENDBRANCH  15  18
BRANCH  16  33
HETATM   33  C   UNL     1     -10.368   4.248  73.884  1.00  0.00    -0.201 C  
BRANCH  33  34
HETATM   34  C   UNL     1     -10.685   2.782  74.013  1.00  0.00    -0.268 C  
HETATM   35  C   UNL     1     -10.577   1.840  73.068  1.00  0.00    -0.226 C  
ENDBRANCH  33  34
ENDBRANCH  16  33
TORSDOF 9
ENDMDL
MODEL      147
REMARK 921   NORMALIZED FREE ENERGY PREDICTED BY IDOCK:   -4.01 KCAL/MOL
REMARK 922        TOTAL FREE ENERGY PREDICTED BY IDOCK:   -6.82 KCAL/MOL
REMARK 923 INTER-LIGAND FREE ENERGY PREDICTED BY IDOCK:   -5.99 KCAL/MOL
REMARK 924 INTRA-LIGAND FREE ENERGY PREDICTED BY IDOCK:   -0.83 KCAL/MOL
REMARK 927      BINDING AFFINITY PREDICTED BY RF-SCORE:    0.00 PKD
ROOT
HETATM    1  C   UNL     1      -7.533   8.958  66.635  1.00  0.00    -0.086 C  
HETATM    2  C   UNL     1      -6.688   8.231  67.681  1.00  0.00    -0.062 C  
HETATM    3  C   UNL     1      -7.072   8.828  68.981  1.00  0.00    -0.065 A  
HETATM    4  C   UNL     1      -6.392   9.218  70.101  1.00  0.00    -0.047 A  
HETATM    5  N   UNL     1      -7.338   9.531  71.051  1.00  0.00    -0.319 NA 
HETATM    6  H   UNL     1      -7.132   9.836  72.002  1.00  0.00     0.000 HD 
HETATM    7  C   UNL     1      -8.604   9.372  70.532  1.00  0.00    -0.223 A  
HETATM    8  C   UNL     1      -9.875   9.337  71.089  1.00  0.00    -0.342 A  
HETATM    9  C   UNL     1     -10.943   9.130  70.195  1.00  0.00    -0.267 A  
HETATM   10  C   UNL     1     -10.763   9.107  68.795  1.00  0.00    -0.162 A  
HETATM   11  C   UNL     1      -9.481   9.185  68.246  1.00  0.00    -0.152 A  
HETATM   12  C   UNL     1      -9.118   9.044  66.771  1.00  0.00    -0.178 C  
HETATM   13  C   UNL     1      -8.428   9.188  69.176  1.00  0.00    -0.132 A  
HETATM   14  C   UNL     1      -9.580  10.131  65.722  1.00  0.00    -0.288 C  
HETATM   15  C   UNL     1      -8.369  11.050  65.294  1.00  0.00     0.056 C  
HETATM   16  N   UNL     1      -7.130   8.702  65.254  1.00  0.00    -0.081 NA 
HETATM   17  C   UNL     1      -7.325  10.032  64.598  1.00  0.00    -0.143 C  
ENDROOT
BRANCH  15  18
HETATM   18  C   UNL     1      -8.168  12.067  66.574  1.00  0.00     0.014 C  
HETATM   19  N   UNL     1      -8.944  13.191  66.903  1.00  0.00    -0.226 N  
HETATM   20  O   UNL     1      -7.302  11.737  67.384  1.00  0.00    -0.117 OA 
BRANCH  19  21
HETATM   21  C   UNL     1      -8.701  13.838  68.245  1.00  0.00    -0.179 C  
BRANCH  21  22
HETATM   22  C   UNL     1      -9.383  15.176  68.625  1.00  0.00    -0.199 C  
HETATM   23  C   UNL     1      -8.612  16.460  69.047  1.00  0.00    -0.230 C  
BRANCH  23  24
HETATM   24  N   UNL     1      -7.469  17.035  68.304  1.00  0.00    -0.198 NA 
HETATM   25  C   UNL     1      -7.285  18.448  68.721  1.00  0.00    -0.284 C  
HETATM   26  C   UNL     1      -7.651  17.057  66.841  1.00  0.00    -0.209 C  
ENDBRANCH  23  24
ENDBRANCH  21  22
ENDBRANCH  19  21
BRANCH  19  27
HETATM   27  C   UNL     1     -10.167  13.433  66.291  1.00  0.00    -0.298 C  
HETATM   28  O   UNL     1     -11.248  13.082  66.752  1.00  0.00    -0.279 OA 
BRANCH  27  29
HETATM   29  N   UNL     1     -10.095  14.170  65.126  1.00  0.00    -0.536 N  
HETATM   30  H   UNL     1      -9.695  13.757  64.284  1.00  0.00     0.000 HD 
BRANCH  29  31
HETATM   31  C   UNL     1     -10.587  15.526  65.102  1.00  0.00    -0.431 C  
HETATM   32  C   UNL     1     -11.954  15.602  64.461  1.00  0.00    -0.120 C  
ENDBRANCH  29  31
ENDBRANCH  27  29
ENDBRANCH  19  27
ENDBRANCH  15  18
BRANCH  16  33
HETATM   33  C   UNL     1      -7.859   7.534  64.711  1.00  0.00    -0.126 C  
BRANCH  33  34
HETATM   34  C   UNL     1      -7.081   6.561  63.865  1.00  0.00    -0.051 C  
HETATM   35  C   UNL     1      -5.760   6.548  63.646  1.00  0.00    -0.030 C  
ENDBRANCH  33  34
ENDBRANCH  16  33
TORSDOF 9
ENDMDL
MODEL      148
REMARK 921   NORMALIZED FREE ENERGY PREDICTED BY IDOCK:   -3.99 KCAL/MOL
REMARK 922        TOTAL FREE ENERGY PREDICTED BY IDOCK:   -6.80 KCAL/MOL
REMARK 923 INTER-LIGAND FREE ENERGY PREDICTED BY IDOCK:   -6.01 KCAL/MOL
REMARK 924 INTRA-LIGAND FREE ENERGY PREDICTED BY IDOCK:   -0.79 KCAL/MOL
REMARK 927      BINDING AFFINITY PREDICTED BY RF-SCORE:    0.00 PKD
ROOT
HETATM    1  C   UNL     1      -8.205  16.229  67.278  1.00  0.00    -0.172 C  
HETATM    2  C   UNL     1      -9.184  16.541  66.146  1.00  0.00    -0.338 C  
HETATM    3  C   UNL     1      -9.973  15.301  65.956  1.00  0.00    -0.344 A  
HETATM    4  C   UNL     1     -10.434  14.608  64.872  1.00  0.00    -0.387 A  
HETATM    5  N   UNL     1     -11.270  13.626  65.354  1.00  0.00    -0.295 NA 
HETATM    6  H   UNL     1     -11.781  12.959  64.777  1.00  0.00     0.000 HD 
HETATM    7  C   UNL     1     -11.315  13.674  66.730  1.00  0.00    -0.328 A  
HETATM    8  C   UNL     1     -12.132  13.087  67.687  1.00  0.00    -0.262 A  
HETATM    9  C   UNL     1     -11.857  13.413  69.028  1.00  0.00    -0.378 A  
HETATM   10  C   UNL     1     -10.727  14.172  69.405  1.00  0.00    -0.119 A  
HETATM   11  C   UNL     1      -9.890  14.723  68.432  1.00  0.00    -0.220 A  
HETATM   12  C   UNL     1      -8.716  15.665  68.678  1.00  0.00    -0.193 C  
HETATM   13  C   UNL     1     -10.312  14.543  67.104  1.00  0.00    -0.265 A  
HETATM   14  C   UNL     1      -7.425  15.162  69.434  1.00  0.00    -0.204 C  
HETATM   15  C   UNL     1      -6.232  14.938  68.423  1.00  0.00    -0.104 C  
HETATM   16  N   UNL     1      -7.157  17.232  67.459  1.00  0.00    -0.158 NA 
HETATM   17  C   UNL     1      -5.959  16.404  67.800  1.00  0.00    -0.132 C  
ENDROOT
BRANCH  15  18
HETATM   18  C   UNL     1      -6.603  13.518  67.675  1.00  0.00    -0.168 C  
HETATM   19  N   UNL     1      -6.429  12.217  68.175  1.00  0.00    -0.057 N  
HETATM   20  O   UNL     1      -7.195  13.623  66.600  1.00  0.00     0.576 OA 
BRANCH  19  21
HETATM   21  C   UNL     1      -7.048  11.082  67.396  1.00  0.00    -0.095 C  
BRANCH  21  22
HETATM   22  C   UNL     1      -8.585  10.957  67.247  1.00  0.00    -0.128 C  
HETATM   23  C   UNL     1      -9.380   9.637  67.472  1.00  0.00    -0.130 C  
BRANCH  23  24
HETATM   24  N   UNL     1      -9.232   8.761  68.653  1.00  0.00    -0.141 NA 
HETATM   25  C   UNL     1      -8.281   7.668  68.328  1.00  0.00    -0.125 C  
HETATM   26  C   UNL     1     -10.483   8.105  69.077  1.00  0.00    -0.198 C  
ENDBRANCH  23  24
ENDBRANCH  21  22
ENDBRANCH  19  21
BRANCH  19  27
HETATM   27  C   UNL     1      -6.136  11.987  69.513  1.00  0.00    -0.113 C  
HETATM   28  O   UNL     1      -5.355  12.664  70.173  1.00  0.00    -0.090 OA 
BRANCH  27  29
HETATM   29  N   UNL     1      -6.847  10.955  70.091  1.00  0.00    -0.292 N  
HETATM   30  H   UNL     1      -7.842  10.847  69.895  1.00  0.00     0.000 HD 
BRANCH  29  31
HETATM   31  C   UNL     1      -6.180  10.029  70.974  1.00  0.00    -0.005 C  
HETATM   32  C   UNL     1      -5.270   9.097  70.205  1.00  0.00    -0.027 C  
ENDBRANCH  29  31
ENDBRANCH  27  29
ENDBRANCH  19  27
ENDBRANCH  15  18
BRANCH  16  33
HETATM   33  C   UNL     1      -7.594  18.270  68.417  1.00  0.00    -0.290 C  
BRANCH  33  34
HETATM   34  C   UNL     1      -8.329  19.462  67.865  1.00  0.00    -0.343 C  
HETATM   35  C   UNL     1      -9.635  19.736  67.975  1.00  0.00    -0.489 C  
ENDBRANCH  33  34
ENDBRANCH  16  33
TORSDOF 9
ENDMDL
MODEL      149
REMARK 921   NORMALIZED FREE ENERGY PREDICTED BY IDOCK:   -3.91 KCAL/MOL
REMARK 922        TOTAL FREE ENERGY PREDICTED BY IDOCK:   -6.68 KCAL/MOL
REMARK 923 INTER-LIGAND FREE ENERGY PREDICTED BY IDOCK:   -5.64 KCAL/MOL
REMARK 924 INTRA-LIGAND FREE ENERGY PREDICTED BY IDOCK:   -1.04 KCAL/MOL
REMARK 927      BINDING AFFINITY PREDICTED BY RF-SCORE:    0.00 PKD
ROOT
HETATM    1  C   UNL     1      -6.809  13.321  69.117  1.00  0.00    -0.067 C  
HETATM    2  C   UNL     1      -6.220  12.323  70.113  1.00  0.00    -0.048 C  
HETATM    3  C   UNL     1      -6.690  10.992  69.661  1.00  0.00    -0.137 A  
HETATM    4  C   UNL     1      -7.163   9.874  70.287  1.00  0.00    -0.154 A  
HETATM    5  N   UNL     1      -7.260   8.891  69.327  1.00  0.00    -0.064 NA 
HETATM    6  H   UNL     1      -7.566   7.935  69.499  1.00  0.00     0.000 HD 
HETATM    7  C   UNL     1      -6.882   9.389  68.099  1.00  0.00    -0.064 A  
HETATM    8  C   UNL     1      -6.589   8.806  66.874  1.00  0.00    -0.061 A  
HETATM    9  C   UNL     1      -6.214   9.684  65.839  1.00  0.00    -0.069 A  
HETATM   10  C   UNL     1      -6.273  11.087  65.980  1.00  0.00    -0.075 A  
HETATM   11  C   UNL     1      -6.610  11.661  67.208  1.00  0.00    -0.122 A  
HETATM   12  C   UNL     1      -6.589  13.147  67.548  1.00  0.00    -0.159 C  
HETATM   13  C   UNL     1      -6.780  10.754  68.267  1.00  0.00    -0.063 A  
HETATM   14  C   UNL     1      -7.603  14.144  66.860  1.00  0.00     0.424 C  
HETATM   15  C   UNL     1      -8.749  14.563  67.864  1.00  0.00    -0.165 C  
HETATM   16  N   UNL     1      -6.680  14.720  69.520  1.00  0.00    -0.148 NA 
HETATM   17  C   UNL     1      -7.970  15.320  69.061  1.00  0.00    -0.195 C  
ENDROOT
BRANCH  15  18
HETATM   18  C   UNL     1      -9.742  13.249  67.907  1.00  0.00    -0.224 C  
HETATM   19  N   UNL     1     -10.872  13.060  68.720  1.00  0.00    -0.254 N  
HETATM   20  O   UNL     1      -9.523  12.389  67.055  1.00  0.00    -0.199 OA 
BRANCH  19  21
HETATM   21  C   UNL     1     -11.751  11.867  68.425  1.00  0.00    -0.326 C  
BRANCH  21  22
HETATM   22  C   UNL     1     -11.451  10.479  69.042  1.00  0.00    -0.304 C  
HETATM   23  C   UNL     1     -11.862  10.055  70.483  1.00  0.00    -0.303 C  
BRANCH  23  24
HETATM   24  N   UNL     1     -13.216  10.226  71.052  1.00  0.00    -0.375 NA 
HETATM   25  C   UNL     1     -13.216  11.412  71.947  1.00  0.00    -0.380 C  
HETATM   26  C   UNL     1     -13.672   9.090  71.874  1.00  0.00    -0.441 C  
ENDBRANCH  23  24
ENDBRANCH  21  22
ENDBRANCH  19  21
BRANCH  19  27
HETATM   27  C   UNL     1     -11.438  14.108  69.434  1.00  0.00    -0.288 C  
HETATM   28  O   UNL     1     -11.519  14.143  70.657  1.00  0.00    -0.171 OA 
BRANCH  27  29
HETATM   29  N   UNL     1     -11.862  15.170  68.662  1.00  0.00    -0.492 N  
HETATM   30  H   UNL     1     -12.331  15.000  67.772  1.00  0.00     0.000 HD 
BRANCH  29  31
HETATM   31  C   UNL     1     -11.641  16.522  69.115  1.00  0.00     0.012 C  
HETATM   32  C   UNL     1     -10.883  17.328  68.085  1.00  0.00    -0.294 C  
ENDBRANCH  29  31
ENDBRANCH  27  29
ENDBRANCH  19  27
ENDBRANCH  15  18
BRANCH  16  33
HETATM   33  C   UNL     1      -5.414  15.291  69.009  1.00  0.00    -0.098 C  
BRANCH  33  34
HETATM   34  C   UNL     1      -5.314  16.790  68.916  1.00  0.00    -0.128 C  
HETATM   35  C   UNL     1      -5.220  17.664  69.927  1.00  0.00    -0.205 C  
ENDBRANCH  33  34
ENDBRANCH  16  33
TORSDOF 9
ENDMDL
MODEL      150
REMARK 921   NORMALIZED FREE ENERGY PREDICTED BY IDOCK:   -3.91 KCAL/MOL
REMARK 922        TOTAL FREE ENERGY PREDICTED BY IDOCK:   -6.67 KCAL/MOL
REMARK 923 INTER-LIGAND FREE ENERGY PREDICTED BY IDOCK:   -5.53 KCAL/MOL
REMARK 924 INTRA-LIGAND FREE ENERGY PREDICTED BY IDOCK:   -1.14 KCAL/MOL
REMARK 927      BINDING AFFINITY PREDICTED BY RF-SCORE:    0.00 PKD
ROOT
HETATM    1  C   UNL     1      -7.595  15.435  67.660  1.00  0.00    -0.167 C  
HETATM    2  C   UNL     1      -8.305  16.209  66.550  1.00  0.00    -0.352 C  
HETATM    3  C   UNL     1      -9.401  15.324  66.092  1.00  0.00    -0.360 A  
HETATM    4  C   UNL     1      -9.923  14.987  64.875  1.00  0.00    -0.032 A  
HETATM    5  N   UNL     1     -11.062  14.252  65.120  1.00  0.00    -0.333 NA 
HETATM    6  H   UNL     1     -11.681  13.877  64.402  1.00  0.00     0.000 HD 
HETATM    7  C   UNL     1     -11.244  14.097  66.476  1.00  0.00    -0.330 A  
HETATM    8  C   UNL     1     -12.299  13.653  67.261  1.00  0.00    -0.195 A  
HETATM    9  C   UNL     1     -12.090  13.663  68.653  1.00  0.00    -0.325 A  
HETATM   10  C   UNL     1     -10.835  13.963  69.227  1.00  0.00    -0.170 A  
HETATM   11  C   UNL     1      -9.769  14.369  68.421  1.00  0.00    -0.226 A  
HETATM   12  C   UNL     1      -8.403  14.848  68.902  1.00  0.00    -0.178 C  
HETATM   13  C   UNL     1     -10.075  14.540  67.061  1.00  0.00    -0.254 A  
HETATM   14  C   UNL     1      -7.412  13.855  69.626  1.00  0.00     0.393 C  
HETATM   15  C   UNL     1      -6.235  13.430  68.662  1.00  0.00    -0.088 C  
HETATM   16  N   UNL     1      -6.323  16.019  68.081  1.00  0.00    -0.114 NA 
HETATM   17  C   UNL     1      -5.472  14.817  68.334  1.00  0.00    -0.111 C  
ENDROOT
BRANCH  15  18
HETATM   18  C   UNL     1      -6.927  12.333  67.647  1.00  0.00    -0.128 C  
HETATM   19  N   UNL     1      -7.552  11.124  67.994  1.00  0.00    -0.097 N  
HETATM   20  O   UNL     1      -6.988  12.669  66.464  1.00  0.00     0.387 OA 
BRANCH  19  21
HETATM   21  C   UNL     1      -8.306  10.393  66.909  1.00  0.00    -0.124 C  
BRANCH  21  22
HETATM   22  C   UNL     1      -7.891   8.967  66.467  1.00  0.00    -0.100 C  
HETATM   23  C   UNL     1      -8.287   8.324  65.106  1.00  0.00    -0.157 C  
BRANCH  23  24
HETATM   24  N   UNL     1      -8.132   8.982  63.791  1.00  0.00    -0.155 NA 
HETATM   25  C   UNL     1      -6.838   9.711  63.766  1.00  0.00    -0.112 C  
HETATM   26  C   UNL     1      -9.174   9.981  63.489  1.00  0.00    -0.277 C  
ENDBRANCH  23  24
ENDBRANCH  21  22
ENDBRANCH  19  21
BRANCH  19  27
HETATM   27  C   UNL     1      -7.884  10.829  69.310  1.00  0.00    -0.122 C  
HETATM   28  O   UNL     1      -7.063  10.636  70.200  1.00  0.00    -0.170 OA 
BRANCH  27  29
HETATM   29  N   UNL     1      -9.238  10.829  69.578  1.00  0.00    -0.409 N  
HETATM   30  H   UNL     1      -9.818  11.615  69.285  1.00  0.00     0.000 HD 
BRANCH  29  31
HETATM   31  C   UNL     1      -9.832   9.714  70.276  1.00  0.00    -0.266 C  
HETATM   32  C   UNL     1     -10.523   8.773  69.316  1.00  0.00    -0.228 C  
ENDBRANCH  29  31
ENDBRANCH  27  29
ENDBRANCH  19  27
ENDBRANCH  15  18
BRANCH  16  33
HETATM   33  C   UNL     1      -6.536  16.980  69.187  1.00  0.00    -0.221 C  
BRANCH  33  34
HETATM   34  C   UNL     1      -6.842  18.407  68.819  1.00  0.00    -0.283 C  
HETATM   35  C   UNL     1      -6.169  19.190  67.967  1.00  0.00    -0.228 C  
ENDBRANCH  33  34
ENDBRANCH  16  33
TORSDOF 9
ENDMDL
MODEL      151
REMARK 921   NORMALIZED FREE ENERGY PREDICTED BY IDOCK:   -3.84 KCAL/MOL
REMARK 922        TOTAL FREE ENERGY PREDICTED BY IDOCK:   -6.57 KCAL/MOL
REMARK 923 INTER-LIGAND FREE ENERGY PREDICTED BY IDOCK:   -5.61 KCAL/MOL
REMARK 924 INTRA-LIGAND FREE ENERGY PREDICTED BY IDOCK:   -0.96 KCAL/MOL
REMARK 927      BINDING AFFINITY PREDICTED BY RF-SCORE:    0.00 PKD
ROOT
HETATM    1  C   UNL     1      -9.029  10.864  68.230  1.00  0.00    -0.150 C  
HETATM    2  C   UNL     1     -10.283  11.590  68.715  1.00  0.00    -0.204 C  
HETATM    3  C   UNL     1     -11.040  10.588  69.500  1.00  0.00    -0.320 A  
HETATM    4  C   UNL     1     -12.359  10.248  69.614  1.00  0.00     0.112 A  
HETATM    5  N   UNL     1     -12.450   9.350  70.655  1.00  0.00    -0.492 NA 
HETATM    6  H   UNL     1     -13.316   8.932  70.991  1.00  0.00     0.000 HD 
HETATM    7  C   UNL     1     -11.200   9.100  71.176  1.00  0.00    -0.325 A  
HETATM    8  C   UNL     1     -10.746   8.472  72.328  1.00  0.00    -0.411 A  
HETATM    9  C   UNL     1      -9.351   8.437  72.512  1.00  0.00    -0.346 A  
HETATM   10  C   UNL     1      -8.446   8.877  71.521  1.00  0.00    -0.182 A  
HETATM   11  C   UNL     1      -8.918   9.468  70.347  1.00  0.00    -0.291 A  
HETATM   12  C   UNL     1      -8.069  10.105  69.251  1.00  0.00    -0.149 C  
HETATM   13  C   UNL     1     -10.307   9.668  70.291  1.00  0.00    -0.336 A  
HETATM   14  C   UNL     1      -7.110   9.221  68.361  1.00  0.00    -0.072 C  
HETATM   15  C   UNL     1      -7.713   9.015  66.916  1.00  0.00    -0.098 C  
HETATM   16  N   UNL     1      -8.263  11.595  67.222  1.00  0.00    -0.152 NA 
HETATM   17  C   UNL     1      -7.798  10.509  66.305  1.00  0.00    -0.141 C  
ENDROOT
BRANCH  15  18
HETATM   18  C   UNL     1      -8.896   7.888  67.133  1.00  0.00    -0.132 C  
HETATM   19  N   UNL     1      -8.744   6.569  67.591  1.00  0.00    -0.115 N  
HETATM   20  O   UNL     1     -10.048   8.290  66.973  1.00  0.00    -0.226 OA 
BRANCH  19  21
HETATM   21  C   UNL     1     -10.000   5.796  67.918  1.00  0.00    -0.137 C  
BRANCH  21  22
HETATM   22  C   UNL     1     -10.653   4.852  66.878  1.00  0.00    -0.119 C  
HETATM   23  C   UNL     1     -10.108   4.631  65.437  1.00  0.00    -0.148 C  
BRANCH  23  24
HETATM   24  N   UNL     1      -8.699   4.326  65.110  1.00  0.00    -0.122 NA 
HETATM   25  C   UNL     1      -8.143   5.433  64.292  1.00  0.00    -0.123 C  
HETATM   26  C   UNL     1      -8.517   3.096  64.317  1.00  0.00    -0.089 C  
ENDBRANCH  23  24
ENDBRANCH  21  22
ENDBRANCH  19  21
BRANCH  19  27
HETATM   27  C   UNL     1      -7.558   6.131  68.166  1.00  0.00    -0.098 C  
HETATM   28  O   UNL     1      -7.039   6.648  69.150  1.00  0.00    -0.082 OA 
BRANCH  27  29
HETATM   29  N   UNL     1      -7.014   5.005  67.582  1.00  0.00    -0.060 N  
HETATM   30  H   UNL     1      -6.745   5.019  66.598  1.00  0.00     0.000 HD 
BRANCH  29  31
HETATM   31  C   UNL     1      -6.826   3.809  68.366  1.00  0.00    -0.047 C  
HETATM   32  C   UNL     1      -6.381   2.652  67.501  1.00  0.00    -0.032 C  
ENDBRANCH  29  31
ENDBRANCH  27  29
ENDBRANCH  19  27
ENDBRANCH  15  18
BRANCH  16  33
HETATM   33  C   UNL     1      -7.248  12.456  67.869  1.00  0.00    -0.110 C  
BRANCH  33  34
HETATM   34  C   UNL     1      -7.463  13.945  67.815  1.00  0.00    -0.174 C  
HETATM   35  C   UNL     1      -8.375  14.610  67.093  1.00  0.00    -0.236 C  
ENDBRANCH  33  34
ENDBRANCH  16  33
TORSDOF 9
ENDMDL
MODEL      152
REMARK 921   NORMALIZED FREE ENERGY PREDICTED BY IDOCK:   -3.83 KCAL/MOL
REMARK 922        TOTAL FREE ENERGY PREDICTED BY IDOCK:   -6.56 KCAL/MOL
REMARK 923 INTER-LIGAND FREE ENERGY PREDICTED BY IDOCK:   -5.77 KCAL/MOL
REMARK 924 INTRA-LIGAND FREE ENERGY PREDICTED BY IDOCK:   -0.79 KCAL/MOL
REMARK 927      BINDING AFFINITY PREDICTED BY RF-SCORE:    0.00 PKD
ROOT
HETATM    1  C   UNL     1     -10.502   7.854  69.567  1.00  0.00    -0.226 C  
HETATM    2  C   UNL     1     -11.036   6.459  69.242  1.00  0.00    -0.437 C  
HETATM    3  C   UNL     1     -10.500   6.135  67.899  1.00  0.00    -0.286 A  
HETATM    4  C   UNL     1     -11.006   5.542  66.777  1.00  0.00    -0.023 A  
HETATM    5  N   UNL     1      -9.949   5.363  65.912  1.00  0.00    -0.360 NA 
HETATM    6  H   UNL     1     -10.013   4.922  64.995  1.00  0.00     0.000 HD 
HETATM    7  C   UNL     1      -8.792   5.864  66.466  1.00  0.00    -0.128 A  
HETATM    8  C   UNL     1      -7.446   5.758  66.142  1.00  0.00    -0.082 A  
HETATM    9  C   UNL     1      -6.544   6.423  66.994  1.00  0.00    -0.058 A  
HETATM   10  C   UNL     1      -6.976   7.275  68.034  1.00  0.00    -0.079 A  
HETATM   11  C   UNL     1      -8.336   7.405  68.322  1.00  0.00    -0.125 A  
HETATM   12  C   UNL     1      -8.944   8.179  69.488  1.00  0.00    -0.151 C  
HETATM   13  C   UNL     1      -9.190   6.570  67.581  1.00  0.00    -0.113 A  
HETATM   14  C   UNL     1      -8.831   9.752  69.554  1.00  0.00    -0.202 C  
HETATM   15  C   UNL     1     -10.210  10.432  69.191  1.00  0.00    -0.239 C  
HETATM   16  N   UNL     1     -11.117   8.475  70.739  1.00  0.00    -0.250 NA 
HETATM   17  C   UNL     1     -11.223   9.911  70.338  1.00  0.00    -0.313 C  
ENDROOT
BRANCH  15  18
HETATM   18  C   UNL     1     -10.302  10.298  67.552  1.00  0.00    -0.229 C  
HETATM   19  N   UNL     1      -9.464  10.898  66.597  1.00  0.00    -0.176 N  
HETATM   20  O   UNL     1     -11.137   9.497  67.130  1.00  0.00    -0.078 OA 
BRANCH  19  21
HETATM   21  C   UNL     1      -9.610  10.450  65.162  1.00  0.00    -0.271 C  
BRANCH  21  22
HETATM   22  C   UNL     1      -9.219   9.016  64.727  1.00  0.00     0.005 C  
HETATM   23  C   UNL     1      -7.820   8.622  64.171  1.00  0.00    -0.141 C  
BRANCH  23  24
HETATM   24  N   UNL     1      -6.534   8.984  64.804  1.00  0.00    -0.066 NA 
HETATM   25  C   UNL     1      -6.186  10.377  64.427  1.00  0.00    -0.065 C  
HETATM   26  C   UNL     1      -5.396   8.146  64.381  1.00  0.00    -0.037 C  
ENDBRANCH  23  24
ENDBRANCH  21  22
ENDBRANCH  19  21
BRANCH  19  27
HETATM   27  C   UNL     1      -8.266  11.501  66.958  1.00  0.00    -0.167 C  
HETATM   28  O   UNL     1      -7.314  10.901  67.445  1.00  0.00    -0.092 OA 
BRANCH  27  29
HETATM   29  N   UNL     1      -8.187  12.848  66.670  1.00  0.00    -0.404 N  
HETATM   30  H   UNL     1      -8.255  13.169  65.704  1.00  0.00     0.000 HD 
BRANCH  29  31
HETATM   31  C   UNL     1      -8.009  13.803  67.737  1.00  0.00    -0.169 C  
HETATM   32  C   UNL     1      -9.331  14.173  68.368  1.00  0.00    -0.208 C  
ENDBRANCH  29  31
ENDBRANCH  27  29
ENDBRANCH  19  27
ENDBRANCH  15  18
BRANCH  16  33
HETATM   33  C   UNL     1     -10.355   8.137  71.962  1.00  0.00    -0.254 C  
BRANCH  33  34
HETATM   34  C   UNL     1     -10.789   6.923  72.739  1.00  0.00    -0.305 C  
HETATM   35  C   UNL     1     -11.938   6.247  72.616  1.00  0.00    -0.041 C  
ENDBRANCH  33  34
ENDBRANCH  16  33
TORSDOF 9
ENDMDL
MODEL      153
REMARK 921   NORMALIZED FREE ENERGY PREDICTED BY IDOCK:   -3.80 KCAL/MOL
REMARK 922        TOTAL FREE ENERGY PREDICTED BY IDOCK:   -6.51 KCAL/MOL
REMARK 923 INTER-LIGAND FREE ENERGY PREDICTED BY IDOCK:   -4.92 KCAL/MOL
REMARK 924 INTRA-LIGAND FREE ENERGY PREDICTED BY IDOCK:   -1.59 KCAL/MOL
REMARK 927      BINDING AFFINITY PREDICTED BY RF-SCORE:    0.00 PKD
ROOT
HETATM    1  C   UNL     1      -8.200   9.070  69.754  1.00  0.00    -0.122 C  
HETATM    2  C   UNL     1      -9.518   9.555  70.357  1.00  0.00    -0.317 C  
HETATM    3  C   UNL     1     -10.327   8.331  70.571  1.00  0.00    -0.217 A  
HETATM    4  C   UNL     1     -11.640   8.000  70.389  1.00  0.00    -0.068 A  
HETATM    5  N   UNL     1     -11.817   6.754  70.949  1.00  0.00    -0.370 NA 
HETATM    6  H   UNL     1     -12.702   6.251  70.986  1.00  0.00     0.000 HD 
HETATM    7  C   UNL     1     -10.623   6.286  71.452  1.00  0.00    -0.237 A  
HETATM    8  C   UNL     1     -10.278   5.229  72.283  1.00  0.00    -0.250 A  
HETATM    9  C   UNL     1      -8.910   5.094  72.586  1.00  0.00    -0.123 A  
HETATM   10  C   UNL     1      -7.917   5.888  71.970  1.00  0.00    -0.107 A  
HETATM   11  C   UNL     1      -8.277   6.921  71.103  1.00  0.00    -0.118 A  
HETATM   12  C   UNL     1      -7.334   7.938  70.467  1.00  0.00    -0.067 C  
HETATM   13  C   UNL     1      -9.657   7.153  70.984  1.00  0.00    -0.158 A  
HETATM   14  C   UNL     1      -6.262   7.484  69.401  1.00  0.00    -0.031 C  
HETATM   15  C   UNL     1      -6.701   7.907  67.944  1.00  0.00    -0.068 C  
HETATM   16  N   UNL     1      -7.351  10.138  69.229  1.00  0.00    -0.087 NA 
HETATM   17  C   UNL     1      -6.761   9.521  68.001  1.00  0.00    -0.063 C  
ENDROOT
BRANCH  15  18
HETATM   18  C   UNL     1      -7.869   6.814  67.546  1.00  0.00    -0.111 C  
HETATM   19  N   UNL     1      -8.914   6.980  66.623  1.00  0.00    -0.136 N  
HETATM   20  O   UNL     1      -7.740   5.695  68.042  1.00  0.00    -0.087 OA 
BRANCH  19  21
HETATM   21  C   UNL     1      -9.728   5.759  66.266  1.00  0.00    -0.117 C  
BRANCH  21  22
HETATM   22  C   UNL     1      -9.326   4.847  65.080  1.00  0.00    -0.104 C  
HETATM   23  C   UNL     1      -8.121   3.863  65.106  1.00  0.00    -0.097 C  
BRANCH  23  24
HETATM   24  N   UNL     1      -7.852   2.894  66.190  1.00  0.00    -0.080 NA 
HETATM   25  C   UNL     1      -6.556   2.220  65.923  1.00  0.00    -0.028 C  
HETATM   26  C   UNL     1      -8.858   1.822  66.303  1.00  0.00    -0.116 C  
ENDBRANCH  23  24
ENDBRANCH  21  22
ENDBRANCH  19  21
BRANCH  19  27
HETATM   27  C   UNL     1      -8.932   8.042  65.728  1.00  0.00    -0.102 C  
HETATM   28  O   UNL     1      -8.261   8.089  64.703  1.00  0.00    -0.148 OA 
BRANCH  27  29
HETATM   29  N   UNL     1      -9.826   9.046  66.041  1.00  0.00    -0.379 N  
HETATM   30  H   UNL     1     -10.560   8.881  66.729  1.00  0.00     0.000 HD 
BRANCH  29  31
HETATM   31  C   UNL     1      -9.719  10.331  65.394  1.00  0.00    -0.278 C  
HETATM   32  C   UNL     1     -10.681  11.330  65.996  1.00  0.00    -0.301 C  
ENDBRANCH  29  31
ENDBRANCH  27  29
ENDBRANCH  19  27
ENDBRANCH  15  18
BRANCH  16  33
HETATM   33  C   UNL     1      -6.435  10.634  70.280  1.00  0.00    -0.138 C  
BRANCH  33  34
HETATM   34  C   UNL     1      -5.594  11.840  69.956  1.00  0.00    -0.121 C  
HETATM   35  C   UNL     1      -5.768  13.094  70.392  1.00  0.00    -0.170 C  
ENDBRANCH  33  34
ENDBRANCH  16  33
TORSDOF 9
ENDMDL
MODEL      154
REMARK 921   NORMALIZED FREE ENERGY PREDICTED BY IDOCK:   -3.77 KCAL/MOL
REMARK 922        TOTAL FREE ENERGY PREDICTED BY IDOCK:   -6.46 KCAL/MOL
REMARK 923 INTER-LIGAND FREE ENERGY PREDICTED BY IDOCK:   -4.80 KCAL/MOL
REMARK 924 INTRA-LIGAND FREE ENERGY PREDICTED BY IDOCK:   -1.66 KCAL/MOL
REMARK 927      BINDING AFFINITY PREDICTED BY RF-SCORE:    0.00 PKD
ROOT
HETATM    1  C   UNL     1      -8.792   5.313  67.787  1.00  0.00    -0.105 C  
HETATM    2  C   UNL     1      -7.466   4.556  67.853  1.00  0.00    -0.069 C  
HETATM    3  C   UNL     1      -6.979   4.735  69.241  1.00  0.00    -0.051 A  
HETATM    4  C   UNL     1      -5.762   4.984  69.810  1.00  0.00    -0.016 A  
HETATM    5  N   UNL     1      -5.927   4.858  71.172  1.00  0.00    -0.017 NA 
HETATM    6  H   UNL     1      -5.186   4.967  71.863  1.00  0.00     0.000 HD 
HETATM    7  C   UNL     1      -7.240   4.562  71.465  1.00  0.00    -0.059 A  
HETATM    8  C   UNL     1      -7.896   4.128  72.609  1.00  0.00    -0.080 A  
HETATM    9  C   UNL     1      -9.283   3.917  72.492  1.00  0.00    -0.149 A  
HETATM   10  C   UNL     1     -10.004   4.263  71.329  1.00  0.00    -0.230 A  
HETATM   11  C   UNL     1      -9.336   4.738  70.198  1.00  0.00    -0.222 A  
HETATM   12  C   UNL     1      -9.957   5.028  68.836  1.00  0.00    -0.236 C  
HETATM   13  C   UNL     1      -7.934   4.743  70.287  1.00  0.00    -0.068 A  
HETATM   14  C   UNL     1     -10.991   6.208  68.658  1.00  0.00    -0.415 C  
HETATM   15  C   UNL     1     -10.324   7.437  67.925  1.00  0.00    -0.258 C  
HETATM   16  N   UNL     1      -9.322   5.481  66.435  1.00  0.00    -0.148 NA 
HETATM   17  C   UNL     1      -9.908   6.855  66.475  1.00  0.00    -0.103 C  
ENDROOT
BRANCH  15  18
HETATM   18  C   UNL     1      -9.398   8.143  69.091  1.00  0.00    -0.151 C  
HETATM   19  N   UNL     1      -8.147   8.760  68.930  1.00  0.00    -0.112 N  
HETATM   20  O   UNL     1      -9.917   8.225  70.204  1.00  0.00    -0.184 OA 
BRANCH  19  21
HETATM   21  C   UNL     1      -7.593   9.530  70.105  1.00  0.00    -0.142 C  
BRANCH  21  22
HETATM   22  C   UNL     1      -6.281   9.091  70.803  1.00  0.00    -0.048 C  
HETATM   23  C   UNL     1      -5.993   9.285  72.320  1.00  0.00     0.054 C  
BRANCH  23  24
HETATM   24  N   UNL     1      -6.921   8.904  73.406  1.00  0.00    -0.346 NA 
HETATM   25  C   UNL     1      -6.142   8.299  74.516  1.00  0.00    -0.114 C  
HETATM   26  C   UNL     1      -7.928   7.901  73.014  1.00  0.00    -0.135 C  
ENDBRANCH  23  24
ENDBRANCH  21  22
ENDBRANCH  19  21
BRANCH  19  27
HETATM   27  C   UNL     1      -7.645   9.069  67.672  1.00  0.00    -0.093 C  
HETATM   28  O   UNL     1      -6.958   8.308  66.999  1.00  0.00    -0.068 OA 
BRANCH  27  29
HETATM   29  N   UNL     1      -8.031  10.301  67.183  1.00  0.00    -0.113 N  
HETATM   30  H   UNL     1      -8.256  11.059  67.827  1.00  0.00     0.000 HD 
BRANCH  29  31
HETATM   31  C   UNL     1      -8.114  10.515  65.759  1.00  0.00    -0.158 C  
HETATM   32  C   UNL     1      -9.459  10.086  65.218  1.00  0.00    -0.323 C  
ENDBRANCH  29  31
ENDBRANCH  27  29
ENDBRANCH  19  27
ENDBRANCH  15  18
BRANCH  16  33
HETATM   33  C   UNL     1     -10.204   4.346  66.081  1.00  0.00    -0.203 C  
BRANCH  33  34
HETATM   34  C   UNL     1      -9.914   3.614  64.798  1.00  0.00    -0.160 C  
HETATM   35  C   UNL     1     -10.593   3.692  63.646  1.00  0.00    -0.279 C  
ENDBRANCH  33  34
ENDBRANCH  16  33
TORSDOF 9
ENDMDL
MODEL      155
REMARK 921   NORMALIZED FREE ENERGY PREDICTED BY IDOCK:   -3.76 KCAL/MOL
REMARK 922        TOTAL FREE ENERGY PREDICTED BY IDOCK:   -6.45 KCAL/MOL
REMARK 923 INTER-LIGAND FREE ENERGY PREDICTED BY IDOCK:   -5.65 KCAL/MOL
REMARK 924 INTRA-LIGAND FREE ENERGY PREDICTED BY IDOCK:   -0.80 KCAL/MOL
REMARK 927      BINDING AFFINITY PREDICTED BY RF-SCORE:    0.00 PKD
ROOT
HETATM    1  C   UNL     1      -8.501   4.677  71.722  1.00  0.00    -0.113 C  
HETATM    2  C   UNL     1      -8.029   5.508  72.916  1.00  0.00    -0.101 C  
HETATM    3  C   UNL     1      -8.387   6.908  72.588  1.00  0.00    -0.117 A  
HETATM    4  C   UNL     1      -7.769   8.118  72.726  1.00  0.00    -0.136 A  
HETATM    5  N   UNL     1      -8.699   9.079  72.397  1.00  0.00    -0.250 NA 
HETATM    6  H   UNL     1      -8.534  10.085  72.426  1.00  0.00     0.000 HD 
HETATM    7  C   UNL     1      -9.884   8.485  72.024  1.00  0.00    -0.312 A  
HETATM    8  C   UNL     1     -11.172   8.957  71.814  1.00  0.00    -0.432 A  
HETATM    9  C   UNL     1     -12.137   7.999  71.448  1.00  0.00    -0.332 A  
HETATM   10  C   UNL     1     -11.799   6.658  71.162  1.00  0.00    -0.414 A  
HETATM   11  C   UNL     1     -10.490   6.207  71.338  1.00  0.00    -0.273 A  
HETATM   12  C   UNL     1     -10.002   4.768  71.197  1.00  0.00    -0.273 C  
HETATM   13  C   UNL     1      -9.602   7.141  71.896  1.00  0.00    -0.161 A  
HETATM   14  C   UNL     1     -10.008   4.052  69.789  1.00  0.00    -0.027 C  
HETATM   15  C   UNL     1      -8.544   3.951  69.203  1.00  0.00    -0.113 C  
HETATM   16  N   UNL     1      -8.019   3.297  71.722  1.00  0.00    -0.057 NA 
HETATM   17  C   UNL     1      -7.750   3.038  70.275  1.00  0.00    -0.043 C  
ENDROOT
BRANCH  15  18
HETATM   18  C   UNL     1      -8.225   5.474  68.662  1.00  0.00    -0.102 C  
HETATM   19  N   UNL     1      -8.764   6.110  67.532  1.00  0.00    -0.106 N  
HETATM   20  O   UNL     1      -7.513   6.160  69.396  1.00  0.00    -0.088 OA 
BRANCH  19  21
HETATM   21  C   UNL     1      -8.488   7.585  67.363  1.00  0.00    -0.115 C  
BRANCH  21  22
HETATM   22  C   UNL     1      -7.810   8.131  66.082  1.00  0.00    -0.092 C  
HETATM   23  C   UNL     1      -8.410   9.254  65.187  1.00  0.00    -0.150 C  
BRANCH  23  24
HETATM   24  N   UNL     1      -8.926  10.544  65.693  1.00  0.00    -0.172 NA 
HETATM   25  C   UNL     1      -7.929  11.129  66.625  1.00  0.00    -0.159 C  
HETATM   26  C   UNL     1     -10.185  10.435  66.451  1.00  0.00    -0.230 C  
ENDBRANCH  23  24
ENDBRANCH  21  22
ENDBRANCH  19  21
BRANCH  19  27
HETATM   27  C   UNL     1      -9.857   5.584  66.855  1.00  0.00    -0.163 C  
HETATM   28  O   UNL     1     -10.937   6.155  66.746  1.00  0.00    -0.333 OA 
BRANCH  27  29
HETATM   29  N   UNL     1      -9.628   4.370  66.241  1.00  0.00    -0.176 N  
HETATM   30  H   UNL     1      -9.684   3.506  66.781  1.00  0.00     0.000 HD 
BRANCH  29  31
HETATM   31  C   UNL     1      -9.309   4.324  64.835  1.00  0.00    -0.165 C  
HETATM   32  C   UNL     1     -10.455   3.752  64.031  1.00  0.00    -0.271 C  
ENDBRANCH  29  31
ENDBRANCH  27  29
ENDBRANCH  19  27
ENDBRANCH  15  18
BRANCH  16  33
HETATM   33  C   UNL     1      -8.974   2.417  72.432  1.00  0.00    -0.077 C  
BRANCH  33  34
HETATM   34  C   UNL     1      -8.567   1.898  73.785  1.00  0.00    -0.058 C  
HETATM   35  C   UNL     1      -7.451   2.189  74.467  1.00  0.00    -0.037 C  
ENDBRANCH  33  34
ENDBRANCH  16  33
TORSDOF 9
ENDMDL
MODEL      156
REMARK 921   NORMALIZED FREE ENERGY PREDICTED BY IDOCK:   -3.70 KCAL/MOL
REMARK 922        TOTAL FREE ENERGY PREDICTED BY IDOCK:   -6.35 KCAL/MOL
REMARK 923 INTER-LIGAND FREE ENERGY PREDICTED BY IDOCK:   -5.19 KCAL/MOL
REMARK 924 INTRA-LIGAND FREE ENERGY PREDICTED BY IDOCK:   -1.17 KCAL/MOL
REMARK 927      BINDING AFFINITY PREDICTED BY RF-SCORE:    0.00 PKD
ROOT
HETATM    1  C   UNL     1      -9.887   5.405  71.604  1.00  0.00    -0.172 C  
HETATM    2  C   UNL     1     -10.166   4.696  70.279  1.00  0.00    -0.205 C  
HETATM    3  C   UNL     1      -9.422   5.469  69.256  1.00  0.00    -0.171 A  
HETATM    4  C   UNL     1      -9.690   5.891  67.984  1.00  0.00    -0.119 A  
HETATM    5  N   UNL     1      -8.518   6.414  67.484  1.00  0.00    -0.116 NA 
HETATM    6  H   UNL     1      -8.401   6.791  66.544  1.00  0.00     0.000 HD 
HETATM    7  C   UNL     1      -7.526   6.353  68.438  1.00  0.00    -0.088 A  
HETATM    8  C   UNL     1      -6.149   6.528  68.407  1.00  0.00    -0.025 A  
HETATM    9  C   UNL     1      -5.470   6.357  69.628  1.00  0.00    -0.014 A  
HETATM   10  C   UNL     1      -6.150   6.165  70.850  1.00  0.00    -0.038 A  
HETATM   11  C   UNL     1      -7.540   6.031  70.872  1.00  0.00    -0.096 A  
HETATM   12  C   UNL     1      -8.397   5.693  72.088  1.00  0.00    -0.115 C  
HETATM   13  C   UNL     1      -8.161   6.007  69.612  1.00  0.00    -0.107 A  
HETATM   14  C   UNL     1      -8.525   6.709  73.289  1.00  0.00    -0.128 C  
HETATM   15  C   UNL     1      -9.932   7.428  73.272  1.00  0.00    -0.341 C  
HETATM   16  N   UNL     1     -10.729   4.957  72.712  1.00  0.00    -0.218 NA 
HETATM   17  C   UNL     1     -10.994   6.224  73.462  1.00  0.00    -0.079 C  
ENDROOT
BRANCH  15  18
HETATM   18  C   UNL     1      -9.796   8.543  72.067  1.00  0.00    -0.312 C  
HETATM   19  N   UNL     1     -10.831   9.101  71.299  1.00  0.00    -0.303 N  
HETATM   20  O   UNL     1      -8.669   9.010  71.900  1.00  0.00    -0.363 OA 
BRANCH  19  21
HETATM   21  C   UNL     1     -10.485  10.266  70.403  1.00  0.00    -0.076 C  
BRANCH  21  22
HETATM   22  C   UNL     1     -11.492  10.796  69.353  1.00  0.00    -0.366 C  
HETATM   23  C   UNL     1     -11.361  12.169  68.632  1.00  0.00    -0.280 C  
BRANCH  23  24
HETATM   24  N   UNL     1     -10.129  12.657  67.974  1.00  0.00    -0.223 NA 
HETATM   25  C   UNL     1      -9.245  13.268  68.999  1.00  0.00     0.438 C  
HETATM   26  C   UNL     1     -10.361  13.698  66.957  1.00  0.00    -0.260 C  
ENDBRANCH  23  24
ENDBRANCH  21  22
ENDBRANCH  19  21
BRANCH  19  27
HETATM   27  C   UNL     1     -12.165   8.944  71.653  1.00  0.00    -0.343 C  
HETATM   28  O   UNL     1     -12.670   9.430  72.660  1.00  0.00    -0.265 OA 
BRANCH  27  29
HETATM   29  N   UNL     1     -12.926   8.238  70.744  1.00  0.00    -0.353 N  
HETATM   30  H   UNL     1     -13.235   8.684  69.880  1.00  0.00     0.000 HD 
BRANCH  29  31
HETATM   31  C   UNL     1     -13.285   6.867  71.017  1.00  0.00     0.036 C  
HETATM   32  C   UNL     1     -14.323   6.780  72.113  1.00  0.00    -0.173 C  
ENDBRANCH  29  31
ENDBRANCH  27  29
ENDBRANCH  19  27
ENDBRANCH  15  18
BRANCH  16  33
HETATM   33  C   UNL     1     -10.086   3.834  73.429  1.00  0.00    -0.135 C  
BRANCH  33  34
HETATM   34  C   UNL     1     -10.865   2.551  73.553  1.00  0.00    -0.289 C  
HETATM   35  C   UNL     1     -12.144   2.341  73.218  1.00  0.00     0.116 C  
ENDBRANCH  33  34
ENDBRANCH  16  33
TORSDOF 9
ENDMDL
MODEL      157
REMARK 921   NORMALIZED FREE ENERGY PREDICTED BY IDOCK:   -3.70 KCAL/MOL
REMARK 922        TOTAL FREE ENERGY PREDICTED BY IDOCK:   -6.35 KCAL/MOL
REMARK 923 INTER-LIGAND FREE ENERGY PREDICTED BY IDOCK:   -4.88 KCAL/MOL
REMARK 924 INTRA-LIGAND FREE ENERGY PREDICTED BY IDOCK:   -1.48 KCAL/MOL
REMARK 927      BINDING AFFINITY PREDICTED BY RF-SCORE:    0.00 PKD
ROOT
HETATM    1  C   UNL     1     -10.178   8.877  67.456  1.00  0.00    -0.248 C  
HETATM    2  C   UNL     1     -10.860   7.690  66.775  1.00  0.00     0.027 C  
HETATM    3  C   UNL     1     -10.504   6.509  67.596  1.00  0.00    -0.284 A  
HETATM    4  C   UNL     1     -10.134   5.222  67.323  1.00  0.00    -0.195 A  
HETATM    5  N   UNL     1     -10.116   4.550  68.526  1.00  0.00    -0.028 NA 
HETATM    6  H   UNL     1      -9.895   3.562  68.639  1.00  0.00     0.000 HD 
HETATM    7  C   UNL     1     -10.440   5.408  69.553  1.00  0.00    -0.273 A  
HETATM    8  C   UNL     1     -10.774   5.227  70.889  1.00  0.00    -0.189 A  
HETATM    9  C   UNL     1     -11.063   6.392  71.624  1.00  0.00    -0.314 A  
HETATM   10  C   UNL     1     -10.884   7.687  71.089  1.00  0.00    -0.251 A  
HETATM   11  C   UNL     1     -10.507   7.854  69.755  1.00  0.00    -0.233 A  
HETATM   12  C   UNL     1     -10.401   9.178  69.005  1.00  0.00    -0.229 C  
HETATM   13  C   UNL     1     -10.424   6.672  69.001  1.00  0.00    -0.243 A  
HETATM   14  C   UNL     1      -9.299  10.239  69.398  1.00  0.00    -0.217 C  
HETATM   15  C   UNL     1      -8.129  10.255  68.337  1.00  0.00    -0.109 C  
HETATM   16  N   UNL     1     -10.189  10.108  66.668  1.00  0.00    -0.224 NA 
HETATM   17  C   UNL     1      -8.848  10.702  66.960  1.00  0.00    -0.137 C  
ENDROOT
BRANCH  15  18
HETATM   18  C   UNL     1      -7.254   8.903  68.688  1.00  0.00    -0.072 C  
HETATM   19  N   UNL     1      -6.568   8.616  69.879  1.00  0.00    -0.041 N  
HETATM   20  O   UNL     1      -7.299   8.008  67.845  1.00  0.00    -0.088 OA 
BRANCH  19  21
HETATM   21  C   UNL     1      -6.021   7.218  70.049  1.00  0.00    -0.024 C  
BRANCH  21  22
HETATM   22  C   UNL     1      -6.956   6.025  70.364  1.00  0.00    -0.059 C  
HETATM   23  C   UNL     1      -6.475   4.551  70.504  1.00  0.00    -0.034 C  
BRANCH  23  24
HETATM   24  N   UNL     1      -5.330   4.118  71.334  1.00  0.00     0.000 NA 
HETATM   25  C   UNL     1      -5.235   2.637  71.289  1.00  0.00    -0.004 C  
HETATM   26  C   UNL     1      -5.446   4.481  72.758  1.00  0.00    -0.008 C  
ENDBRANCH  23  24
ENDBRANCH  21  22
ENDBRANCH  19  21
BRANCH  19  27
HETATM   27  C   UNL     1      -6.765   9.367  71.030  1.00  0.00    -0.076 C  
HETATM   28  O   UNL     1      -6.342  10.508  71.188  1.00  0.00    -0.339 OA 
BRANCH  27  29
HETATM   29  N   UNL     1      -7.543   8.757  71.993  1.00  0.00    -0.032 N  
HETATM   30  H   UNL     1      -8.515   8.524  71.792  1.00  0.00     0.000 HD 
BRANCH  29  31
HETATM   31  C   UNL     1      -6.978   8.449  73.285  1.00  0.00    -0.075 C  
HETATM   32  C   UNL     1      -7.763   7.360  73.980  1.00  0.00    -0.151 C  
ENDBRANCH  29  31
ENDBRANCH  27  29
ENDBRANCH  19  27
ENDBRANCH  15  18
BRANCH  16  33
HETATM   33  C   UNL     1     -11.396  10.907  66.972  1.00  0.00    -0.024 C  
BRANCH  33  34
HETATM   34  C   UNL     1     -11.329  12.391  66.725  1.00  0.00    -0.391 C  
HETATM   35  C   UNL     1     -12.265  13.306  67.008  1.00  0.00    -0.310 C  
ENDBRANCH  33  34
ENDBRANCH  16  33
TORSDOF 9
ENDMDL
MODEL      158
REMARK 921   NORMALIZED FREE ENERGY PREDICTED BY IDOCK:   -3.69 KCAL/MOL
REMARK 922        TOTAL FREE ENERGY PREDICTED BY IDOCK:   -6.34 KCAL/MOL
REMARK 923 INTER-LIGAND FREE ENERGY PREDICTED BY IDOCK:   -5.28 KCAL/MOL
REMARK 924 INTRA-LIGAND FREE ENERGY PREDICTED BY IDOCK:   -1.06 KCAL/MOL
REMARK 927      BINDING AFFINITY PREDICTED BY RF-SCORE:    0.00 PKD
ROOT
HETATM    1  C   UNL     1      -7.196   8.317  70.212  1.00  0.00    -0.051 C  
HETATM    2  C   UNL     1      -6.686   9.736  70.464  1.00  0.00    -0.125 C  
HETATM    3  C   UNL     1      -7.513  10.610  69.599  1.00  0.00    -0.121 A  
HETATM    4  C   UNL     1      -7.263  11.692  68.802  1.00  0.00    -0.116 A  
HETATM    5  N   UNL     1      -8.486  12.179  68.399  1.00  0.00    -0.235 NA 
HETATM    6  H   UNL     1      -8.622  13.000  67.809  1.00  0.00     0.000 HD 
HETATM    7  C   UNL     1      -9.499  11.399  68.907  1.00  0.00    -0.050 A  
HETATM    8  C   UNL     1     -10.877  11.549  68.998  1.00  0.00    -0.258 A  
HETATM    9  C   UNL     1     -11.579  10.501  69.624  1.00  0.00    -0.342 A  
HETATM   10  C   UNL     1     -10.953   9.295  70.009  1.00  0.00    -0.254 A  
HETATM   11  C   UNL     1      -9.572   9.142  69.873  1.00  0.00    -0.206 A  
HETATM   12  C   UNL     1      -8.742   7.959  70.359  1.00  0.00    -0.137 C  
HETATM   13  C   UNL     1      -8.881  10.283  69.433  1.00  0.00    -0.177 A  
HETATM   14  C   UNL     1      -8.914   6.532  69.705  1.00  0.00    -0.142 C  
HETATM   15  C   UNL     1      -7.699   6.198  68.753  1.00  0.00    -0.096 C  
HETATM   16  N   UNL     1      -6.350   7.266  70.775  1.00  0.00    -0.039 NA 
HETATM   17  C   UNL     1      -6.416   6.194  69.735  1.00  0.00    -0.043 C  
ENDROOT
BRANCH  15  18
HETATM   18  C   UNL     1      -7.997   7.087  67.398  1.00  0.00    -0.112 C  
HETATM   19  N   UNL     1      -9.120   7.013  66.558  1.00  0.00    -0.153 N  
HETATM   20  O   UNL     1      -7.189   7.986  67.165  1.00  0.00    -0.083 OA 
BRANCH  19  21
HETATM   21  C   UNL     1      -9.273   8.082  65.502  1.00  0.00     0.158 C  
BRANCH  21  22
HETATM   22  C   UNL     1      -9.841   9.479  65.853  1.00  0.00    -0.360 C  
HETATM   23  C   UNL     1      -9.358  10.808  65.203  1.00  0.00    -0.217 C  
BRANCH  23  24
HETATM   24  N   UNL     1      -9.212  11.024  63.747  1.00  0.00    -0.198 NA 
HETATM   25  C   UNL     1     -10.369  11.816  63.259  1.00  0.00    -0.402 C  
HETATM   26  C   UNL     1      -9.196   9.782  62.952  1.00  0.00    -0.213 C  
ENDBRANCH  23  24
ENDBRANCH  21  22
ENDBRANCH  19  21
BRANCH  19  27
HETATM   27  C   UNL     1     -10.263   6.319  66.932  1.00  0.00    -0.209 C  
HETATM   28  O   UNL     1     -11.282   6.852  67.359  1.00  0.00    -0.280 OA 
BRANCH  27  29
HETATM   29  N   UNL     1     -10.204   4.955  66.731  1.00  0.00    -0.236 N  
HETATM   30  H   UNL     1     -10.421   4.316  67.496  1.00  0.00     0.000 HD 
BRANCH  29  31
HETATM   31  C   UNL     1      -9.834   4.434  65.438  1.00  0.00    -0.210 C  
HETATM   32  C   UNL     1      -9.051   3.148  65.568  1.00  0.00    -0.151 C  
ENDBRANCH  29  31
ENDBRANCH  27  29
ENDBRANCH  19  27
ENDBRANCH  15  18
BRANCH  16  33
HETATM   33  C   UNL     1      -6.777   6.940  72.153  1.00  0.00    -0.058 C  
BRANCH  33  34
HETATM   34  C   UNL     1      -6.011   7.569  73.286  1.00  0.00    -0.055 C  
HETATM   35  C   UNL     1      -6.488   7.950  74.478  1.00  0.00    -0.113 C  
ENDBRANCH  33  34
ENDBRANCH  16  33
TORSDOF 9
ENDMDL
MODEL      159
REMARK 921   NORMALIZED FREE ENERGY PREDICTED BY IDOCK:   -3.65 KCAL/MOL
REMARK 922        TOTAL FREE ENERGY PREDICTED BY IDOCK:   -6.28 KCAL/MOL
REMARK 923 INTER-LIGAND FREE ENERGY PREDICTED BY IDOCK:   -4.36 KCAL/MOL
REMARK 924 INTRA-LIGAND FREE ENERGY PREDICTED BY IDOCK:   -1.91 KCAL/MOL
REMARK 927      BINDING AFFINITY PREDICTED BY RF-SCORE:    0.00 PKD
ROOT
HETATM    1  C   UNL     1      -6.694   7.450  66.849  1.00  0.00    -0.065 C  
HETATM    2  C   UNL     1      -5.794   6.587  67.734  1.00  0.00    -0.016 C  
HETATM    3  C   UNL     1      -6.541   5.323  67.940  1.00  0.00    -0.050 A  
HETATM    4  C   UNL     1      -6.758   4.495  69.005  1.00  0.00    -0.046 A  
HETATM    5  N   UNL     1      -7.388   3.374  68.514  1.00  0.00    -0.050 NA 
HETATM    6  H   UNL     1      -7.661   2.565  69.073  1.00  0.00     0.000 HD 
HETATM    7  C   UNL     1      -7.597   3.501  67.159  1.00  0.00    -0.079 A  
HETATM    8  C   UNL     1      -7.976   2.619  66.157  1.00  0.00    -0.082 A  
HETATM    9  C   UNL     1      -8.062   3.151  64.856  1.00  0.00    -0.086 A  
HETATM   10  C   UNL     1      -7.919   4.531  64.593  1.00  0.00    -0.092 A  
HETATM   11  C   UNL     1      -7.578   5.414  65.619  1.00  0.00    -0.082 A  
HETATM   12  C   UNL     1      -7.264   6.899  65.467  1.00  0.00    -0.077 C  
HETATM   13  C   UNL     1      -7.305   4.816  66.860  1.00  0.00    -0.082 A  
HETATM   14  C   UNL     1      -8.389   7.918  65.031  1.00  0.00    -0.111 C  
HETATM   15  C   UNL     1      -8.875   8.781  66.261  1.00  0.00    -0.187 C  
HETATM   16  N   UNL     1      -6.263   8.841  66.730  1.00  0.00    -0.058 NA 
HETATM   17  C   UNL     1      -7.556   9.592  66.723  1.00  0.00    -0.098 C  
ENDROOT
BRANCH  15  18
HETATM   18  C   UNL     1      -9.842   7.753  67.112  1.00  0.00    -0.206 C  
HETATM   19  N   UNL     1      -9.945   7.637  68.508  1.00  0.00    -0.174 N  
HETATM   20  O   UNL     1     -10.634   7.091  66.441  1.00  0.00    -0.038 OA 
BRANCH  19  21
HETATM   21  C   UNL     1     -11.061   6.778  69.055  1.00  0.00    -0.197 C  
BRANCH  21  22
HETATM   22  C   UNL     1     -10.789   5.710  70.144  1.00  0.00    -0.356 C  
HETATM   23  C   UNL     1     -10.637   6.028  71.660  1.00  0.00    -0.236 C  
BRANCH  23  24
HETATM   24  N   UNL     1     -11.579   6.858  72.441  1.00  0.00    -0.262 NA 
HETATM   25  C   UNL     1     -12.881   6.907  71.731  1.00  0.00    -0.304 C  
HETATM   26  C   UNL     1     -11.149   8.259  72.612  1.00  0.00    -0.330 C  
ENDBRANCH  23  24
ENDBRANCH  21  22
ENDBRANCH  19  21
BRANCH  19  27
HETATM   27  C   UNL     1      -9.396   8.587  69.359  1.00  0.00    -0.154 C  
HETATM   28  O   UNL     1      -9.925   9.661  69.623  1.00  0.00    -0.193 OA 
BRANCH  27  29
HETATM   29  N   UNL     1      -8.211   8.211  69.957  1.00  0.00    -0.118 N  
HETATM   30  H   UNL     1      -7.699   7.398  69.612  1.00  0.00     0.000 HD 
BRANCH  29  31
HETATM   31  C   UNL     1      -7.696   8.968  71.072  1.00  0.00    -0.125 C  
HETATM   32  C   UNL     1      -6.624   9.937  70.628  1.00  0.00    -0.104 C  
ENDBRANCH  29  31
ENDBRANCH  27  29
ENDBRANCH  19  27
ENDBRANCH  15  18
BRANCH  16  33
HETATM   33  C   UNL     1      -5.347   9.002  65.579  1.00  0.00    -0.037 C  
BRANCH  33  34
HETATM   34  C   UNL     1      -5.465  10.264  64.767  1.00  0.00    -0.124 C  
HETATM   35  C   UNL     1      -5.683  10.367  63.450  1.00  0.00    -0.147 C  
ENDBRANCH  33  34
ENDBRANCH  16  33
TORSDOF 9
ENDMDL
MODEL      160
REMARK 921   NORMALIZED FREE ENERGY PREDICTED BY IDOCK:   -3.62 KCAL/MOL
REMARK 922        TOTAL FREE ENERGY PREDICTED BY IDOCK:   -6.23 KCAL/MOL
REMARK 923 INTER-LIGAND FREE ENERGY PREDICTED BY IDOCK:   -5.14 KCAL/MOL
REMARK 924 INTRA-LIGAND FREE ENERGY PREDICTED BY IDOCK:   -1.09 KCAL/MOL
REMARK 927      BINDING AFFINITY PREDICTED BY RF-SCORE:    0.00 PKD
ROOT
HETATM    1  C   UNL     1      -9.390  11.709  68.012  1.00  0.00    -0.178 C  
HETATM    2  C   UNL     1     -10.844  11.616  68.474  1.00  0.00    -0.257 C  
HETATM    3  C   UNL     1     -11.599  12.533  67.589  1.00  0.00    -0.416 A  
HETATM    4  C   UNL     1     -12.603  13.441  67.773  1.00  0.00     0.626 A  
HETATM    5  N   UNL     1     -13.005  13.848  66.520  1.00  0.00    -0.269 NA 
HETATM    6  H   UNL     1     -13.757  14.511  66.335  1.00  0.00     0.000 HD 
HETATM    7  C   UNL     1     -12.244  13.230  65.553  1.00  0.00    -0.457 A  
HETATM    8  C   UNL     1     -12.354  13.107  64.174  1.00  0.00    -0.418 A  
HETATM    9  C   UNL     1     -11.351  12.357  63.532  1.00  0.00    -0.553 A  
HETATM   10  C   UNL     1     -10.212  11.877  64.215  1.00  0.00    -0.346 A  
HETATM   11  C   UNL     1     -10.094  12.045  65.596  1.00  0.00    -0.272 A  
HETATM   12  C   UNL     1      -8.995  11.473  66.486  1.00  0.00    -0.190 C  
HETATM   13  C   UNL     1     -11.209  12.619  66.229  1.00  0.00    -0.354 A  
HETATM   14  C   UNL     1      -7.505  11.977  66.348  1.00  0.00     0.361 C  
HETATM   15  C   UNL     1      -7.120  12.934  67.545  1.00  0.00    -0.153 C  
HETATM   16  N   UNL     1      -8.431  11.075  68.914  1.00  0.00    -0.148 NA 
HETATM   17  C   UNL     1      -7.259  12.001  68.857  1.00  0.00    -0.089 C  
ENDROOT
BRANCH  15  18
HETATM   18  C   UNL     1      -7.859  14.358  67.171  1.00  0.00    -0.082 C  
HETATM   19  N   UNL     1      -8.072  15.457  68.019  1.00  0.00    -0.137 N  
HETATM   20  O   UNL     1      -8.161  14.505  65.987  1.00  0.00     0.898 OA 
BRANCH  19  21
HETATM   21  C   UNL     1      -8.574  16.735  67.390  1.00  0.00    -0.193 C  
BRANCH  21  22
HETATM   22  C   UNL     1     -10.000  17.266  67.684  1.00  0.00    -0.297 C  
HETATM   23  C   UNL     1     -10.311  18.711  68.171  1.00  0.00    -0.359 C  
BRANCH  23  24
HETATM   24  N   UNL     1      -9.778  19.940  67.545  1.00  0.00    -0.368 NA 
HETATM   25  C   UNL     1      -9.973  19.856  66.075  1.00  0.00    -0.458 C  
HETATM   26  C   UNL     1      -8.333  20.146  67.757  1.00  0.00    -0.256 C  
ENDBRANCH  23  24
ENDBRANCH  21  22
ENDBRANCH  19  21
BRANCH  19  27
HETATM   27  C   UNL     1      -7.438  15.559  69.250  1.00  0.00    -0.212 C  
HETATM   28  O   UNL     1      -7.936  15.202  70.312  1.00  0.00     0.235 OA 
BRANCH  27  29
HETATM   29  N   UNL     1      -6.147  16.044  69.197  1.00  0.00    -0.129 N  
HETATM   30  H   UNL     1      -5.808  16.505  68.352  1.00  0.00     0.000 HD 
BRANCH  29  31
HETATM   31  C   UNL     1      -5.276  15.899  70.338  1.00  0.00    -0.160 C  
HETATM   32  C   UNL     1      -5.130  17.204  71.086  1.00  0.00    -0.121 C  
ENDBRANCH  29  31
ENDBRANCH  27  29
ENDBRANCH  19  27
ENDBRANCH  15  18
BRANCH  16  33
HETATM   33  C   UNL     1      -8.230   9.657  68.542  1.00  0.00    -0.105 C  
BRANCH  33  34
HETATM   34  C   UNL     1      -8.886   8.612  69.404  1.00  0.00    -0.144 C  
HETATM   35  C   UNL     1      -8.373   7.437  69.792  1.00  0.00    -0.134 C  
ENDBRANCH  33  34
ENDBRANCH  16  33
TORSDOF 9
ENDMDL
MODEL      161
REMARK 921   NORMALIZED FREE ENERGY PREDICTED BY IDOCK:   -3.59 KCAL/MOL
REMARK 922        TOTAL FREE ENERGY PREDICTED BY IDOCK:   -6.19 KCAL/MOL
REMARK 923 INTER-LIGAND FREE ENERGY PREDICTED BY IDOCK:   -5.74 KCAL/MOL
REMARK 924 INTRA-LIGAND FREE ENERGY PREDICTED BY IDOCK:   -0.45 KCAL/MOL
REMARK 927      BINDING AFFINITY PREDICTED BY RF-SCORE:    0.00 PKD
ROOT
HETATM    1  C   UNL     1      -9.978   7.440  69.459  1.00  0.00    -0.179 C  
HETATM    2  C   UNL     1     -10.561   6.383  68.522  1.00  0.00    -0.302 C  
HETATM    3  C   UNL     1      -9.414   5.891  67.723  1.00  0.00    -0.114 A  
HETATM    4  C   UNL     1      -9.223   5.568  66.408  1.00  0.00    -0.150 A  
HETATM    5  N   UNL     1      -7.975   4.992  66.319  1.00  0.00    -0.106 NA 
HETATM    6  H   UNL     1      -7.561   4.629  65.461  1.00  0.00     0.000 HD 
HETATM    7  C   UNL     1      -7.369   4.976  67.555  1.00  0.00    -0.079 A  
HETATM    8  C   UNL     1      -6.246   4.343  68.068  1.00  0.00    -0.036 A  
HETATM    9  C   UNL     1      -5.963   4.576  69.427  1.00  0.00    -0.018 A  
HETATM   10  C   UNL     1      -6.683   5.514  70.199  1.00  0.00    -0.047 A  
HETATM   11  C   UNL     1      -7.786   6.176  69.657  1.00  0.00    -0.103 A  
HETATM   12  C   UNL     1      -8.735   7.112  70.400  1.00  0.00    -0.150 C  
HETATM   13  C   UNL     1      -8.158   5.767  68.365  1.00  0.00    -0.108 A  
HETATM   14  C   UNL     1      -8.228   8.505  70.942  1.00  0.00    -0.150 C  
HETATM   15  C   UNL     1      -8.760   9.688  70.041  1.00  0.00    -0.256 C  
HETATM   16  N   UNL     1     -10.981   8.238  70.163  1.00  0.00    -0.244 NA 
HETATM   17  C   UNL     1     -10.368   9.602  70.182  1.00  0.00    -0.266 C  
ENDROOT
BRANCH  15  18
HETATM   18  C   UNL     1      -7.807   9.626  68.698  1.00  0.00    -0.081 C  
HETATM   19  N   UNL     1      -7.852  10.476  67.580  1.00  0.00    -0.105 N  
HETATM   20  O   UNL     1      -6.890   8.807  68.734  1.00  0.00    -0.060 OA 
BRANCH  19  21
HETATM   21  C   UNL     1      -6.733  10.360  66.572  1.00  0.00    -0.099 C  
BRANCH  21  22
HETATM   22  C   UNL     1      -6.935   9.604  65.235  1.00  0.00    -0.101 C  
HETATM   23  C   UNL     1      -8.301   9.481  64.499  1.00  0.00    -0.164 C  
BRANCH  23  24
HETATM   24  N   UNL     1      -9.205  10.616  64.213  1.00  0.00    -0.217 NA 
HETATM   25  C   UNL     1     -10.512  10.369  64.873  1.00  0.00    -0.046 C  
HETATM   26  C   UNL     1      -9.497  10.808  62.781  1.00  0.00    -0.331 C  
ENDBRANCH  23  24
ENDBRANCH  21  22
ENDBRANCH  19  21
BRANCH  19  27
HETATM   27  C   UNL     1      -8.575  11.661  67.596  1.00  0.00    -0.142 C  
HETATM   28  O   UNL     1      -9.658  11.799  68.155  1.00  0.00    -0.181 OA 
BRANCH  27  29
HETATM   29  N   UNL     1      -7.952  12.727  66.979  1.00  0.00    -0.370 N  
HETATM   30  H   UNL     1      -7.375  12.572  66.151  1.00  0.00     0.000 HD 
BRANCH  29  31
HETATM   31  C   UNL     1      -8.117  14.060  67.505  1.00  0.00    -0.186 C  
HETATM   32  C   UNL     1      -8.842  14.951  66.524  1.00  0.00    -0.256 C  
ENDBRANCH  29  31
ENDBRANCH  27  29
ENDBRANCH  19  27
ENDBRANCH  15  18
BRANCH  16  33
HETATM   33  C   UNL     1     -11.335   7.604  71.452  1.00  0.00    -0.258 C  
BRANCH  33  34
HETATM   34  C   UNL     1     -12.694   6.966  71.563  1.00  0.00    -0.396 C  
HETATM   35  C   UNL     1     -13.885   7.553  71.391  1.00  0.00    -0.439 C  
ENDBRANCH  33  34
ENDBRANCH  16  33
TORSDOF 9
ENDMDL
MODEL      162
REMARK 921   NORMALIZED FREE ENERGY PREDICTED BY IDOCK:   -3.58 KCAL/MOL
REMARK 922        TOTAL FREE ENERGY PREDICTED BY IDOCK:   -6.18 KCAL/MOL
REMARK 923 INTER-LIGAND FREE ENERGY PREDICTED BY IDOCK:   -5.68 KCAL/MOL
REMARK 924 INTRA-LIGAND FREE ENERGY PREDICTED BY IDOCK:   -0.50 KCAL/MOL
REMARK 927      BINDING AFFINITY PREDICTED BY RF-SCORE:    0.00 PKD
ROOT
HETATM    1  C   UNL     1      -7.602  14.946  69.567  1.00  0.00    -0.137 C  
HETATM    2  C   UNL     1      -8.951  15.036  70.282  1.00  0.00     0.827 C  
HETATM    3  C   UNL     1      -9.954  15.225  69.208  1.00  0.00    -0.251 A  
HETATM    4  C   UNL     1     -11.067  16.002  69.055  1.00  0.00    -0.320 A  
HETATM    5  N   UNL     1     -11.685  15.588  67.896  1.00  0.00    -0.313 NA 
HETATM    6  H   UNL     1     -12.555  15.971  67.529  1.00  0.00     0.000 HD 
HETATM    7  C   UNL     1     -10.956  14.581  67.303  1.00  0.00    -0.305 A  
HETATM    8  C   UNL     1     -11.214  13.682  66.277  1.00  0.00    -0.313 A  
HETATM    9  C   UNL     1     -10.186  12.770  65.972  1.00  0.00    -0.290 A  
HETATM   10  C   UNL     1      -8.906  12.849  66.563  1.00  0.00    -0.026 A  
HETATM   11  C   UNL     1      -8.648  13.786  67.566  1.00  0.00    -0.194 A  
HETATM   12  C   UNL     1      -7.365  13.906  68.383  1.00  0.00    -0.115 C  
HETATM   13  C   UNL     1      -9.756  14.542  67.982  1.00  0.00    -0.218 A  
HETATM   14  C   UNL     1      -6.011  14.340  67.696  1.00  0.00    -0.043 C  
HETATM   15  C   UNL     1      -5.649  15.833  68.061  1.00  0.00    -0.140 C  
HETATM   16  N   UNL     1      -6.445  15.012  70.457  1.00  0.00    -0.038 NA 
HETATM   17  C   UNL     1      -5.463  15.816  69.666  1.00  0.00    -0.118 C  
ENDROOT
BRANCH  15  18
HETATM   18  C   UNL     1      -6.659  16.731  67.118  1.00  0.00    -0.192 C  
HETATM   19  N   UNL     1      -6.902  18.112  67.202  1.00  0.00    -0.189 N  
HETATM   20  O   UNL     1      -7.173  16.134  66.173  1.00  0.00     0.097 OA 
BRANCH  19  21
HETATM   21  C   UNL     1      -7.701  18.747  66.089  1.00  0.00    -0.247 C  
BRANCH  21  22
HETATM   22  C   UNL     1      -8.316  20.160  66.250  1.00  0.00    -0.259 C  
HETATM   23  C   UNL     1      -9.838  20.436  66.421  1.00  0.00    -0.279 C  
BRANCH  23  24
HETATM   24  N   UNL     1     -10.714  19.738  67.387  1.00  0.00    -0.424 NA 
HETATM   25  C   UNL     1     -10.045  19.712  68.712  1.00  0.00    -0.437 C  
HETATM   26  C   UNL     1     -10.995  18.333  67.040  1.00  0.00     0.001 C  
ENDBRANCH  23  24
ENDBRANCH  21  22
ENDBRANCH  19  21
BRANCH  19  27
HETATM   27  C   UNL     1      -6.097  18.947  67.966  1.00  0.00    -0.211 C  
HETATM   28  O   UNL     1      -5.131  19.561  67.526  1.00  0.00    -0.167 OA 
BRANCH  27  29
HETATM   29  N   UNL     1      -6.500  19.098  69.277  1.00  0.00    -0.289 N  
HETATM   30  H   UNL     1      -7.042  18.363  69.733  1.00  0.00     0.000 HD 
BRANCH  29  31
HETATM   31  C   UNL     1      -6.155  20.296  70.002  1.00  0.00    -0.346 C  
HETATM   32  C   UNL     1      -5.583  19.968  71.362  1.00  0.00    -0.397 C  
ENDBRANCH  29  31
ENDBRANCH  27  29
ENDBRANCH  19  27
ENDBRANCH  15  18
BRANCH  16  33
HETATM   33  C   UNL     1      -6.054  13.655  70.899  1.00  0.00    -0.015 C  
BRANCH  33  34
HETATM   34  C   UNL     1      -5.143  13.548  72.092  1.00  0.00    -0.156 C  
HETATM   35  C   UNL     1      -5.426  13.862  73.363  1.00  0.00    -0.174 C  
ENDBRANCH  33  34
ENDBRANCH  16  33
TORSDOF 9
ENDMDL
MODEL      163
REMARK 921   NORMALIZED FREE ENERGY PREDICTED BY IDOCK:   -3.58 KCAL/MOL
REMARK 922        TOTAL FREE ENERGY PREDICTED BY IDOCK:   -6.17 KCAL/MOL
REMARK 923 INTER-LIGAND FREE ENERGY PREDICTED BY IDOCK:   -5.45 KCAL/MOL
REMARK 924 INTRA-LIGAND FREE ENERGY PREDICTED BY IDOCK:   -0.72 KCAL/MOL
REMARK 927      BINDING AFFINITY PREDICTED BY RF-SCORE:    0.00 PKD
ROOT
HETATM    1  C   UNL     1      -8.431   5.023  69.308  1.00  0.00    -0.088 C  
HETATM    2  C   UNL     1      -7.796   4.468  68.033  1.00  0.00    -0.081 C  
HETATM    3  C   UNL     1      -7.657   5.630  67.124  1.00  0.00    -0.096 A  
HETATM    4  C   UNL     1      -7.855   5.838  65.788  1.00  0.00    -0.102 A  
HETATM    5  N   UNL     1      -7.374   7.097  65.506  1.00  0.00    -0.076 NA 
HETATM    6  H   UNL     1      -7.366   7.526  64.581  1.00  0.00     0.000 HD 
HETATM    7  C   UNL     1      -6.904   7.694  66.654  1.00  0.00    -0.066 A  
HETATM    8  C   UNL     1      -6.140   8.826  66.908  1.00  0.00    -0.058 A  
HETATM    9  C   UNL     1      -5.850   9.093  68.259  1.00  0.00    -0.038 A  
HETATM   10  C   UNL     1      -6.418   8.349  69.316  1.00  0.00    -0.039 A  
HETATM   11  C   UNL     1      -7.218   7.237  69.047  1.00  0.00    -0.089 A  
HETATM   12  C   UNL     1      -7.791   6.266  70.073  1.00  0.00    -0.106 C  
HETATM   13  C   UNL     1      -7.319   6.884  67.691  1.00  0.00    -0.096 A  
HETATM   14  C   UNL     1      -8.886   6.741  71.107  1.00  0.00    -0.137 C  
HETATM   15  C   UNL     1     -10.313   6.193  70.709  1.00  0.00    -0.266 C  
HETATM   16  N   UNL     1      -8.890   4.000  70.244  1.00  0.00    -0.081 NA 
HETATM   17  C   UNL     1     -10.156   4.586  70.784  1.00  0.00    -0.163 C  
ENDROOT
BRANCH  15  18
HETATM   18  C   UNL     1     -10.775   7.157  69.455  1.00  0.00    -0.231 C  
HETATM   19  N   UNL     1     -10.879   8.558  69.448  1.00  0.00    -0.152 N  
HETATM   20  O   UNL     1     -10.946   6.584  68.379  1.00  0.00    -0.277 OA 
BRANCH  19  21
HETATM   21  C   UNL     1     -11.110   9.233  68.117  1.00  0.00     0.110 C  
BRANCH  21  22
HETATM   22  C   UNL     1      -9.958   9.951  67.373  1.00  0.00    -0.235 C  
HETATM   23  C   UNL     1     -10.133  11.256  66.542  1.00  0.00    -0.217 C  
BRANCH  23  24
HETATM   24  N   UNL     1     -10.832  12.468  67.021  1.00  0.00    -0.248 NA 
HETATM   25  C   UNL     1     -11.846  12.072  68.031  1.00  0.00    -0.269 C  
HETATM   26  C   UNL     1     -11.562  13.198  65.968  1.00  0.00    -0.353 C  
ENDBRANCH  23  24
ENDBRANCH  21  22
ENDBRANCH  19  21
BRANCH  19  27
HETATM   27  C   UNL     1     -10.345   9.331  70.471  1.00  0.00    -0.254 C  
HETATM   28  O   UNL     1      -9.230   9.841  70.438  1.00  0.00    -0.237 OA 
BRANCH  27  29
HETATM   29  N   UNL     1     -11.197   9.550  71.535  1.00  0.00    -0.383 N  
HETATM   30  H   UNL     1     -10.855   9.454  72.491  1.00  0.00     0.000 HD 
BRANCH  29  31
HETATM   31  C   UNL     1     -12.572   9.914  71.293  1.00  0.00    -0.381 C  
HETATM   32  C   UNL     1     -13.490   9.308  72.330  1.00  0.00    -0.548 C  
ENDBRANCH  29  31
ENDBRANCH  27  29
ENDBRANCH  19  27
ENDBRANCH  15  18
BRANCH  16  33
HETATM   33  C   UNL     1      -7.813   3.648  71.196  1.00  0.00    -0.059 C  
BRANCH  33  34
HETATM   34  C   UNL     1      -8.184   3.518  72.649  1.00  0.00    -0.081 C  
HETATM   35  C   UNL     1      -7.353   3.423  73.695  1.00  0.00    -0.056 C  
ENDBRANCH  33  34
ENDBRANCH  16  33
TORSDOF 9
ENDMDL
MODEL      164
REMARK 921   NORMALIZED FREE ENERGY PREDICTED BY IDOCK:   -3.57 KCAL/MOL
REMARK 922        TOTAL FREE ENERGY PREDICTED BY IDOCK:   -6.16 KCAL/MOL
REMARK 923 INTER-LIGAND FREE ENERGY PREDICTED BY IDOCK:   -6.01 KCAL/MOL
REMARK 924 INTRA-LIGAND FREE ENERGY PREDICTED BY IDOCK:   -0.15 KCAL/MOL
REMARK 927      BINDING AFFINITY PREDICTED BY RF-SCORE:    0.00 PKD
ROOT
HETATM    1  C   UNL     1     -10.200   6.138  70.970  1.00  0.00    -0.196 C  
HETATM    2  C   UNL     1     -10.907   5.326  69.885  1.00  0.00    -0.047 C  
HETATM    3  C   UNL     1     -10.427   5.885  68.599  1.00  0.00    -0.302 A  
HETATM    4  C   UNL     1     -11.012   6.192  67.403  1.00  0.00    -0.314 A  
HETATM    5  N   UNL     1      -9.994   6.511  66.533  1.00  0.00    -0.343 NA 
HETATM    6  H   UNL     1     -10.121   6.764  65.553  1.00  0.00     0.000 HD 
HETATM    7  C   UNL     1      -8.779   6.437  67.176  1.00  0.00    -0.110 A  
HETATM    8  C   UNL     1      -7.459   6.441  66.744  1.00  0.00    -0.087 A  
HETATM    9  C   UNL     1      -6.474   6.326  67.743  1.00  0.00    -0.049 A  
HETATM   10  C   UNL     1      -6.788   6.354  69.120  1.00  0.00    -0.062 A  
HETATM   11  C   UNL     1      -8.118   6.392  69.541  1.00  0.00    -0.118 A  
HETATM   12  C   UNL     1      -8.615   6.297  70.980  1.00  0.00    -0.132 C  
HETATM   13  C   UNL     1      -9.075   6.303  68.516  1.00  0.00    -0.125 A  
HETATM   14  C   UNL     1      -8.306   7.449  72.015  1.00  0.00    -0.117 C  
HETATM   15  C   UNL     1      -9.593   8.325  72.283  1.00  0.00    -0.355 C  
HETATM   16  N   UNL     1     -10.722   5.922  72.318  1.00  0.00    -0.223 NA 
HETATM   17  C   UNL     1     -10.652   7.286  72.925  1.00  0.00    -0.301 C  
ENDROOT
BRANCH  15  18
HETATM   18  C   UNL     1      -9.716   9.275  70.943  1.00  0.00    -0.276 C  
HETATM   19  N   UNL     1     -10.870   9.543  70.190  1.00  0.00    -0.242 N  
HETATM   20  O   UNL     1      -8.698   9.896  70.637  1.00  0.00    -0.105 OA 
BRANCH  19  21
HETATM   21  C   UNL     1     -10.779  10.619  69.134  1.00  0.00    -0.228 C  
BRANCH  21  22
HETATM   22  C   UNL     1     -10.888  10.274  67.628  1.00  0.00    -0.363 C  
HETATM   23  C   UNL     1      -9.931  10.830  66.533  1.00  0.00    -0.213 C  
BRANCH  23  24
HETATM   24  N   UNL     1      -8.455  10.818  66.624  1.00  0.00    -0.137 NA 
HETATM   25  C   UNL     1      -7.899  10.286  65.354  1.00  0.00    -0.149 C  
HETATM   26  C   UNL     1      -7.925   9.959  67.698  1.00  0.00    -0.109 C  
ENDBRANCH  23  24
ENDBRANCH  21  22
ENDBRANCH  19  21
BRANCH  19  27
HETATM   27  C   UNL     1     -12.136   9.216  70.658  1.00  0.00    -0.068 C  
HETATM   28  O   UNL     1     -12.758   8.215  70.319  1.00  0.00     0.633 OA 
BRANCH  27  29
HETATM   29  N   UNL     1     -12.643  10.081  71.607  1.00  0.00    -0.399 N  
HETATM   30  H   UNL     1     -12.220  11.000  71.738  1.00  0.00     0.000 HD 
BRANCH  29  31
HETATM   31  C   UNL     1     -13.771   9.683  72.413  1.00  0.00    -0.264 C  
HETATM   32  C   UNL     1     -14.318   8.346  71.969  1.00  0.00    -0.555 C  
ENDBRANCH  29  31
ENDBRANCH  27  29
ENDBRANCH  19  27
ENDBRANCH  15  18
BRANCH  16  33
HETATM   33  C   UNL     1      -9.997   4.816  72.982  1.00  0.00    -0.152 C  
BRANCH  33  34
HETATM   34  C   UNL     1     -10.749   3.533  73.215  1.00  0.00    -0.291 C  
HETATM   35  C   UNL     1     -10.287   2.283  73.082  1.00  0.00    -0.218 C  
ENDBRANCH  33  34
ENDBRANCH  16  33
TORSDOF 9
ENDMDL
MODEL      165
REMARK 921   NORMALIZED FREE ENERGY PREDICTED BY IDOCK:   -3.56 KCAL/MOL
REMARK 922        TOTAL FREE ENERGY PREDICTED BY IDOCK:   -6.14 KCAL/MOL
REMARK 923 INTER-LIGAND FREE ENERGY PREDICTED BY IDOCK:   -5.75 KCAL/MOL
REMARK 924 INTRA-LIGAND FREE ENERGY PREDICTED BY IDOCK:   -0.39 KCAL/MOL
REMARK 927      BINDING AFFINITY PREDICTED BY RF-SCORE:    0.00 PKD
ROOT
HETATM    1  C   UNL     1      -9.725  11.328  68.342  1.00  0.00    -0.194 C  
HETATM    2  C   UNL     1     -10.827  10.653  69.159  1.00  0.00    -0.279 C  
HETATM    3  C   UNL     1     -10.306   9.304  69.483  1.00  0.00    -0.223 A  
HETATM    4  C   UNL     1     -10.840   8.047  69.513  1.00  0.00    -0.129 A  
HETATM    5  N   UNL     1      -9.889   7.225  70.076  1.00  0.00    -0.175 NA 
HETATM    6  H   UNL     1     -10.009   6.227  70.249  1.00  0.00     0.000 HD 
HETATM    7  C   UNL     1      -8.754   7.945  70.371  1.00  0.00    -0.137 A  
HETATM    8  C   UNL     1      -7.615   7.682  71.120  1.00  0.00    -0.080 A  
HETATM    9  C   UNL     1      -6.663   8.717  71.194  1.00  0.00    -0.068 A  
HETATM   10  C   UNL     1      -6.775   9.902  70.436  1.00  0.00    -0.136 A  
HETATM   11  C   UNL     1      -7.908  10.136  69.654  1.00  0.00    -0.181 A  
HETATM   12  C   UNL     1      -8.230  11.416  68.888  1.00  0.00    -0.054 C  
HETATM   13  C   UNL     1      -8.924   9.172  69.765  1.00  0.00    -0.168 A  
HETATM   14  C   UNL     1      -7.349  11.859  67.656  1.00  0.00    -0.123 C  
HETATM   15  C   UNL     1      -8.106  11.590  66.296  1.00  0.00    -0.014 C  
HETATM   16  N   UNL     1     -10.131  12.577  67.701  1.00  0.00    -0.213 NA 
HETATM   17  C   UNL     1      -9.424  12.522  66.385  1.00  0.00    -0.233 C  
ENDROOT
BRANCH  15  18
HETATM   18  C   UNL     1      -7.970   9.963  66.077  1.00  0.00    -0.114 C  
HETATM   19  N   UNL     1      -8.406   9.210  64.975  1.00  0.00    -0.149 N  
HETATM   20  O   UNL     1      -7.319   9.364  66.934  1.00  0.00    -0.089 OA 
BRANCH  19  21
HETATM   21  C   UNL     1      -7.973   7.765  64.902  1.00  0.00    -0.139 C  
BRANCH  21  22
HETATM   22  C   UNL     1      -8.011   6.983  63.565  1.00  0.00    -0.070 C  
HETATM   23  C   UNL     1      -7.466   5.537  63.383  1.00  0.00    -0.057 C  
BRANCH  23  24
HETATM   24  N   UNL     1      -7.787   4.401  64.275  1.00  0.00    -0.084 NA 
HETATM   25  C   UNL     1      -7.219   3.158  63.695  1.00  0.00    -0.050 C  
HETATM   26  C   UNL     1      -9.232   4.156  64.441  1.00  0.00    -0.150 C  
ENDBRANCH  23  24
ENDBRANCH  21  22
ENDBRANCH  19  21
BRANCH  19  27
HETATM   27  C   UNL     1      -8.799   9.817  63.790  1.00  0.00    -0.235 C  
HETATM   28  O   UNL     1      -8.061   9.986  62.825  1.00  0.00    -0.128 OA 
BRANCH  27  29
HETATM   29  N   UNL     1     -10.132  10.175  63.738  1.00  0.00    -0.467 N  
HETATM   30  H   UNL     1     -10.849   9.517  64.041  1.00  0.00     0.000 HD 
BRANCH  29  31
HETATM   31  C   UNL     1     -10.507  11.481  63.254  1.00  0.00    -0.362 C  
HETATM   32  C   UNL     1     -11.910  11.842  63.684  1.00  0.00    -0.573 C  
ENDBRANCH  29  31
ENDBRANCH  27  29
ENDBRANCH  19  27
ENDBRANCH  15  18
BRANCH  16  33
HETATM   33  C   UNL     1      -9.870  13.726  68.596  1.00  0.00    -0.157 C  
BRANCH  33  34
HETATM   34  C   UNL     1     -10.631  14.998  68.335  1.00  0.00    -0.239 C  
HETATM   35  C   UNL     1     -10.308  15.980  67.484  1.00  0.00    -0.287 C  
ENDBRANCH  33  34
ENDBRANCH  16  33
TORSDOF 9
ENDMDL
MODEL      166
REMARK 921   NORMALIZED FREE ENERGY PREDICTED BY IDOCK:   -3.53 KCAL/MOL
REMARK 922        TOTAL FREE ENERGY PREDICTED BY IDOCK:   -6.10 KCAL/MOL
REMARK 923 INTER-LIGAND FREE ENERGY PREDICTED BY IDOCK:   -5.22 KCAL/MOL
REMARK 924 INTRA-LIGAND FREE ENERGY PREDICTED BY IDOCK:   -0.88 KCAL/MOL
REMARK 927      BINDING AFFINITY PREDICTED BY RF-SCORE:    0.00 PKD
ROOT
HETATM    1  C   UNL     1      -8.181   7.770  69.727  1.00  0.00    -0.129 C  
HETATM    2  C   UNL     1      -7.430   9.045  70.110  1.00  0.00    -0.072 C  
HETATM    3  C   UNL     1      -8.260  10.160  69.597  1.00  0.00    -0.176 A  
HETATM    4  C   UNL     1      -8.001  11.343  68.964  1.00  0.00    -0.024 A  
HETATM    5  N   UNL     1      -9.191  12.034  68.910  1.00  0.00    -0.392 NA 
HETATM    6  H   UNL     1      -9.308  12.965  68.511  1.00  0.00     0.000 HD 
HETATM    7  C   UNL     1     -10.200  11.286  69.474  1.00  0.00     0.159 A  
HETATM    8  C   UNL     1     -11.501  11.568  69.870  1.00  0.00    -0.340 A  
HETATM    9  C   UNL     1     -12.226  10.502  70.437  1.00  0.00    -0.415 A  
HETATM   10  C   UNL     1     -11.726   9.182  70.471  1.00  0.00    -0.193 A  
HETATM   11  C   UNL     1     -10.431   8.905  70.030  1.00  0.00    -0.227 A  
HETATM   12  C   UNL     1      -9.710   7.564  70.124  1.00  0.00    -0.172 C  
HETATM   13  C   UNL     1      -9.669  10.027  69.661  1.00  0.00    -0.255 A  
HETATM   14  C   UNL     1     -10.208   6.324  69.284  1.00  0.00    -0.236 C  
HETATM   15  C   UNL     1      -9.248   6.051  68.059  1.00  0.00    -0.115 C  
HETATM   16  N   UNL     1      -7.412   6.541  69.914  1.00  0.00    -0.086 NA 
HETATM   17  C   UNL     1      -7.823   5.710  68.741  1.00  0.00    -0.096 C  
ENDROOT
BRANCH  15  18
HETATM   18  C   UNL     1      -9.651   7.219  66.969  1.00  0.00    -0.166 C  
HETATM   19  N   UNL     1      -8.778   8.025  66.219  1.00  0.00    -0.145 N  
HETATM   20  O   UNL     1     -10.851   7.316  66.713  1.00  0.00    -0.311 OA 
BRANCH  19  21
HETATM   21  C   UNL     1      -9.379   8.871  65.123  1.00  0.00     0.058 C  
BRANCH  21  22
HETATM   22  C   UNL     1      -8.572  10.015  64.460  1.00  0.00    -0.197 C  
HETATM   23  C   UNL     1      -9.214  11.205  63.690  1.00  0.00    -0.156 C  
BRANCH  23  24
HETATM   24  N   UNL     1     -10.328  12.033  64.202  1.00  0.00    -0.319 NA 
HETATM   25  C   UNL     1     -10.507  11.756  65.650  1.00  0.00    -0.265 C  
HETATM   26  C   UNL     1     -11.628  11.754  63.566  1.00  0.00    -0.387 C  
ENDBRANCH  23  24
ENDBRANCH  21  22
ENDBRANCH  19  21
BRANCH  19  27
HETATM   27  C   UNL     1      -7.420   7.743  66.135  1.00  0.00    -0.079 C  
HETATM   28  O   UNL     1      -6.551   8.362  66.738  1.00  0.00    -0.056 OA 
BRANCH  27  29
HETATM   29  N   UNL     1      -7.104   6.649  65.355  1.00  0.00    -0.062 N  
HETATM   30  H   UNL     1      -6.207   6.179  65.474  1.00  0.00     0.000 HD 
BRANCH  29  31
HETATM   31  C   UNL     1      -8.045   6.172  64.371  1.00  0.00    -0.102 C  
HETATM   32  C   UNL     1      -7.478   5.007  63.591  1.00  0.00    -0.056 C  
ENDBRANCH  29  31
ENDBRANCH  27  29
ENDBRANCH  19  27
ENDBRANCH  15  18
BRANCH  16  33
HETATM   33  C   UNL     1      -7.627   5.998  71.274  1.00  0.00    -0.094 C  
BRANCH  33  34
HETATM   34  C   UNL     1      -6.491   6.109  72.255  1.00  0.00    -0.058 C  
HETATM   35  C   UNL     1      -6.105   7.196  72.934  1.00  0.00    -0.055 C  
ENDBRANCH  33  34
ENDBRANCH  16  33
TORSDOF 9
ENDMDL
MODEL      167
REMARK 921   NORMALIZED FREE ENERGY PREDICTED BY IDOCK:   -3.48 KCAL/MOL
REMARK 922        TOTAL FREE ENERGY PREDICTED BY IDOCK:   -6.03 KCAL/MOL
REMARK 923 INTER-LIGAND FREE ENERGY PREDICTED BY IDOCK:   -4.63 KCAL/MOL
REMARK 924 INTRA-LIGAND FREE ENERGY PREDICTED BY IDOCK:   -1.40 KCAL/MOL
REMARK 927      BINDING AFFINITY PREDICTED BY RF-SCORE:    0.00 PKD
ROOT
HETATM    1  C   UNL     1      -7.765   8.568  69.964  1.00  0.00    -0.086 C  
HETATM    2  C   UNL     1      -6.499   9.423  69.922  1.00  0.00    -0.046 C  
HETATM    3  C   UNL     1      -6.640  10.276  68.718  1.00  0.00    -0.052 A  
HETATM    4  C   UNL     1      -5.798  10.688  67.724  1.00  0.00    -0.043 A  
HETATM    5  N   UNL     1      -6.483  11.627  66.986  1.00  0.00    -0.138 NA 
HETATM    6  H   UNL     1      -6.103  12.131  66.186  1.00  0.00     0.000 HD 
HETATM    7  C   UNL     1      -7.756  11.787  67.486  1.00  0.00    -0.143 A  
HETATM    8  C   UNL     1      -8.762  12.721  67.277  1.00  0.00    -0.200 A  
HETATM    9  C   UNL     1      -9.946  12.540  68.016  1.00  0.00    -0.219 A  
HETATM   10  C   UNL     1     -10.171  11.397  68.815  1.00  0.00    -0.209 A  
HETATM   11  C   UNL     1      -9.165  10.444  68.984  1.00  0.00    -0.194 A  
HETATM   12  C   UNL     1      -9.212   9.234  69.911  1.00  0.00    -0.209 C  
HETATM   13  C   UNL     1      -7.931  10.763  68.393  1.00  0.00    -0.124 A  
HETATM   14  C   UNL     1     -10.219   8.050  69.637  1.00  0.00    -0.208 C  
HETATM   15  C   UNL     1      -9.465   6.792  69.050  1.00  0.00    -0.133 C  
HETATM   16  N   UNL     1      -7.719   7.473  70.931  1.00  0.00    -0.088 NA 
HETATM   17  C   UNL     1      -8.432   6.369  70.219  1.00  0.00    -0.135 C  
ENDROOT
BRANCH  15  18
HETATM   18  C   UNL     1      -9.182   7.195  67.478  1.00  0.00    -0.125 C  
HETATM   19  N   UNL     1      -8.097   6.800  66.678  1.00  0.00    -0.108 N  
HETATM   20  O   UNL     1     -10.080   7.826  66.921  1.00  0.00    -0.236 OA 
BRANCH  19  21
HETATM   21  C   UNL     1      -8.168   7.116  65.202  1.00  0.00    -0.113 C  
BRANCH  21  22
HETATM   22  C   UNL     1      -7.441   8.349  64.611  1.00  0.00    -0.098 C  
HETATM   23  C   UNL     1      -8.016   9.237  63.469  1.00  0.00    -0.144 C  
BRANCH  23  24
HETATM   24  N   UNL     1      -9.384   9.797  63.449  1.00  0.00    -0.193 NA 
HETATM   25  C   UNL     1      -9.417  10.957  62.523  1.00  0.00    -0.241 C  
HETATM   26  C   UNL     1      -9.849  10.299  64.755  1.00  0.00    -0.334 C  
ENDBRANCH  23  24
ENDBRANCH  21  22
ENDBRANCH  19  21
BRANCH  19  27
HETATM   27  C   UNL     1      -7.234   5.786  67.072  1.00  0.00    -0.075 C  
HETATM   28  O   UNL     1      -6.311   5.938  67.865  1.00  0.00    -0.037 OA 
BRANCH  27  29
HETATM   29  N   UNL     1      -7.525   4.543  66.547  1.00  0.00    -0.081 N  
HETATM   30  H   UNL     1      -7.447   4.381  65.543  1.00  0.00     0.000 HD 
BRANCH  29  31
HETATM   31  C   UNL     1      -7.941   3.473  67.421  1.00  0.00    -0.082 C  
HETATM   32  C   UNL     1      -6.826   3.066  68.357  1.00  0.00    -0.048 C  
ENDBRANCH  29  31
ENDBRANCH  27  29
ENDBRANCH  19  27
ENDBRANCH  15  18
BRANCH  16  33
HETATM   33  C   UNL     1      -8.239   7.919  72.243  1.00  0.00    -0.129 C  
BRANCH  33  34
HETATM   34  C   UNL     1      -8.869   6.880  73.131  1.00  0.00    -0.142 C  
HETATM   35  C   UNL     1      -8.838   6.826  74.469  1.00  0.00    -0.212 C  
ENDBRANCH  33  34
ENDBRANCH  16  33
TORSDOF 9
ENDMDL
MODEL      168
REMARK 921   NORMALIZED FREE ENERGY PREDICTED BY IDOCK:   -3.47 KCAL/MOL
REMARK 922        TOTAL FREE ENERGY PREDICTED BY IDOCK:   -6.00 KCAL/MOL
REMARK 923 INTER-LIGAND FREE ENERGY PREDICTED BY IDOCK:   -4.70 KCAL/MOL
REMARK 924 INTRA-LIGAND FREE ENERGY PREDICTED BY IDOCK:   -1.30 KCAL/MOL
REMARK 927      BINDING AFFINITY PREDICTED BY RF-SCORE:    0.00 PKD
ROOT
HETATM    1  C   UNL     1      -9.963   7.992  68.503  1.00  0.00    -0.192 C  
HETATM    2  C   UNL     1     -10.796   6.741  68.221  1.00  0.00    -0.290 C  
HETATM    3  C   UNL     1     -10.461   5.792  69.309  1.00  0.00    -0.358 A  
HETATM    4  C   UNL     1     -10.221   4.448  69.376  1.00  0.00     0.207 A  
HETATM    5  N   UNL     1     -10.147   4.124  70.712  1.00  0.00    -0.110 NA 
HETATM    6  H   UNL     1      -9.996   3.184  71.077  1.00  0.00     0.000 HD 
HETATM    7  C   UNL     1     -10.307   5.253  71.484  1.00  0.00    -0.221 A  
HETATM    8  C   UNL     1     -10.531   5.470  72.837  1.00  0.00    -0.250 A  
HETATM    9  C   UNL     1     -10.659   6.812  73.242  1.00  0.00    -0.335 A  
HETATM   10  C   UNL     1     -10.427   7.892  72.362  1.00  0.00    -0.339 A  
HETATM   11  C   UNL     1     -10.161   7.658  71.012  1.00  0.00    -0.196 A  
HETATM   12  C   UNL     1     -10.019   8.716  69.922  1.00  0.00    -0.189 C  
HETATM   13  C   UNL     1     -10.241   6.315  70.607  1.00  0.00    -0.240 A  
HETATM   14  C   UNL     1      -8.805   9.726  69.935  1.00  0.00    -0.248 C  
HETATM   15  C   UNL     1      -7.739   9.339  68.835  1.00  0.00    -0.079 C  
HETATM   16  N   UNL     1      -9.947   8.962  67.411  1.00  0.00    -0.192 NA 
HETATM   17  C   UNL     1      -8.543   9.473  67.439  1.00  0.00    -0.125 C  
ENDROOT
BRANCH  15  18
HETATM   18  C   UNL     1      -6.945   8.049  69.484  1.00  0.00    -0.050 C  
HETATM   19  N   UNL     1      -6.129   8.036  70.627  1.00  0.00    -0.033 N  
HETATM   20  O   UNL     1      -7.185   6.961  68.962  1.00  0.00    -0.085 OA 
BRANCH  19  21
HETATM   21  C   UNL     1      -5.689   6.691  71.153  1.00  0.00    -0.028 C  
BRANCH  21  22
HETATM   22  C   UNL     1      -6.688   5.740  71.858  1.00  0.00    -0.059 C  
HETATM   23  C   UNL     1      -7.041   4.312  71.349  1.00  0.00    -0.042 C  
BRANCH  23  24
HETATM   24  N   UNL     1      -6.045   3.288  70.964  1.00  0.00    -0.017 NA 
HETATM   25  C   UNL     1      -6.290   2.882  69.557  1.00  0.00    -0.029 C  
HETATM   26  C   UNL     1      -6.110   2.053  71.767  1.00  0.00    -0.014 C  
ENDBRANCH  23  24
ENDBRANCH  21  22
ENDBRANCH  19  21
BRANCH  19  27
HETATM   27  C   UNL     1      -6.099   9.107  71.511  1.00  0.00    -0.076 C  
HETATM   28  O   UNL     1      -6.827   9.210  72.493  1.00  0.00    -0.315 OA 
BRANCH  27  29
HETATM   29  N   UNL     1      -5.126  10.049  71.244  1.00  0.00    -0.061 N  
HETATM   30  H   UNL     1      -4.219   9.758  70.879  1.00  0.00     0.000 HD 
BRANCH  29  31
HETATM   31  C   UNL     1      -5.394  11.446  71.483  1.00  0.00     0.098 C  
HETATM   32  C   UNL     1      -5.824  12.147  70.214  1.00  0.00    -0.161 C  
ENDBRANCH  29  31
ENDBRANCH  27  29
ENDBRANCH  19  27
ENDBRANCH  15  18
BRANCH  16  33
HETATM   33  C   UNL     1     -11.055   9.931  67.563  1.00  0.00    -0.071 C  
BRANCH  33  34
HETATM   34  C   UNL     1     -10.987  11.198  66.754  1.00  0.00    -0.309 C  
HETATM   35  C   UNL     1     -10.760  11.312  65.439  1.00  0.00    -0.291 C  
ENDBRANCH  33  34
ENDBRANCH  16  33
TORSDOF 9
ENDMDL
MODEL      169
REMARK 921   NORMALIZED FREE ENERGY PREDICTED BY IDOCK:   -3.47 KCAL/MOL
REMARK 922        TOTAL FREE ENERGY PREDICTED BY IDOCK:   -6.00 KCAL/MOL
REMARK 923 INTER-LIGAND FREE ENERGY PREDICTED BY IDOCK:   -4.76 KCAL/MOL
REMARK 924 INTRA-LIGAND FREE ENERGY PREDICTED BY IDOCK:   -1.25 KCAL/MOL
REMARK 927      BINDING AFFINITY PREDICTED BY RF-SCORE:    0.00 PKD
ROOT
HETATM    1  C   UNL     1      -8.312   9.787  69.493  1.00  0.00    -0.161 C  
HETATM    2  C   UNL     1      -7.219  10.748  69.961  1.00  0.00     0.035 C  
HETATM    3  C   UNL     1      -6.978  11.657  68.816  1.00  0.00    -0.098 A  
HETATM    4  C   UNL     1      -5.867  12.199  68.233  1.00  0.00    -0.052 A  
HETATM    5  N   UNL     1      -6.312  13.119  67.310  1.00  0.00    -0.449 NA 
HETATM    6  H   UNL     1      -5.709  13.701  66.729  1.00  0.00     0.000 HD 
HETATM    7  C   UNL     1      -7.688  13.139  67.284  1.00  0.00    -0.098 A  
HETATM    8  C   UNL     1      -8.628  13.994  66.724  1.00  0.00    -0.081 A  
HETATM    9  C   UNL     1      -9.980  13.667  66.946  1.00  0.00    -0.260 A  
HETATM   10  C   UNL     1     -10.374  12.464  67.570  1.00  0.00    -0.223 A  
HETATM   11  C   UNL     1      -9.416  11.592  68.092  1.00  0.00    -0.184 A  
HETATM   12  C   UNL     1      -9.689  10.329  68.902  1.00  0.00    -0.193 C  
HETATM   13  C   UNL     1      -8.090  12.050  68.030  1.00  0.00    -0.153 A  
HETATM   14  C   UNL     1     -10.389   9.081  68.235  1.00  0.00    -0.252 C  
HETATM   15  C   UNL     1      -9.343   7.931  67.955  1.00  0.00    -0.152 C  
HETATM   16  N   UNL     1      -8.526   8.644  70.379  1.00  0.00    -0.129 NA 
HETATM   17  C   UNL     1      -8.796   7.527  69.422  1.00  0.00    -0.136 C  
ENDROOT
BRANCH  15  18
HETATM   18  C   UNL     1      -8.525   8.450  66.623  1.00  0.00    -0.111 C  
HETATM   19  N   UNL     1      -7.352   7.905  66.075  1.00  0.00    -0.073 N  
HETATM   20  O   UNL     1      -9.068   9.351  65.984  1.00  0.00    -0.158 OA 
BRANCH  19  21
HETATM   21  C   UNL     1      -6.911   8.416  64.724  1.00  0.00    -0.072 C  
BRANCH  21  22
HETATM   22  C   UNL     1      -7.517   7.849  63.417  1.00  0.00    -0.122 C  
HETATM   23  C   UNL     1      -8.740   8.468  62.680  1.00  0.00     0.014 C  
BRANCH  23  24
HETATM   24  N   UNL     1      -8.879   9.902  62.346  1.00  0.00    -0.221 NA 
HETATM   25  C   UNL     1      -7.617  10.603  62.693  1.00  0.00    -0.077 C  
HETATM   26  C   UNL     1      -9.951  10.592  63.087  1.00  0.00    -0.231 C  
ENDBRANCH  23  24
ENDBRANCH  21  22
ENDBRANCH  19  21
BRANCH  19  27
HETATM   27  C   UNL     1      -6.870   6.666  66.477  1.00  0.00    -0.061 C  
HETATM   28  O   UNL     1      -7.460   5.607  66.296  1.00  0.00    -0.080 OA 
BRANCH  27  29
HETATM   29  N   UNL     1      -5.616   6.693  67.054  1.00  0.00    -0.013 N  
HETATM   30  H   UNL     1      -4.894   6.046  66.738  1.00  0.00     0.000 HD 
BRANCH  29  31
HETATM   31  C   UNL     1      -5.330   7.637  68.107  1.00  0.00    -0.027 C  
HETATM   32  C   UNL     1      -5.207   6.944  69.445  1.00  0.00    -0.014 C  
ENDBRANCH  29  31
ENDBRANCH  27  29
ENDBRANCH  19  27
ENDBRANCH  15  18
BRANCH  16  33
HETATM   33  C   UNL     1      -9.549   8.964  71.398  1.00  0.00    -0.289 C  
BRANCH  33  34
HETATM   34  C   UNL     1     -10.341   7.819  71.972  1.00  0.00    -0.267 C  
HETATM   35  C   UNL     1     -11.672   7.727  72.087  1.00  0.00    -0.368 C  
ENDBRANCH  33  34
ENDBRANCH  16  33
TORSDOF 9
ENDMDL
MODEL      170
REMARK 921   NORMALIZED FREE ENERGY PREDICTED BY IDOCK:   -3.40 KCAL/MOL
REMARK 922        TOTAL FREE ENERGY PREDICTED BY IDOCK:   -5.90 KCAL/MOL
REMARK 923 INTER-LIGAND FREE ENERGY PREDICTED BY IDOCK:   -4.60 KCAL/MOL
REMARK 924 INTRA-LIGAND FREE ENERGY PREDICTED BY IDOCK:   -1.31 KCAL/MOL
REMARK 927      BINDING AFFINITY PREDICTED BY RF-SCORE:    0.00 PKD
ROOT
HETATM    1  C   UNL     1      -8.800   8.061  67.803  1.00  0.00    -0.126 C  
HETATM    2  C   UNL     1      -7.300   7.830  67.621  1.00  0.00    -0.092 C  
HETATM    3  C   UNL     1      -6.646   8.645  68.671  1.00  0.00    -0.055 A  
HETATM    4  C   UNL     1      -5.541   9.448  68.719  1.00  0.00    -0.037 A  
HETATM    5  N   UNL     1      -5.351   9.783  70.042  1.00  0.00    -0.036 NA 
HETATM    6  H   UNL     1      -4.588  10.361  70.394  1.00  0.00     0.000 HD 
HETATM    7  C   UNL     1      -6.340   9.225  70.820  1.00  0.00    -0.074 A  
HETATM    8  C   UNL     1      -6.510   9.059  72.188  1.00  0.00     0.044 A  
HETATM    9  C   UNL     1      -7.686   8.402  72.596  1.00  0.00    -0.136 A  
HETATM   10  C   UNL     1      -8.713   8.058  71.690  1.00  0.00    -0.169 A  
HETATM   11  C   UNL     1      -8.546   8.268  70.320  1.00  0.00    -0.127 A  
HETATM   12  C   UNL     1      -9.503   7.833  69.215  1.00  0.00    -0.155 C  
HETATM   13  C   UNL     1      -7.280   8.739  69.935  1.00  0.00    -0.051 A  
HETATM   14  C   UNL     1     -10.936   8.485  69.090  1.00  0.00     0.054 C  
HETATM   15  C   UNL     1     -10.989   9.502  67.883  1.00  0.00    -0.172 C  
HETATM   16  N   UNL     1      -9.624   7.551  66.710  1.00  0.00    -0.193 NA 
HETATM   17  C   UNL     1     -10.691   8.591  66.582  1.00  0.00     0.129 C  
ENDROOT
BRANCH  15  18
HETATM   18  C   UNL     1     -10.202  10.834  68.450  1.00  0.00    -0.175 C  
HETATM   19  N   UNL     1      -9.540  11.819  67.698  1.00  0.00    -0.180 N  
HETATM   20  O   UNL     1     -10.300  11.035  69.660  1.00  0.00    -0.123 OA 
BRANCH  19  21
HETATM   21  C   UNL     1      -9.082  13.061  68.425  1.00  0.00    -0.129 C  
BRANCH  21  22
HETATM   22  C   UNL     1      -7.665  13.644  68.200  1.00  0.00    -0.138 C  
HETATM   23  C   UNL     1      -7.320  14.707  67.116  1.00  0.00     0.053 C  
BRANCH  23  24
HETATM   24  N   UNL     1      -8.076  15.960  66.899  1.00  0.00    -0.225 NA 
HETATM   25  C   UNL     1      -8.630  16.419  68.198  1.00  0.00    -0.193 C  
HETATM   26  C   UNL     1      -9.226  15.819  65.987  1.00  0.00    -0.344 C  
ENDBRANCH  23  24
ENDBRANCH  21  22
ENDBRANCH  19  21
BRANCH  19  27
HETATM   27  C   UNL     1      -9.694  11.907  66.320  1.00  0.00    -0.229 C  
HETATM   28  O   UNL     1      -8.944  11.375  65.509  1.00  0.00    -0.183 OA 
BRANCH  27  29
HETATM   29  N   UNL     1     -10.813  12.601  65.907  1.00  0.00    -0.265 N  
HETATM   30  H   UNL     1     -11.552  12.823  66.574  1.00  0.00     0.000 HD 
BRANCH  29  31
HETATM   31  C   UNL     1     -10.936  13.012  64.529  1.00  0.00    -0.358 C  
HETATM   32  C   UNL     1     -12.383  13.047  64.095  1.00  0.00    -0.429 C  
ENDBRANCH  29  31
ENDBRANCH  27  29
ENDBRANCH  19  27
ENDBRANCH  15  18
BRANCH  16  33
HETATM   33  C   UNL     1     -10.029   6.153  66.976  1.00  0.00    -0.162 C  
BRANCH  33  34
HETATM   34  C   UNL     1      -9.373   5.070  66.162  1.00  0.00    -0.157 C  
HETATM   35  C   UNL     1      -9.946   3.969  65.659  1.00  0.00    -0.162 C  
ENDBRANCH  33  34
ENDBRANCH  16  33
TORSDOF 9
ENDMDL
MODEL      171
REMARK 921   NORMALIZED FREE ENERGY PREDICTED BY IDOCK:   -3.35 KCAL/MOL
REMARK 922        TOTAL FREE ENERGY PREDICTED BY IDOCK:   -5.82 KCAL/MOL
REMARK 923 INTER-LIGAND FREE ENERGY PREDICTED BY IDOCK:   -6.42 KCAL/MOL
REMARK 924 INTRA-LIGAND FREE ENERGY PREDICTED BY IDOCK:    0.60 KCAL/MOL
REMARK 927      BINDING AFFINITY PREDICTED BY RF-SCORE:    0.00 PKD
ROOT
HETATM    1  C   UNL     1     -10.090  12.203  67.440  1.00  0.00    -0.199 C  
HETATM    2  C   UNL     1      -9.303  13.506  67.584  1.00  0.00    -0.216 C  
HETATM    3  C   UNL     1      -7.890  13.094  67.761  1.00  0.00    -0.152 A  
HETATM    4  C   UNL     1      -6.859  13.505  68.559  1.00  0.00    -0.099 A  
HETATM    5  N   UNL     1      -5.732  12.846  68.122  1.00  0.00    -0.078 NA 
HETATM    6  H   UNL     1      -4.798  12.965  68.512  1.00  0.00     0.000 HD 
HETATM    7  C   UNL     1      -6.048  12.004  67.080  1.00  0.00    -0.132 A  
HETATM    8  C   UNL     1      -5.296  11.293  66.154  1.00  0.00    -0.116 A  
HETATM    9  C   UNL     1      -6.018  10.539  65.210  1.00  0.00    -0.124 A  
HETATM   10  C   UNL     1      -7.419  10.384  65.278  1.00  0.00    -0.113 A  
HETATM   11  C   UNL     1      -8.160  11.072  66.241  1.00  0.00    -0.159 A  
HETATM   12  C   UNL     1      -9.680  11.108  66.357  1.00  0.00    -0.235 C  
HETATM   13  C   UNL     1      -7.426  11.970  67.035  1.00  0.00    -0.106 A  
HETATM   14  C   UNL     1     -10.489   9.807  66.738  1.00  0.00    -0.259 C  
HETATM   15  C   UNL     1     -10.992   9.873  68.234  1.00  0.00    -0.248 C  
HETATM   16  N   UNL     1     -11.541  12.368  67.509  1.00  0.00    -0.348 NA 
HETATM   17  C   UNL     1     -11.978  11.153  68.264  1.00  0.00    -0.101 C  
ENDROOT
BRANCH  15  18
HETATM   18  C   UNL     1      -9.643   9.550  69.123  1.00  0.00    -0.170 C  
HETATM   19  N   UNL     1      -9.585   9.098  70.452  1.00  0.00    -0.206 N  
HETATM   20  O   UNL     1      -8.576   9.616  68.513  1.00  0.00    -0.117 OA 
BRANCH  19  21
HETATM   21  C   UNL     1      -8.239   8.662  70.981  1.00  0.00    -0.150 C  
BRANCH  21  22
HETATM   22  C   UNL     1      -8.025   8.381  72.489  1.00  0.00    -0.166 C  
HETATM   23  C   UNL     1      -8.203   6.984  73.151  1.00  0.00    -0.105 C  
BRANCH  23  24
HETATM   24  N   UNL     1      -7.606   5.731  72.639  1.00  0.00    -0.096 NA 
HETATM   25  C   UNL     1      -6.220   6.009  72.182  1.00  0.00    -0.042 C  
HETATM   26  C   UNL     1      -8.314   5.156  71.481  1.00  0.00    -0.120 C  
ENDBRANCH  23  24
ENDBRANCH  21  22
ENDBRANCH  19  21
BRANCH  19  27
HETATM   27  C   UNL     1     -10.713   8.622  71.108  1.00  0.00    -0.240 C  
HETATM   28  O   UNL     1     -11.026   7.438  71.165  1.00  0.00    -0.241 OA 
BRANCH  27  29
HETATM   29  N   UNL     1     -11.450   9.587  71.765  1.00  0.00    -0.359 N  
HETATM   30  H   UNL     1     -10.982  10.264  72.368  1.00  0.00     0.000 HD 
BRANCH  29  31
HETATM   31  C   UNL     1     -12.882   9.635  71.598  1.00  0.00    -0.405 C  
HETATM   32  C   UNL     1     -13.412  11.034  71.815  1.00  0.00    -0.260 C  
ENDBRANCH  29  31
ENDBRANCH  27  29
ENDBRANCH  19  27
ENDBRANCH  15  18
BRANCH  16  33
HETATM   33  C   UNL     1     -12.099  12.599  66.158  1.00  0.00    -0.333 C  
BRANCH  33  34
HETATM   34  C   UNL     1     -11.298  13.450  65.210  1.00  0.00    -0.313 C  
HETATM   35  C   UNL     1     -11.464  14.753  64.948  1.00  0.00    -0.412 C  
ENDBRANCH  33  34
ENDBRANCH  16  33
TORSDOF 9
ENDMDL
MODEL      172
REMARK 921   NORMALIZED FREE ENERGY PREDICTED BY IDOCK:   -3.32 KCAL/MOL
REMARK 922        TOTAL FREE ENERGY PREDICTED BY IDOCK:   -5.78 KCAL/MOL
REMARK 923 INTER-LIGAND FREE ENERGY PREDICTED BY IDOCK:   -4.90 KCAL/MOL
REMARK 924 INTRA-LIGAND FREE ENERGY PREDICTED BY IDOCK:   -0.88 KCAL/MOL
REMARK 927      BINDING AFFINITY PREDICTED BY RF-SCORE:    0.00 PKD
ROOT
HETATM    1  C   UNL     1      -8.149   9.927  66.329  1.00  0.00    -0.114 C  
HETATM    2  C   UNL     1      -7.613  11.232  65.741  1.00  0.00     0.251 C  
HETATM    3  C   UNL     1      -7.667  12.215  66.850  1.00  0.00    -0.049 A  
HETATM    4  C   UNL     1      -8.026  13.529  66.956  1.00  0.00     0.051 A  
HETATM    5  N   UNL     1      -7.680  13.934  68.226  1.00  0.00    -0.126 NA 
HETATM    6  H   UNL     1      -7.807  14.876  68.594  1.00  0.00     0.000 HD 
HETATM    7  C   UNL     1      -7.138  12.881  68.929  1.00  0.00    -0.063 A  
HETATM    8  C   UNL     1      -6.445  12.779  70.127  1.00  0.00     0.176 A  
HETATM    9  C   UNL     1      -6.032  11.486  70.502  1.00  0.00    -0.093 A  
HETATM   10  C   UNL     1      -6.421  10.332  69.788  1.00  0.00    -0.080 A  
HETATM   11  C   UNL     1      -7.154  10.447  68.605  1.00  0.00    -0.076 A  
HETATM   12  C   UNL     1      -7.532   9.309  67.662  1.00  0.00    -0.088 C  
HETATM   13  C   UNL     1      -7.372  11.760  68.159  1.00  0.00    -0.094 A  
HETATM   14  C   UNL     1      -8.543   8.187  68.121  1.00  0.00    -0.129 C  
HETATM   15  C   UNL     1      -9.956   8.390  67.445  1.00  0.00    -0.274 C  
HETATM   16  N   UNL     1      -8.421   8.889  65.337  1.00  0.00    -0.151 NA 
HETATM   17  C   UNL     1      -9.663   8.243  65.863  1.00  0.00     0.089 C  
ENDROOT
BRANCH  15  18
HETATM   18  C   UNL     1     -10.628   9.635  68.290  1.00  0.00    -0.225 C  
HETATM   19  N   UNL     1     -11.073   9.621  69.622  1.00  0.00    -0.223 N  
HETATM   20  O   UNL     1     -10.640  10.723  67.713  1.00  0.00    -0.197 OA 
BRANCH  19  21
HETATM   21  C   UNL     1     -11.449  10.945  70.245  1.00  0.00    -0.302 C  
BRANCH  21  22
HETATM   22  C   UNL     1     -12.864  11.183  70.827  1.00  0.00    -0.322 C  
HETATM   23  C   UNL     1     -13.178  12.180  71.980  1.00  0.00    -0.391 C  
BRANCH  23  24
HETATM   24  N   UNL     1     -12.718  13.585  72.022  1.00  0.00    -0.216 NA 
HETATM   25  C   UNL     1     -13.888  14.468  72.260  1.00  0.00    -0.486 C  
HETATM   26  C   UNL     1     -12.096  14.054  70.770  1.00  0.00    -0.345 C  
ENDBRANCH  23  24
ENDBRANCH  21  22
ENDBRANCH  19  21
BRANCH  19  27
HETATM   27  C   UNL     1     -10.758   8.578  70.483  1.00  0.00    -0.221 C  
HETATM   28  O   UNL     1     -11.193   7.437  70.369  1.00  0.00    -0.266 OA 
BRANCH  27  29
HETATM   29  N   UNL     1      -9.848   8.897  71.470  1.00  0.00    -0.294 N  
HETATM   30  H   UNL     1      -9.792   9.853  71.824  1.00  0.00     0.000 HD 
BRANCH  29  31
HETATM   31  C   UNL     1      -8.974   7.879  72.000  1.00  0.00    -0.141 C  
HETATM   32  C   UNL     1      -8.537   8.210  73.408  1.00  0.00    -0.313 C  
ENDBRANCH  29  31
ENDBRANCH  27  29
ENDBRANCH  19  27
ENDBRANCH  15  18
BRANCH  16  33
HETATM   33  C   UNL     1      -7.222   8.047  65.128  1.00  0.00    -0.065 C  
BRANCH  33  34
HETATM   34  C   UNL     1      -7.433   6.565  64.964  1.00  0.00    -0.085 C  
HETATM   35  C   UNL     1      -6.577   5.675  64.446  1.00  0.00    -0.045 C  
ENDBRANCH  33  34
ENDBRANCH  16  33
TORSDOF 9
ENDMDL
MODEL      173
REMARK 921   NORMALIZED FREE ENERGY PREDICTED BY IDOCK:   -3.28 KCAL/MOL
REMARK 922        TOTAL FREE ENERGY PREDICTED BY IDOCK:   -5.71 KCAL/MOL
REMARK 923 INTER-LIGAND FREE ENERGY PREDICTED BY IDOCK:   -5.27 KCAL/MOL
REMARK 924 INTRA-LIGAND FREE ENERGY PREDICTED BY IDOCK:   -0.44 KCAL/MOL
REMARK 927      BINDING AFFINITY PREDICTED BY RF-SCORE:    0.00 PKD
ROOT
HETATM    1  C   UNL     1     -10.115  10.057  66.884  1.00  0.00    -0.229 C  
HETATM    2  C   UNL     1     -10.601   8.624  66.663  1.00  0.00    -0.131 C  
HETATM    3  C   UNL     1     -10.205   7.882  67.883  1.00  0.00    -0.263 A  
HETATM    4  C   UNL     1      -9.679   6.645  68.131  1.00  0.00    -0.130 A  
HETATM    5  N   UNL     1      -9.707   6.468  69.497  1.00  0.00    -0.151 NA 
HETATM    6  H   UNL     1      -9.397   5.627  69.983  1.00  0.00     0.000 HD 
HETATM    7  C   UNL     1     -10.216   7.591  70.111  1.00  0.00    -0.206 A  
HETATM    8  C   UNL     1     -10.657   7.867  71.398  1.00  0.00    -0.246 A  
HETATM    9  C   UNL     1     -11.135   9.171  71.628  1.00  0.00    -0.445 A  
HETATM   10  C   UNL     1     -11.040  10.193  70.658  1.00  0.00    -0.397 A  
HETATM   11  C   UNL     1     -10.556   9.910  69.379  1.00  0.00    -0.250 A  
HETATM   12  C   UNL     1     -10.516  10.870  68.195  1.00  0.00    -0.211 C  
HETATM   13  C   UNL     1     -10.279   8.556  69.128  1.00  0.00    -0.218 A  
HETATM   14  C   UNL     1      -9.573  12.136  68.218  1.00  0.00    -0.210 C  
HETATM   15  C   UNL     1      -8.314  11.919  67.289  1.00  0.00    -0.169 C  
HETATM   16  N   UNL     1     -10.177  10.902  65.694  1.00  0.00    -0.256 NA 
HETATM   17  C   UNL     1      -8.939  11.733  65.810  1.00  0.00    -0.010 C  
ENDROOT
BRANCH  15  18
HETATM   18  C   UNL     1      -7.341  10.917  68.164  1.00  0.00    -0.089 C  
HETATM   19  N   UNL     1      -6.303  11.283  69.036  1.00  0.00    -0.055 N  
HETATM   20  O   UNL     1      -7.634   9.722  68.121  1.00  0.00    -0.081 OA 
BRANCH  19  21
HETATM   21  C   UNL     1      -5.698  10.197  69.894  1.00  0.00    -0.045 C  
BRANCH  21  22
HETATM   22  C   UNL     1      -6.532   9.480  70.984  1.00  0.00    -0.071 C  
HETATM   23  C   UNL     1      -6.755   7.941  71.042  1.00  0.00    -0.038 C  
BRANCH  23  24
HETATM   24  N   UNL     1      -5.678   6.933  70.934  1.00  0.00    -0.027 NA 
HETATM   25  C   UNL     1      -5.981   6.024  69.800  1.00  0.00    -0.025 C  
HETATM   26  C   UNL     1      -5.536   6.073  72.124  1.00  0.00    -0.026 C  
ENDBRANCH  23  24
ENDBRANCH  21  22
ENDBRANCH  19  21
BRANCH  19  27
HETATM   27  C   UNL     1      -6.138  12.595  69.459  1.00  0.00    -0.119 C  
HETATM   28  O   UNL     1      -6.575  13.038  70.516  1.00  0.00     0.191 OA 
BRANCH  27  29
HETATM   29  N   UNL     1      -5.374  13.381  68.620  1.00  0.00    -0.071 N  
HETATM   30  H   UNL     1      -4.423  13.099  68.381  1.00  0.00     0.000 HD 
BRANCH  29  31
HETATM   31  C   UNL     1      -5.922  14.602  68.082  1.00  0.00    -0.139 C  
HETATM   32  C   UNL     1      -5.127  15.806  68.534  1.00  0.00    -0.093 C  
ENDBRANCH  29  31
ENDBRANCH  27  29
ENDBRANCH  19  27
ENDBRANCH  15  18
BRANCH  16  33
HETATM   33  C   UNL     1     -11.485  11.590  65.615  1.00  0.00    -0.005 C  
BRANCH  33  34
HETATM   34  C   UNL     1     -11.790  12.362  64.359  1.00  0.00    -0.461 C  
HETATM   35  C   UNL     1     -12.625  12.013  63.372  1.00  0.00    -0.592 C  
ENDBRANCH  33  34
ENDBRANCH  16  33
TORSDOF 9
ENDMDL
MODEL      174
REMARK 921   NORMALIZED FREE ENERGY PREDICTED BY IDOCK:   -3.24 KCAL/MOL
REMARK 922        TOTAL FREE ENERGY PREDICTED BY IDOCK:   -5.65 KCAL/MOL
REMARK 923 INTER-LIGAND FREE ENERGY PREDICTED BY IDOCK:   -5.74 KCAL/MOL
REMARK 924 INTRA-LIGAND FREE ENERGY PREDICTED BY IDOCK:    0.09 KCAL/MOL
REMARK 927      BINDING AFFINITY PREDICTED BY RF-SCORE:    0.00 PKD
ROOT
HETATM    1  C   UNL     1      -8.790  11.176  67.667  1.00  0.00    -0.136 C  
HETATM    2  C   UNL     1      -7.551  11.453  68.519  1.00  0.00    -0.129 C  
HETATM    3  C   UNL     1      -6.751  10.207  68.467  1.00  0.00    -0.057 A  
HETATM    4  C   UNL     1      -6.035   9.482  69.377  1.00  0.00    -0.033 A  
HETATM    5  N   UNL     1      -5.360   8.512  68.670  1.00  0.00    -0.036 NA 
HETATM    6  H   UNL     1      -4.724   7.828  69.079  1.00  0.00     0.000 HD 
HETATM    7  C   UNL     1      -5.667   8.600  67.331  1.00  0.00    -0.039 A  
HETATM    8  C   UNL     1      -5.127   8.039  66.181  1.00  0.00    -0.025 A  
HETATM    9  C   UNL     1      -5.734   8.405  64.964  1.00  0.00    -0.044 A  
HETATM   10  C   UNL     1      -6.915   9.177  64.910  1.00  0.00    -0.088 A  
HETATM   11  C   UNL     1      -7.470   9.700  66.079  1.00  0.00    -0.099 A  
HETATM   12  C   UNL     1      -8.659  10.652  66.168  1.00  0.00    -0.163 C  
HETATM   13  C   UNL     1      -6.724   9.482  67.249  1.00  0.00    -0.072 A  
HETATM   14  C   UNL     1     -10.105  10.173  65.754  1.00  0.00    -0.324 C  
HETATM   15  C   UNL     1     -11.003   9.923  67.030  1.00  0.00    -0.098 C  
HETATM   16  N   UNL     1      -9.840  12.186  67.788  1.00  0.00    -0.194 NA 
HETATM   17  C   UNL     1     -11.092  11.371  67.742  1.00  0.00    -0.265 C  
ENDROOT
BRANCH  15  18
HETATM   18  C   UNL     1     -10.465   8.481  67.619  1.00  0.00    -0.241 C  
HETATM   19  N   UNL     1     -10.228   8.143  68.962  1.00  0.00    -0.216 N  
HETATM   20  O   UNL     1     -10.362   7.575  66.793  1.00  0.00    -0.288 OA 
BRANCH  19  21
HETATM   21  C   UNL     1      -9.948   6.692  69.276  1.00  0.00    -0.158 C  
BRANCH  21  22
HETATM   22  C   UNL     1     -10.681   5.554  68.523  1.00  0.00    -0.161 C  
HETATM   23  C   UNL     1     -10.245   5.004  67.134  1.00  0.00    -0.186 C  
BRANCH  23  24
HETATM   24  N   UNL     1      -8.865   4.602  66.787  1.00  0.00    -0.111 NA 
HETATM   25  C   UNL     1      -8.219   4.011  67.986  1.00  0.00    -0.092 C  
HETATM   26  C   UNL     1      -8.001   5.719  66.362  1.00  0.00    -0.102 C  
ENDBRANCH  23  24
ENDBRANCH  21  22
ENDBRANCH  19  21
BRANCH  19  27
HETATM   27  C   UNL     1     -10.674   8.946  70.003  1.00  0.00    -0.228 C  
HETATM   28  O   UNL     1      -9.973   9.766  70.588  1.00  0.00    -0.262 OA 
BRANCH  27  29
HETATM   29  N   UNL     1     -12.012   8.807  70.309  1.00  0.00    -0.451 N  
HETATM   30  H   UNL     1     -12.702   8.735  69.561  1.00  0.00     0.000 HD 
BRANCH  29  31
HETATM   31  C   UNL     1     -12.434   8.762  71.688  1.00  0.00    -0.339 C  
HETATM   32  C   UNL     1     -12.911  10.116  72.160  1.00  0.00    -0.436 C  
ENDBRANCH  29  31
ENDBRANCH  27  29
ENDBRANCH  19  27
ENDBRANCH  15  18
BRANCH  16  33
HETATM   33  C   UNL     1      -9.652  13.251  66.778  1.00  0.00    -0.258 C  
BRANCH  33  34
HETATM   34  C   UNL     1      -8.986  14.525  67.226  1.00  0.00    -0.220 C  
HETATM   35  C   UNL     1      -8.296  15.390  66.472  1.00  0.00    -0.184 C  
ENDBRANCH  33  34
ENDBRANCH  16  33
TORSDOF 9
ENDMDL
MODEL      175
REMARK 921   NORMALIZED FREE ENERGY PREDICTED BY IDOCK:   -3.19 KCAL/MOL
REMARK 922        TOTAL FREE ENERGY PREDICTED BY IDOCK:   -5.58 KCAL/MOL
REMARK 923 INTER-LIGAND FREE ENERGY PREDICTED BY IDOCK:   -4.50 KCAL/MOL
REMARK 924 INTRA-LIGAND FREE ENERGY PREDICTED BY IDOCK:   -1.07 KCAL/MOL
REMARK 927      BINDING AFFINITY PREDICTED BY RF-SCORE:    0.00 PKD
ROOT
HETATM    1  C   UNL     1     -10.551  10.108  68.571  1.00  0.00    -0.216 C  
HETATM    2  C   UNL     1     -11.092   8.678  68.590  1.00  0.00     0.259 C  
HETATM    3  C   UNL     1     -10.026   7.847  67.982  1.00  0.00    -0.213 A  
HETATM    4  C   UNL     1     -10.003   6.804  67.099  1.00  0.00    -0.167 A  
HETATM    5  N   UNL     1      -8.708   6.338  67.069  1.00  0.00    -0.108 NA 
HETATM    6  H   UNL     1      -8.385   5.546  66.513  1.00  0.00     0.000 HD 
HETATM    7  C   UNL     1      -7.911   7.095  67.898  1.00  0.00    -0.115 A  
HETATM    8  C   UNL     1      -6.626   6.942  68.400  1.00  0.00    -0.062 A  
HETATM    9  C   UNL     1      -6.165   7.959  69.258  1.00  0.00    -0.035 A  
HETATM   10  C   UNL     1      -6.897   9.145  69.485  1.00  0.00    -0.048 A  
HETATM   11  C   UNL     1      -8.173   9.303  68.940  1.00  0.00    -0.111 A  
HETATM   12  C   UNL     1      -9.131  10.461  69.201  1.00  0.00    -0.197 C  
HETATM   13  C   UNL     1      -8.678   8.183  68.258  1.00  0.00    -0.133 A  
HETATM   14  C   UNL     1      -8.788  11.917  68.695  1.00  0.00    -0.041 C  
HETATM   15  C   UNL     1      -9.659  12.295  67.432  1.00  0.00    -0.179 C  
HETATM   16  N   UNL     1     -11.545  11.130  68.893  1.00  0.00    -0.290 NA 
HETATM   17  C   UNL     1     -11.181  12.251  67.972  1.00  0.00    -0.269 C  
ENDROOT
BRANCH  15  18
HETATM   18  C   UNL     1      -8.946  11.471  66.196  1.00  0.00    -0.197 C  
HETATM   19  N   UNL     1      -9.490  11.192  64.931  1.00  0.00    -0.221 N  
HETATM   20  O   UNL     1      -7.769  11.160  66.374  1.00  0.00    -0.152 OA 
BRANCH  19  21
HETATM   21  C   UNL     1      -8.564  10.613  63.887  1.00  0.00    -0.093 C  
BRANCH  21  22
HETATM   22  C   UNL     1      -8.548   9.094  63.586  1.00  0.00    -0.180 C  
HETATM   23  C   UNL     1      -7.365   8.353  62.897  1.00  0.00    -0.100 C  
BRANCH  23  24
HETATM   24  N   UNL     1      -5.947   8.481  63.298  1.00  0.00    -0.077 NA 
HETATM   25  C   UNL     1      -5.159   7.413  62.632  1.00  0.00    -0.034 C  
HETATM   26  C   UNL     1      -5.714   8.324  64.746  1.00  0.00    -0.044 C  
ENDBRANCH  23  24
ENDBRANCH  21  22
ENDBRANCH  19  21
BRANCH  19  27
HETATM   27  C   UNL     1     -10.644  11.819  64.482  1.00  0.00    -0.313 C  
HETATM   28  O   UNL     1     -11.681  11.229  64.196  1.00  0.00    -0.082 OA 
BRANCH  27  29
HETATM   29  N   UNL     1     -10.573  13.196  64.434  1.00  0.00    -0.405 N  
HETATM   30  H   UNL     1      -9.667  13.659  64.357  1.00  0.00     0.000 HD 
BRANCH  29  31
HETATM   31  C   UNL     1     -11.782  13.982  64.494  1.00  0.00    -0.413 C  
HETATM   32  C   UNL     1     -12.513  13.964  63.171  1.00  0.00     0.545 C  
ENDBRANCH  29  31
ENDBRANCH  27  29
ENDBRANCH  19  27
ENDBRANCH  15  18
BRANCH  16  33
HETATM   33  C   UNL     1     -11.566  11.391  70.349  1.00  0.00    -0.172 C  
BRANCH  33  34
HETATM   34  C   UNL     1     -12.807  11.003  71.108  1.00  0.00    -0.491 C  
HETATM   35  C   UNL     1     -12.875  10.405  72.305  1.00  0.00    -0.151 C  
ENDBRANCH  33  34
ENDBRANCH  16  33
TORSDOF 9
ENDMDL
MODEL      176
REMARK 921   NORMALIZED FREE ENERGY PREDICTED BY IDOCK:   -3.17 KCAL/MOL
REMARK 922        TOTAL FREE ENERGY PREDICTED BY IDOCK:   -5.55 KCAL/MOL
REMARK 923 INTER-LIGAND FREE ENERGY PREDICTED BY IDOCK:   -5.69 KCAL/MOL
REMARK 924 INTRA-LIGAND FREE ENERGY PREDICTED BY IDOCK:    0.14 KCAL/MOL
REMARK 927      BINDING AFFINITY PREDICTED BY RF-SCORE:    0.00 PKD
ROOT
HETATM    1  C   UNL     1      -8.338   9.799  66.778  1.00  0.00    -0.124 C  
HETATM    2  C   UNL     1      -6.965  10.441  66.973  1.00  0.00    -0.090 C  
HETATM    3  C   UNL     1      -6.346   9.711  68.105  1.00  0.00    -0.056 A  
HETATM    4  C   UNL     1      -5.606  10.072  69.195  1.00  0.00    -0.034 A  
HETATM    5  N   UNL     1      -5.167   8.906  69.781  1.00  0.00    -0.030 NA 
HETATM    6  H   UNL     1      -4.572   8.855  70.608  1.00  0.00     0.000 HD 
HETATM    7  C   UNL     1      -5.649   7.817  69.090  1.00  0.00    -0.029 A  
HETATM    8  C   UNL     1      -5.356   6.460  69.107  1.00  0.00    -0.012 A  
HETATM    9  C   UNL     1      -6.079   5.653  68.208  1.00  0.00    -0.021 A  
HETATM   10  C   UNL     1      -7.148   6.156  67.433  1.00  0.00    -0.070 A  
HETATM   11  C   UNL     1      -7.459   7.517  67.458  1.00  0.00    -0.104 A  
HETATM   12  C   UNL     1      -8.491   8.224  66.586  1.00  0.00    -0.124 C  
HETATM   13  C   UNL     1      -6.587   8.319  68.212  1.00  0.00    -0.060 A  
HETATM   14  C   UNL     1     -10.031   7.920  66.756  1.00  0.00    -0.333 C  
HETATM   15  C   UNL     1     -10.761   9.105  67.502  1.00  0.00    -0.255 C  
HETATM   16  N   UNL     1      -9.223  10.534  65.876  1.00  0.00    -0.171 NA 
HETATM   17  C   UNL     1     -10.563  10.374  66.520  1.00  0.00    -0.151 C  
ENDROOT
BRANCH  15  18
HETATM   18  C   UNL     1     -10.332   8.907  69.081  1.00  0.00    -0.220 C  
HETATM   19  N   UNL     1     -10.604   9.772  70.154  1.00  0.00    -0.264 N  
HETATM   20  O   UNL     1      -9.807   7.829  69.357  1.00  0.00    -0.171 OA 
BRANCH  19  21
HETATM   21  C   UNL     1     -10.302   9.271  71.546  1.00  0.00    -0.294 C  
BRANCH  21  22
HETATM   22  C   UNL     1     -10.724   7.850  71.995  1.00  0.00    -0.299 C  
HETATM   23  C   UNL     1      -9.724   6.692  72.285  1.00  0.00    -0.148 C  
BRANCH  23  24
HETATM   24  N   UNL     1      -8.527   6.814  73.145  1.00  0.00    -0.118 NA 
HETATM   25  C   UNL     1      -8.903   7.516  74.398  1.00  0.00    -0.148 C  
HETATM   26  C   UNL     1      -7.432   7.599  72.546  1.00  0.00    -0.080 C  
ENDBRANCH  23  24
ENDBRANCH  21  22
ENDBRANCH  19  21
BRANCH  19  27
HETATM   27  C   UNL     1     -11.514  10.814  70.035  1.00  0.00    -0.331 C  
HETATM   28  O   UNL     1     -12.711  10.713  70.279  1.00  0.00    -0.319 OA 
BRANCH  27  29
HETATM   29  N   UNL     1     -10.961  12.026  69.674  1.00  0.00    -0.459 N  
HETATM   30  H   UNL     1      -9.953  12.109  69.543  1.00  0.00     0.000 HD 
BRANCH  29  31
HETATM   31  C   UNL     1     -11.811  13.176  69.483  1.00  0.00    -0.322 C  
HETATM   32  C   UNL     1     -11.505  13.873  68.177  1.00  0.00    -0.346 C  
ENDBRANCH  29  31
ENDBRANCH  27  29
ENDBRANCH  19  27
ENDBRANCH  15  18
BRANCH  16  33
HETATM   33  C   UNL     1      -9.048  10.064  64.484  1.00  0.00    -0.243 C  
BRANCH  33  34
HETATM   34  C   UNL     1      -7.660   9.673  64.051  1.00  0.00    -0.128 C  
HETATM   35  C   UNL     1      -6.949  10.186  63.039  1.00  0.00    -0.133 C  
ENDBRANCH  33  34
ENDBRANCH  16  33
TORSDOF 9
ENDMDL
MODEL      177
REMARK 921   NORMALIZED FREE ENERGY PREDICTED BY IDOCK:   -3.17 KCAL/MOL
REMARK 922        TOTAL FREE ENERGY PREDICTED BY IDOCK:   -5.54 KCAL/MOL
REMARK 923 INTER-LIGAND FREE ENERGY PREDICTED BY IDOCK:   -6.45 KCAL/MOL
REMARK 924 INTRA-LIGAND FREE ENERGY PREDICTED BY IDOCK:    0.91 KCAL/MOL
REMARK 927      BINDING AFFINITY PREDICTED BY RF-SCORE:    0.00 PKD
ROOT
HETATM    1  C   UNL     1      -8.793   9.677  67.096  1.00  0.00    -0.132 C  
HETATM    2  C   UNL     1      -7.463   9.195  66.517  1.00  0.00    -0.093 C  
HETATM    3  C   UNL     1      -6.623  10.409  66.397  1.00  0.00    -0.099 A  
HETATM    4  C   UNL     1      -5.758  10.894  65.456  1.00  0.00    -0.079 A  
HETATM    5  N   UNL     1      -5.142  11.993  66.011  1.00  0.00    -0.255 NA 
HETATM    6  H   UNL     1      -4.427  12.556  65.552  1.00  0.00     0.000 HD 
HETATM    7  C   UNL     1      -5.633  12.223  67.277  1.00  0.00    -0.122 A  
HETATM    8  C   UNL     1      -5.231  13.030  68.333  1.00  0.00    -0.071 A  
HETATM    9  C   UNL     1      -6.013  12.966  69.501  1.00  0.00    -0.111 A  
HETATM   10  C   UNL     1      -7.224  12.242  69.561  1.00  0.00     0.312 A  
HETATM   11  C   UNL     1      -7.638  11.467  68.476  1.00  0.00    -0.129 A  
HETATM   12  C   UNL     1      -8.844  10.535  68.438  1.00  0.00    -0.140 C  
HETATM   13  C   UNL     1      -6.730  11.398  67.406  1.00  0.00    -0.094 A  
HETATM   14  C   UNL     1     -10.311  11.114  68.520  1.00  0.00    -0.207 C  
HETATM   15  C   UNL     1     -11.014  11.071  67.106  1.00  0.00    -0.344 C  
HETATM   16  N   UNL     1      -9.861   8.680  67.060  1.00  0.00    -0.197 NA 
HETATM   17  C   UNL     1     -11.070   9.498  66.739  1.00  0.00     0.425 C  
ENDROOT
BRANCH  15  18
HETATM   18  C   UNL     1     -10.336  12.329  66.285  1.00  0.00    -0.232 C  
HETATM   19  N   UNL     1     -10.950  13.537  65.917  1.00  0.00    -0.278 N  
HETATM   20  O   UNL     1      -9.129  12.232  66.067  1.00  0.00    -0.146 OA 
BRANCH  19  21
HETATM   21  C   UNL     1     -10.065  14.629  65.363  1.00  0.00    -0.372 C  
BRANCH  21  22
HETATM   22  C   UNL     1      -8.970  15.291  66.236  1.00  0.00    -0.314 C  
HETATM   23  C   UNL     1      -8.714  16.825  66.300  1.00  0.00    -0.307 C  
BRANCH  23  24
HETATM   24  N   UNL     1      -9.766  17.843  66.511  1.00  0.00    -0.316 NA 
HETATM   25  C   UNL     1      -9.193  19.189  66.257  1.00  0.00    -0.313 C  
HETATM   26  C   UNL     1     -10.305  17.878  67.883  1.00  0.00    -0.389 C  
ENDBRANCH  23  24
ENDBRANCH  21  22
ENDBRANCH  19  21
BRANCH  19  27
HETATM   27  C   UNL     1     -12.179  13.918  66.441  1.00  0.00    -0.449 C  
HETATM   28  O   UNL     1     -13.261  13.586  65.968  1.00  0.00    -0.104 OA 
BRANCH  27  29
HETATM   29  N   UNL     1     -12.107  14.664  67.599  1.00  0.00    -0.584 N  
HETATM   30  H   UNL     1     -12.547  15.583  67.643  1.00  0.00     0.000 HD 
BRANCH  29  31
HETATM   31  C   UNL     1     -11.407  14.143  68.748  1.00  0.00    -0.278 C  
HETATM   32  C   UNL     1     -11.979  14.694  70.035  1.00  0.00    -0.376 C  
ENDBRANCH  29  31
ENDBRANCH  27  29
ENDBRANCH  19  27
ENDBRANCH  15  18
BRANCH  16  33
HETATM   33  C   UNL     1      -9.861   7.877  68.303  1.00  0.00    -0.169 C  
BRANCH  33  34
HETATM   34  C   UNL     1      -9.984   6.383  68.167  1.00  0.00    -0.143 C  
HETATM   35  C   UNL     1     -10.590   5.703  67.186  1.00  0.00    -0.344 C  
ENDBRANCH  33  34
ENDBRANCH  16  33
TORSDOF 9
ENDMDL
MODEL      178
REMARK 921   NORMALIZED FREE ENERGY PREDICTED BY IDOCK:   -3.13 KCAL/MOL
REMARK 922        TOTAL FREE ENERGY PREDICTED BY IDOCK:   -5.49 KCAL/MOL
REMARK 923 INTER-LIGAND FREE ENERGY PREDICTED BY IDOCK:   -4.27 KCAL/MOL
REMARK 924 INTRA-LIGAND FREE ENERGY PREDICTED BY IDOCK:   -1.23 KCAL/MOL
REMARK 927      BINDING AFFINITY PREDICTED BY RF-SCORE:    0.00 PKD
ROOT
HETATM    1  C   UNL     1     -10.145  11.529  68.480  1.00  0.00    -0.207 C  
HETATM    2  C   UNL     1      -9.375  10.403  67.790  1.00  0.00    -0.155 C  
HETATM    3  C   UNL     1      -8.253  11.067  67.086  1.00  0.00    -0.133 A  
HETATM    4  C   UNL     1      -7.663  10.923  65.862  1.00  0.00    -0.073 A  
HETATM    5  N   UNL     1      -6.538  11.718  65.868  1.00  0.00    -0.043 NA 
HETATM    6  H   UNL     1      -5.879  11.803  65.094  1.00  0.00     0.000 HD 
HETATM    7  C   UNL     1      -6.432  12.383  67.069  1.00  0.00     0.011 A  
HETATM    8  C   UNL     1      -5.422  13.114  67.678  1.00  0.00    -0.073 A  
HETATM    9  C   UNL     1      -5.709  13.632  68.955  1.00  0.00    -0.075 A  
HETATM   10  C   UNL     1      -6.995  13.550  69.533  1.00  0.00     0.116 A  
HETATM   11  C   UNL     1      -8.014  12.846  68.889  1.00  0.00     0.182 A  
HETATM   12  C   UNL     1      -9.406  12.561  69.444  1.00  0.00     1.177 C  
HETATM   13  C   UNL     1      -7.633  12.175  67.716  1.00  0.00    -0.131 A  
HETATM   14  C   UNL     1     -10.434  13.737  69.680  1.00  0.00     0.377 C  
HETATM   15  C   UNL     1     -11.554  13.738  68.566  1.00  0.00    -0.373 C  
HETATM   16  N   UNL     1     -11.440  11.125  69.025  1.00  0.00    -0.267 NA 
HETATM   17  C   UNL     1     -12.301  12.317  68.754  1.00  0.00     0.307 C  
ENDROOT
BRANCH  15  18
HETATM   18  C   UNL     1     -10.804  14.377  67.246  1.00  0.00    -0.290 C  
HETATM   19  N   UNL     1     -11.207  14.279  65.904  1.00  0.00    -0.313 N  
HETATM   20  O   UNL     1      -9.842  15.108  67.483  1.00  0.00    -0.219 OA 
BRANCH  19  21
HETATM   21  C   UNL     1     -10.479  15.133  64.893  1.00  0.00    -0.319 C  
BRANCH  21  22
HETATM   22  C   UNL     1     -10.968  16.563  64.553  1.00  0.00     0.060 C  
HETATM   23  C   UNL     1     -10.815  17.787  65.502  1.00  0.00     0.087 C  
BRANCH  23  24
HETATM   24  N   UNL     1      -9.557  18.173  66.177  1.00  0.00    -0.494 NA 
HETATM   25  C   UNL     1      -9.724  17.999  67.642  1.00  0.00    -0.291 C  
HETATM   26  C   UNL     1      -9.170  19.581  65.970  1.00  0.00    -0.216 C  
ENDBRANCH  23  24
ENDBRANCH  21  22
ENDBRANCH  19  21
BRANCH  19  27
HETATM   27  C   UNL     1     -12.469  13.816  65.556  1.00  0.00    -0.512 C  
HETATM   28  O   UNL     1     -13.465  14.528  65.478  1.00  0.00    -0.336 OA 
BRANCH  27  29
HETATM   29  N   UNL     1     -12.526  12.476  65.233  1.00  0.00    -0.427 N  
HETATM   30  H   UNL     1     -13.418  11.982  65.254  1.00  0.00     0.000 HD 
BRANCH  29  31
HETATM   31  C   UNL     1     -11.320  11.773  64.866  1.00  0.00    -0.236 C  
HETATM   32  C   UNL     1     -11.164  11.700  63.364  1.00  0.00    -0.401 C  
ENDBRANCH  29  31
ENDBRANCH  27  29
ENDBRANCH  19  27
ENDBRANCH  15  18
BRANCH  16  33
HETATM   33  C   UNL     1     -11.292  10.664  70.423  1.00  0.00    -0.304 C  
BRANCH  33  34
HETATM   34  C   UNL     1     -11.425   9.188  70.687  1.00  0.00    -0.310 C  
HETATM   35  C   UNL     1     -12.078   8.598  71.697  1.00  0.00    -0.385 C  
ENDBRANCH  33  34
ENDBRANCH  16  33
TORSDOF 9
ENDMDL
MODEL      179
REMARK 921   NORMALIZED FREE ENERGY PREDICTED BY IDOCK:   -3.10 KCAL/MOL
REMARK 922        TOTAL FREE ENERGY PREDICTED BY IDOCK:   -5.44 KCAL/MOL
REMARK 923 INTER-LIGAND FREE ENERGY PREDICTED BY IDOCK:   -5.88 KCAL/MOL
REMARK 924 INTRA-LIGAND FREE ENERGY PREDICTED BY IDOCK:    0.44 KCAL/MOL
REMARK 927      BINDING AFFINITY PREDICTED BY RF-SCORE:    0.00 PKD
ROOT
HETATM    1  C   UNL     1      -7.004  15.697  67.418  1.00  0.00    -0.200 C  
HETATM    2  C   UNL     1      -7.660  16.743  66.517  1.00  0.00    -0.334 C  
HETATM    3  C   UNL     1      -9.072  16.316  66.381  1.00  0.00    -0.336 A  
HETATM    4  C   UNL     1      -9.969  16.264  65.351  1.00  0.00    -0.062 A  
HETATM    5  N   UNL     1     -11.189  15.942  65.902  1.00  0.00    -0.034 NA 
HETATM    6  H   UNL     1     -12.060  15.851  65.380  1.00  0.00     0.000 HD 
HETATM    7  C   UNL     1     -11.063  15.761  67.261  1.00  0.00    -0.211 A  
HETATM    8  C   UNL     1     -11.972  15.644  68.304  1.00  0.00    -0.019 A  
HETATM    9  C   UNL     1     -11.426  15.483  69.592  1.00  0.00    -0.337 A  
HETATM   10  C   UNL     1     -10.043  15.299  69.810  1.00  0.00    -0.230 A  
HETATM   11  C   UNL     1      -9.144  15.377  68.744  1.00  0.00    -0.207 A  
HETATM   12  C   UNL     1      -7.623  15.330  68.840  1.00  0.00    -0.152 C  
HETATM   13  C   UNL     1      -9.707  15.739  67.509  1.00  0.00    -0.226 A  
HETATM   14  C   UNL     1      -6.887  14.011  69.300  1.00  0.00    -0.105 C  
HETATM   15  C   UNL     1      -6.213  13.283  68.070  1.00  0.00    -0.129 C  
HETATM   16  N   UNL     1      -5.547  15.784  67.478  1.00  0.00    -0.282 NA 
HETATM   17  C   UNL     1      -5.128  14.350  67.524  1.00  0.00     0.253 C  
ENDROOT
BRANCH  15  18
HETATM   18  C   UNL     1      -7.475  12.560  67.294  1.00  0.00    -0.125 C  
HETATM   19  N   UNL     1      -7.459  11.349  66.584  1.00  0.00    -0.136 N  
HETATM   20  O   UNL     1      -8.571  13.097  67.449  1.00  0.00    -0.183 OA 
BRANCH  19  21
HETATM   21  C   UNL     1      -8.787  10.780  66.146  1.00  0.00    -0.177 C  
BRANCH  21  22
HETATM   22  C   UNL     1      -9.119  10.583  64.646  1.00  0.00    -0.248 C  
HETATM   23  C   UNL     1     -10.498  10.915  64.006  1.00  0.00    -0.309 C  
BRANCH  23  24
HETATM   24  N   UNL     1     -11.225  12.189  64.194  1.00  0.00    -0.340 NA 
HETATM   25  C   UNL     1     -11.585  12.332  65.628  1.00  0.00    -0.380 C  
HETATM   26  C   UNL     1     -12.490  12.279  63.441  1.00  0.00    -0.481 C  
ENDBRANCH  23  24
ENDBRANCH  21  22
ENDBRANCH  19  21
BRANCH  19  27
HETATM   27  C   UNL     1      -6.386  10.471  66.669  1.00  0.00    -0.084 C  
HETATM   28  O   UNL     1      -5.389  10.532  65.957  1.00  0.00    -0.059 OA 
BRANCH  27  29
HETATM   29  N   UNL     1      -6.485   9.533  67.676  1.00  0.00    -0.061 N  
HETATM   30  H   UNL     1      -6.575   9.834  68.647  1.00  0.00     0.000 HD 
BRANCH  29  31
HETATM   31  C   UNL     1      -6.461   8.127  67.355  1.00  0.00    -0.057 C  
HETATM   32  C   UNL     1      -7.417   7.348  68.229  1.00  0.00    -0.109 C  
ENDBRANCH  29  31
ENDBRANCH  27  29
ENDBRANCH  19  27
ENDBRANCH  15  18
BRANCH  16  33
HETATM   33  C   UNL     1      -5.127  16.678  68.580  1.00  0.00    -0.121 C  
BRANCH  33  34
HETATM   34  C   UNL     1      -5.213  18.162  68.344  1.00  0.00    -0.162 C  
HETATM   35  C   UNL     1      -5.954  19.052  69.016  1.00  0.00    -0.242 C  
ENDBRANCH  33  34
ENDBRANCH  16  33
TORSDOF 9
ENDMDL
MODEL      180
REMARK 921   NORMALIZED FREE ENERGY PREDICTED BY IDOCK:   -3.05 KCAL/MOL
REMARK 922        TOTAL FREE ENERGY PREDICTED BY IDOCK:   -5.37 KCAL/MOL
REMARK 923 INTER-LIGAND FREE ENERGY PREDICTED BY IDOCK:   -4.45 KCAL/MOL
REMARK 924 INTRA-LIGAND FREE ENERGY PREDICTED BY IDOCK:   -0.91 KCAL/MOL
REMARK 927      BINDING AFFINITY PREDICTED BY RF-SCORE:    0.00 PKD
ROOT
HETATM    1  C   UNL     1      -8.632   4.697  66.902  1.00  0.00    -0.104 C  
HETATM    2  C   UNL     1      -9.887   5.325  66.298  1.00  0.00    -0.202 C  
HETATM    3  C   UNL     1      -9.763   6.779  66.556  1.00  0.00    -0.183 A  
HETATM    4  C   UNL     1     -10.623   7.765  66.950  1.00  0.00    -0.277 A  
HETATM    5  N   UNL     1      -9.942   8.957  66.832  1.00  0.00    -0.222 NA 
HETATM    6  H   UNL     1     -10.334   9.876  67.035  1.00  0.00     0.000 HD 
HETATM    7  C   UNL     1      -8.656   8.728  66.398  1.00  0.00    -0.128 A  
HETATM    8  C   UNL     1      -7.643   9.546  65.916  1.00  0.00    -0.100 A  
HETATM    9  C   UNL     1      -6.444   8.905  65.550  1.00  0.00    -0.067 A  
HETATM   10  C   UNL     1      -6.215   7.533  65.792  1.00  0.00    -0.038 A  
HETATM   11  C   UNL     1      -7.231   6.730  66.316  1.00  0.00    -0.072 A  
HETATM   12  C   UNL     1      -7.178   5.218  66.509  1.00  0.00    -0.077 C  
HETATM   13  C   UNL     1      -8.474   7.363  66.479  1.00  0.00    -0.128 A  
HETATM   14  C   UNL     1      -6.194   4.576  67.564  1.00  0.00    -0.036 C  
HETATM   15  C   UNL     1      -6.979   4.090  68.845  1.00  0.00    -0.047 C  
HETATM   16  N   UNL     1      -8.671   3.238  66.984  1.00  0.00    -0.116 NA 
HETATM   17  C   UNL     1      -7.990   2.959  68.286  1.00  0.00    -0.061 C  
ENDROOT
BRANCH  15  18
HETATM   18  C   UNL     1      -7.294   5.480  69.671  1.00  0.00    -0.066 C  
HETATM   19  N   UNL     1      -8.308   5.700  70.618  1.00  0.00    -0.117 N  
HETATM   20  O   UNL     1      -6.480   6.389  69.511  1.00  0.00    -0.040 OA 
BRANCH  19  21
HETATM   21  C   UNL     1      -8.261   6.989  71.403  1.00  0.00    -0.109 C  
BRANCH  21  22
HETATM   22  C   UNL     1      -9.136   7.190  72.665  1.00  0.00    -0.157 C  
HETATM   23  C   UNL     1     -10.347   8.165  72.742  1.00  0.00    -0.313 C  
BRANCH  23  24
HETATM   24  N   UNL     1     -11.437   8.229  71.744  1.00  0.00    -0.275 NA 
HETATM   25  C   UNL     1     -10.853   8.106  70.385  1.00  0.00    -0.236 C  
HETATM   26  C   UNL     1     -12.191   9.496  71.756  1.00  0.00    -0.387 C  
ENDBRANCH  23  24
ENDBRANCH  21  22
ENDBRANCH  19  21
BRANCH  19  27
HETATM   27  C   UNL     1      -9.035   4.648  71.162  1.00  0.00    -0.123 C  
HETATM   28  O   UNL     1     -10.177   4.356  70.825  1.00  0.00    -0.172 OA 
BRANCH  27  29
HETATM   29  N   UNL     1      -8.349   3.890  72.089  1.00  0.00    -0.091 N  
HETATM   30  H   UNL     1      -7.500   3.395  71.817  1.00  0.00     0.000 HD 
BRANCH  29  31
HETATM   31  C   UNL     1      -8.835   3.798  73.444  1.00  0.00    -0.092 C  
HETATM   32  C   UNL     1      -9.570   2.498  73.676  1.00  0.00    -0.117 C  
ENDBRANCH  29  31
ENDBRANCH  27  29
ENDBRANCH  19  27
ENDBRANCH  15  18
BRANCH  16  33
HETATM   33  C   UNL     1      -8.113   2.636  65.752  1.00  0.00    -0.084 C  
BRANCH  33  34
HETATM   34  C   UNL     1      -9.069   2.346  64.626  1.00  0.00    -0.127 C  
HETATM   35  C   UNL     1      -8.980   2.761  63.356  1.00  0.00    -0.091 C  
ENDBRANCH  33  34
ENDBRANCH  16  33
TORSDOF 9
ENDMDL
MODEL      181
REMARK 921   NORMALIZED FREE ENERGY PREDICTED BY IDOCK:   -2.88 KCAL/MOL
REMARK 922        TOTAL FREE ENERGY PREDICTED BY IDOCK:   -5.10 KCAL/MOL
REMARK 923 INTER-LIGAND FREE ENERGY PREDICTED BY IDOCK:   -3.57 KCAL/MOL
REMARK 924 INTRA-LIGAND FREE ENERGY PREDICTED BY IDOCK:   -1.54 KCAL/MOL
REMARK 927      BINDING AFFINITY PREDICTED BY RF-SCORE:    0.00 PKD
ROOT
HETATM    1  C   UNL     1      -7.765  15.405  67.725  1.00  0.00    -0.145 C  
HETATM    2  C   UNL     1      -7.543  16.089  66.376  1.00  0.00     0.050 C  
HETATM    3  C   UNL     1      -8.796  16.830  66.099  1.00  0.00    -0.298 A  
HETATM    4  C   UNL     1      -9.569  17.034  64.991  1.00  0.00     1.857 A  
HETATM    5  N   UNL     1     -10.517  17.973  65.336  1.00  0.00    -0.564 NA 
HETATM    6  H   UNL     1     -11.226  18.345  64.705  1.00  0.00     0.000 HD 
HETATM    7  C   UNL     1     -10.366  18.337  66.655  1.00  0.00    -0.381 A  
HETATM    8  C   UNL     1     -10.884  19.362  67.436  1.00  0.00    -0.555 A  
HETATM    9  C   UNL     1     -10.458  19.401  68.777  1.00  0.00    -0.115 A  
HETATM   10  C   UNL     1      -9.668  18.381  69.350  1.00  0.00     0.113 A  
HETATM   11  C   UNL     1      -9.189  17.332  68.562  1.00  0.00    -0.273 A  
HETATM   12  C   UNL     1      -8.226  16.235  69.004  1.00  0.00    -0.238 C  
HETATM   13  C   UNL     1      -9.468  17.437  67.189  1.00  0.00    -0.257 A  
HETATM   14  C   UNL     1      -8.667  15.162  70.076  1.00  0.00     0.376 C  
HETATM   15  C   UNL     1      -8.961  13.770  69.390  1.00  0.00     0.799 C  
HETATM   16  N   UNL     1      -6.748  14.414  68.071  1.00  0.00    -0.130 NA 
HETATM   17  C   UNL     1      -7.544  13.341  68.742  1.00  0.00    -0.043 C  
ENDROOT
BRANCH  15  18
HETATM   18  C   UNL     1     -10.433  13.977  68.681  1.00  0.00    -0.247 C  
HETATM   19  N   UNL     1     -11.056  13.135  67.745  1.00  0.00    -0.253 N  
HETATM   20  O   UNL     1     -11.098  14.922  69.104  1.00  0.00    -0.244 OA 
BRANCH  19  21
HETATM   21  C   UNL     1     -12.500  13.418  67.404  1.00  0.00     0.152 C  
BRANCH  21  22
HETATM   22  C   UNL     1     -12.895  14.028  66.037  1.00  0.00    -0.258 C  
HETATM   23  C   UNL     1     -12.119  13.776  64.711  1.00  0.00    -0.410 C  
BRANCH  23  24
HETATM   24  N   UNL     1     -11.718  12.442  64.214  1.00  0.00    -0.355 NA 
HETATM   25  C   UNL     1     -10.441  12.569  63.468  1.00  0.00    -0.322 C  
HETATM   26  C   UNL     1     -12.682  11.832  63.280  1.00  0.00    -0.180 C  
ENDBRANCH  23  24
ENDBRANCH  21  22
ENDBRANCH  19  21
BRANCH  19  27
HETATM   27  C   UNL     1     -10.580  11.856  67.488  1.00  0.00    -0.219 C  
HETATM   28  O   UNL     1      -9.648  11.608  66.731  1.00  0.00    -0.186 OA 
BRANCH  27  29
HETATM   29  N   UNL     1     -11.198  10.853  68.208  1.00  0.00    -0.263 N  
HETATM   30  H   UNL     1     -11.741  10.138  67.725  1.00  0.00     0.000 HD 
BRANCH  29  31
HETATM   31  C   UNL     1     -11.075  10.819  69.645  1.00  0.00    -0.279 C  
HETATM   32  C   UNL     1     -12.424  10.649  70.307  1.00  0.00    -0.381 C  
ENDBRANCH  29  31
ENDBRANCH  27  29
ENDBRANCH  19  27
ENDBRANCH  15  18
BRANCH  16  33
HETATM   33  C   UNL     1      -5.643  15.049  68.823  1.00  0.00    -0.087 C  
BRANCH  33  34
HETATM   34  C   UNL     1      -5.126  14.329  70.040  1.00  0.00    -0.089 C  
HETATM   35  C   UNL     1      -5.266  14.694  71.321  1.00  0.00    -0.143 C  
ENDBRANCH  33  34
ENDBRANCH  16  33
TORSDOF 9
ENDMDL
MODEL      182
REMARK 921   NORMALIZED FREE ENERGY PREDICTED BY IDOCK:   -2.81 KCAL/MOL
REMARK 922        TOTAL FREE ENERGY PREDICTED BY IDOCK:   -4.99 KCAL/MOL
REMARK 923 INTER-LIGAND FREE ENERGY PREDICTED BY IDOCK:   -4.00 KCAL/MOL
REMARK 924 INTRA-LIGAND FREE ENERGY PREDICTED BY IDOCK:   -0.99 KCAL/MOL
REMARK 927      BINDING AFFINITY PREDICTED BY RF-SCORE:    0.00 PKD
ROOT
HETATM    1  C   UNL     1     -10.999   6.203  71.926  1.00  0.00    -0.263 C  
HETATM    2  C   UNL     1     -11.324   5.381  73.174  1.00  0.00    -0.325 C  
HETATM    3  C   UNL     1     -10.080   4.644  73.495  1.00  0.00    -0.195 A  
HETATM    4  C   UNL     1      -9.791   3.373  73.905  1.00  0.00    -0.108 A  
HETATM    5  N   UNL     1      -8.449   3.350  74.214  1.00  0.00    -0.083 NA 
HETATM    6  H   UNL     1      -7.946   2.538  74.569  1.00  0.00     0.000 HD 
HETATM    7  C   UNL     1      -7.886   4.583  73.973  1.00  0.00    -0.096 A  
HETATM    8  C   UNL     1      -6.668   5.165  74.300  1.00  0.00    -0.076 A  
HETATM    9  C   UNL     1      -6.476   6.492  73.873  1.00  0.00    -0.069 A  
HETATM   10  C   UNL     1      -7.395   7.156  73.031  1.00  0.00    -0.076 A  
HETATM   11  C   UNL     1      -8.598   6.542  72.676  1.00  0.00    -0.124 A  
HETATM   12  C   UNL     1      -9.739   7.178  71.887  1.00  0.00    -0.169 C  
HETATM   13  C   UNL     1      -8.842   5.301  73.286  1.00  0.00    -0.118 A  
HETATM   14  C   UNL     1      -9.547   7.569  70.370  1.00  0.00    -0.168 C  
HETATM   15  C   UNL     1     -10.290   6.544  69.425  1.00  0.00    -0.241 C  
HETATM   16  N   UNL     1     -12.163   6.813  71.288  1.00  0.00    -0.370 NA 
HETATM   17  C   UNL     1     -11.848   6.688  69.831  1.00  0.00    -0.175 C  
ENDROOT
BRANCH  15  18
HETATM   18  C   UNL     1      -9.311   5.219  69.425  1.00  0.00    -0.126 C  
HETATM   19  N   UNL     1      -8.014   5.117  68.896  1.00  0.00    -0.085 N  
HETATM   20  O   UNL     1      -9.732   4.248  70.052  1.00  0.00    -0.193 OA 
BRANCH  19  21
HETATM   21  C   UNL     1      -7.230   3.864  69.211  1.00  0.00    -0.053 C  
BRANCH  21  22
HETATM   22  C   UNL     1      -5.778   3.681  68.705  1.00  0.00    -0.022 C  
HETATM   23  C   UNL     1      -5.401   2.996  67.359  1.00  0.00    -0.016 C  
BRANCH  23  24
HETATM   24  N   UNL     1      -6.016   3.318  66.053  1.00  0.00    -0.023 NA 
HETATM   25  C   UNL     1      -6.079   2.083  65.232  1.00  0.00    -0.018 C  
HETATM   26  C   UNL     1      -5.261   4.304  65.258  1.00  0.00    -0.009 C  
ENDBRANCH  23  24
ENDBRANCH  21  22
ENDBRANCH  19  21
BRANCH  19  27
HETATM   27  C   UNL     1      -7.293   6.241  68.516  1.00  0.00    -0.086 C  
HETATM   28  O   UNL     1      -7.310   6.720  67.387  1.00  0.00    -0.090 OA 
BRANCH  27  29
HETATM   29  N   UNL     1      -6.581   6.843  69.534  1.00  0.00    -0.047 N  
HETATM   30  H   UNL     1      -6.895   6.751  70.500  1.00  0.00     0.000 HD 
BRANCH  29  31
HETATM   31  C   UNL     1      -5.393   7.603  69.229  1.00  0.00    -0.015 C  
HETATM   32  C   UNL     1      -5.170   8.701  70.244  1.00  0.00    -0.021 C  
ENDBRANCH  29  31
ENDBRANCH  27  29
ENDBRANCH  19  27
ENDBRANCH  15  18
BRANCH  16  33
HETATM   33  C   UNL     1     -12.411   8.161  71.844  1.00  0.00    -0.332 C  
BRANCH  33  34
HETATM   34  C   UNL     1     -13.784   8.749  71.656  1.00  0.00    -0.437 C  
HETATM   35  C   UNL     1     -14.392   9.660  72.428  1.00  0.00     0.228 C  
ENDBRANCH  33  34
ENDBRANCH  16  33
TORSDOF 9
ENDMDL
MODEL      183
REMARK 921   NORMALIZED FREE ENERGY PREDICTED BY IDOCK:   -2.40 KCAL/MOL
REMARK 922        TOTAL FREE ENERGY PREDICTED BY IDOCK:   -4.37 KCAL/MOL
REMARK 923 INTER-LIGAND FREE ENERGY PREDICTED BY IDOCK:   -4.38 KCAL/MOL
REMARK 924 INTRA-LIGAND FREE ENERGY PREDICTED BY IDOCK:    0.01 KCAL/MOL
REMARK 927      BINDING AFFINITY PREDICTED BY RF-SCORE:    0.00 PKD
ROOT
HETATM    1  C   UNL     1      -8.754   7.143  70.721  1.00  0.00    -0.147 C  
HETATM    2  C   UNL     1      -8.086   8.496  70.965  1.00  0.00    -0.149 C  
HETATM    3  C   UNL     1      -7.750   9.017  69.619  1.00  0.00    -0.075 A  
HETATM    4  C   UNL     1      -6.675   9.665  69.077  1.00  0.00    -0.050 A  
HETATM    5  N   UNL     1      -7.043  10.050  67.807  1.00  0.00    -0.085 NA 
HETATM    6  H   UNL     1      -6.453  10.574  67.162  1.00  0.00     0.000 HD 
HETATM    7  C   UNL     1      -8.325   9.626  67.534  1.00  0.00    -0.118 A  
HETATM    8  C   UNL     1      -9.241   9.915  66.532  1.00  0.00    -0.190 A  
HETATM    9  C   UNL     1     -10.489   9.269  66.622  1.00  0.00    -0.237 A  
HETATM   10  C   UNL     1     -10.755   8.269  67.583  1.00  0.00    -0.195 A  
HETATM   11  C   UNL     1      -9.807   7.959  68.561  1.00  0.00    -0.186 A  
HETATM   12  C   UNL     1      -9.998   7.005  69.735  1.00  0.00    -0.179 C  
HETATM   13  C   UNL     1      -8.658   8.767  68.560  1.00  0.00    -0.134 A  
HETATM   14  C   UNL     1     -10.179   5.455  69.490  1.00  0.00    -0.336 C  
HETATM   15  C   UNL     1      -8.863   4.667  69.865  1.00  0.00    -0.129 C  
HETATM   16  N   UNL     1      -8.938   6.339  71.927  1.00  0.00    -0.140 NA 
HETATM   17  C   UNL     1      -8.669   4.949  71.445  1.00  0.00    -0.129 C  
ENDROOT
BRANCH  15  18
HETATM   18  C   UNL     1      -7.847   4.962  68.601  1.00  0.00    -0.077 C  
HETATM   19  N   UNL     1      -7.839   4.330  67.347  1.00  0.00    -0.091 N  
HETATM   20  O   UNL     1      -7.083   5.916  68.746  1.00  0.00    -0.075 OA 
BRANCH  19  21
HETATM   21  C   UNL     1      -6.958   4.922  66.274  1.00  0.00    -0.067 C  
BRANCH  21  22
HETATM   22  C   UNL     1      -7.436   6.119  65.415  1.00  0.00    -0.083 C  
HETATM   23  C   UNL     1      -6.489   7.204  64.825  1.00  0.00    -0.037 C  
BRANCH  23  24
HETATM   24  N   UNL     1      -5.249   6.916  64.073  1.00  0.00    -0.027 NA 
HETATM   25  C   UNL     1      -5.139   7.870  62.940  1.00  0.00    -0.050 C  
HETATM   26  C   UNL     1      -5.203   5.566  63.481  1.00  0.00    -0.013 C  
ENDBRANCH  23  24
ENDBRANCH  21  22
ENDBRANCH  19  21
BRANCH  19  27
HETATM   27  C   UNL     1      -8.890   3.521  66.935  1.00  0.00    -0.134 C  
HETATM   28  O   UNL     1      -9.338   2.586  67.591  1.00  0.00    -0.187 OA 
BRANCH  27  29
HETATM   29  N   UNL     1      -9.459   3.881  65.730  1.00  0.00    -0.169 N  
HETATM   30  H   UNL     1      -9.391   4.845  65.401  1.00  0.00     0.000 HD 
BRANCH  29  31
HETATM   31  C   UNL     1     -10.152   2.895  64.938  1.00  0.00     0.242 C  
HETATM   32  C   UNL     1     -10.405   3.398  63.535  1.00  0.00    -0.227 C  
ENDBRANCH  29  31
ENDBRANCH  27  29
ENDBRANCH  19  27
ENDBRANCH  15  18
BRANCH  16  33
HETATM   33  C   UNL     1     -10.250   6.629  72.547  1.00  0.00    -0.182 C  
BRANCH  33  34
HETATM   34  C   UNL     1     -11.155   5.461  72.840  1.00  0.00    -0.360 C  
HETATM   35  C   UNL     1     -10.876   4.383  73.583  1.00  0.00    -0.367 C  
ENDBRANCH  33  34
ENDBRANCH  16  33
TORSDOF 9
ENDMDL
MODEL      184
REMARK 921   NORMALIZED FREE ENERGY PREDICTED BY IDOCK:   -2.36 KCAL/MOL
REMARK 922        TOTAL FREE ENERGY PREDICTED BY IDOCK:   -4.31 KCAL/MOL
REMARK 923 INTER-LIGAND FREE ENERGY PREDICTED BY IDOCK:   -5.09 KCAL/MOL
REMARK 924 INTRA-LIGAND FREE ENERGY PREDICTED BY IDOCK:    0.78 KCAL/MOL
REMARK 927      BINDING AFFINITY PREDICTED BY RF-SCORE:    0.00 PKD
ROOT
HETATM    1  C   UNL     1     -10.628   8.854  70.094  1.00  0.00    -0.222 C  
HETATM    2  C   UNL     1     -11.889   8.346  70.794  1.00  0.00    -0.178 C  
HETATM    3  C   UNL     1     -11.425   7.281  71.715  1.00  0.00    -0.300 A  
HETATM    4  C   UNL     1     -11.888   6.046  72.071  1.00  0.00    -0.224 A  
HETATM    5  N   UNL     1     -11.106   5.616  73.120  1.00  0.00    -0.364 NA 
HETATM    6  H   UNL     1     -11.226   4.732  73.613  1.00  0.00     0.000 HD 
HETATM    7  C   UNL     1     -10.137   6.552  73.405  1.00  0.00    -0.218 A  
HETATM    8  C   UNL     1      -9.253   6.731  74.460  1.00  0.00    -0.238 A  
HETATM    9  C   UNL     1      -8.411   7.857  74.385  1.00  0.00    -0.271 A  
HETATM   10  C   UNL     1      -8.351   8.681  73.240  1.00  0.00     0.080 A  
HETATM   11  C   UNL     1      -9.219   8.464  72.168  1.00  0.00    -0.313 A  
HETATM   12  C   UNL     1      -9.362   9.342  70.929  1.00  0.00    -0.313 C  
HETATM   13  C   UNL     1     -10.179   7.458  72.366  1.00  0.00    -0.240 A  
HETATM   14  C   UNL     1      -8.182   9.460  69.886  1.00  0.00    -0.155 C  
HETATM   15  C   UNL     1      -8.500   8.634  68.578  1.00  0.00    -0.131 C  
HETATM   16  N   UNL     1     -10.887   9.734  68.956  1.00  0.00    -0.217 NA 
HETATM   17  C   UNL     1      -9.827   9.336  67.979  1.00  0.00    -0.163 C  
ENDROOT
BRANCH  15  18
HETATM   18  C   UNL     1      -8.234   7.069  69.020  1.00  0.00    -0.125 C  
HETATM   19  N   UNL     1      -7.013   6.375  69.011  1.00  0.00    -0.069 N  
HETATM   20  O   UNL     1      -9.200   6.483  69.508  1.00  0.00    -0.142 OA 
BRANCH  19  21
HETATM   21  C   UNL     1      -6.979   5.016  69.668  1.00  0.00    -0.054 C  
BRANCH  21  22
HETATM   22  C   UNL     1      -6.787   3.727  68.831  1.00  0.00    -0.046 C  
HETATM   23  C   UNL     1      -7.393   2.343  69.207  1.00  0.00    -0.044 C  
BRANCH  23  24
HETATM   24  N   UNL     1      -8.807   2.119  69.577  1.00  0.00    -0.076 NA 
HETATM   25  C   UNL     1      -9.643   2.198  68.352  1.00  0.00    -0.063 C  
HETATM   26  C   UNL     1      -9.351   3.121  70.512  1.00  0.00    -0.157 C  
ENDBRANCH  23  24
ENDBRANCH  21  22
ENDBRANCH  19  21
BRANCH  19  27
HETATM   27  C   UNL     1      -5.802   7.037  68.852  1.00  0.00    -0.019 C  
HETATM   28  O   UNL     1      -5.352   7.396  67.769  1.00  0.00    -0.023 OA 
BRANCH  27  29
HETATM   29  N   UNL     1      -5.145   7.331  70.030  1.00  0.00    -0.018 N  
HETATM   30  H   UNL     1      -4.227   7.774  70.005  1.00  0.00     0.000 HD 
BRANCH  29  31
HETATM   31  C   UNL     1      -5.759   7.009  71.295  1.00  0.00    -0.035 C  
HETATM   32  C   UNL     1      -5.711   8.186  72.242  1.00  0.00    -0.040 C  
ENDBRANCH  29  31
ENDBRANCH  27  29
ENDBRANCH  19  27
ENDBRANCH  15  18
BRANCH  16  33
HETATM   33  C   UNL     1     -10.947  11.145  69.397  1.00  0.00    -0.244 C  
BRANCH  33  34
HETATM   34  C   UNL     1     -10.739  12.210  68.353  1.00  0.00    -0.252 C  
HETATM   35  C   UNL     1      -9.577  12.747  67.959  1.00  0.00    -0.217 C  
ENDBRANCH  33  34
ENDBRANCH  16  33
TORSDOF 9
ENDMDL
MODEL      185
REMARK 921   NORMALIZED FREE ENERGY PREDICTED BY IDOCK:   -2.19 KCAL/MOL
REMARK 922        TOTAL FREE ENERGY PREDICTED BY IDOCK:   -4.05 KCAL/MOL
REMARK 923 INTER-LIGAND FREE ENERGY PREDICTED BY IDOCK:   -6.41 KCAL/MOL
REMARK 924 INTRA-LIGAND FREE ENERGY PREDICTED BY IDOCK:    2.36 KCAL/MOL
REMARK 927      BINDING AFFINITY PREDICTED BY RF-SCORE:    0.00 PKD
ROOT
HETATM    1  C   UNL     1     -10.047  13.458  66.347  1.00  0.00    -0.292 C  
HETATM    2  C   UNL     1      -9.897  12.167  65.542  1.00  0.00    -0.240 C  
HETATM    3  C   UNL     1      -9.345  11.173  66.493  1.00  0.00    -0.199 A  
HETATM    4  C   UNL     1      -8.391  10.197  66.421  1.00  0.00    -0.125 A  
HETATM    5  N   UNL     1      -8.466   9.482  67.596  1.00  0.00    -0.122 NA 
HETATM    6  H   UNL     1      -7.888   8.674  67.826  1.00  0.00     0.000 HD 
HETATM    7  C   UNL     1      -9.433  10.017  68.417  1.00  0.00    -0.141 A  
HETATM    8  C   UNL     1     -10.059   9.582  69.578  1.00  0.00    -0.218 A  
HETATM    9  C   UNL     1     -11.037  10.438  70.118  1.00  0.00    -0.383 A  
HETATM   10  C   UNL     1     -11.276  11.732  69.607  1.00  0.00    -0.225 A  
HETATM   11  C   UNL     1     -10.609  12.173  68.462  1.00  0.00    -0.252 A  
HETATM   12  C   UNL     1     -10.853  13.483  67.721  1.00  0.00    -0.267 C  
HETATM   13  C   UNL     1      -9.791  11.216  67.837  1.00  0.00    -0.187 A  
HETATM   14  C   UNL     1     -10.503  14.867  68.397  1.00  0.00    -0.243 C  
HETATM   15  C   UNL     1      -9.187  15.480  67.777  1.00  0.00    -0.179 C  
HETATM   16  N   UNL     1     -10.338  14.639  65.537  1.00  0.00    -0.337 NA 
HETATM   17  C   UNL     1      -9.553  15.713  66.220  1.00  0.00    -0.308 C  
ENDROOT
BRANCH  15  18
HETATM   18  C   UNL     1      -7.974  14.599  68.462  1.00  0.00    -0.136 C  
HETATM   19  N   UNL     1      -6.759  15.076  68.979  1.00  0.00    -0.109 N  
HETATM   20  O   UNL     1      -8.215  13.403  68.628  1.00  0.00    -0.122 OA 
BRANCH  19  21
HETATM   21  C   UNL     1      -5.902  14.105  69.756  1.00  0.00    -0.113 C  
BRANCH  21  22
HETATM   22  C   UNL     1      -5.437  12.768  69.126  1.00  0.00    -0.070 C  
HETATM   23  C   UNL     1      -5.132  11.478  69.942  1.00  0.00    -0.061 C  
BRANCH  23  24
HETATM   24  N   UNL     1      -6.028  10.902  70.968  1.00  0.00    -0.360 NA 
HETATM   25  C   UNL     1      -5.342  10.940  72.284  1.00  0.00     0.416 C  
HETATM   26  C   UNL     1      -6.388   9.492  70.730  1.00  0.00    -0.091 C  
ENDBRANCH  23  24
ENDBRANCH  21  22
ENDBRANCH  19  21
BRANCH  19  27
HETATM   27  C   UNL     1      -6.545  16.431  69.199  1.00  0.00    -0.195 C  
HETATM   28  O   UNL     1      -6.062  16.893  70.227  1.00  0.00    -0.146 OA 
BRANCH  27  29
HETATM   29  N   UNL     1      -6.862  17.246  68.131  1.00  0.00    -0.177 N  
HETATM   30  H   UNL     1      -7.433  16.888  67.366  1.00  0.00     0.000 HD 
BRANCH  29  31
HETATM   31  C   UNL     1      -6.384  18.607  68.099  1.00  0.00    -0.207 C  
HETATM   32  C   UNL     1      -6.841  19.378  69.316  1.00  0.00    -0.367 C  
ENDBRANCH  29  31
ENDBRANCH  27  29
ENDBRANCH  19  27
ENDBRANCH  15  18
BRANCH  16  33
HETATM   33  C   UNL     1     -11.800  14.819  65.390  1.00  0.00    -0.249 C  
BRANCH  33  34
HETATM   34  C   UNL     1     -12.498  14.002  64.336  1.00  0.00    -0.326 C  
HETATM   35  C   UNL     1     -11.937  13.335  63.319  1.00  0.00    -0.376 C  
ENDBRANCH  33  34
ENDBRANCH  16  33
TORSDOF 9
ENDMDL
MODEL      186
REMARK 921   NORMALIZED FREE ENERGY PREDICTED BY IDOCK:   -2.11 KCAL/MOL
REMARK 922        TOTAL FREE ENERGY PREDICTED BY IDOCK:   -3.94 KCAL/MOL
REMARK 923 INTER-LIGAND FREE ENERGY PREDICTED BY IDOCK:   -4.37 KCAL/MOL
REMARK 924 INTRA-LIGAND FREE ENERGY PREDICTED BY IDOCK:    0.43 KCAL/MOL
REMARK 927      BINDING AFFINITY PREDICTED BY RF-SCORE:    0.00 PKD
ROOT
HETATM    1  C   UNL     1      -7.053   4.677  69.186  1.00  0.00    -0.052 C  
HETATM    2  C   UNL     1      -5.891   4.635  70.178  1.00  0.00    -0.013 C  
HETATM    3  C   UNL     1      -6.513   4.750  71.519  1.00  0.00    -0.023 A  
HETATM    4  C   UNL     1      -6.211   5.426  72.667  1.00  0.00    -0.046 A  
HETATM    5  N   UNL     1      -7.082   4.975  73.634  1.00  0.00    -0.080 NA 
HETATM    6  H   UNL     1      -7.086   5.284  74.606  1.00  0.00     0.000 HD 
HETATM    7  C   UNL     1      -7.946   4.047  73.099  1.00  0.00    -0.088 A  
HETATM    8  C   UNL     1      -8.847   3.144  73.647  1.00  0.00    -0.076 A  
HETATM    9  C   UNL     1      -9.550   2.332  72.735  1.00  0.00    -0.146 A  
HETATM   10  C   UNL     1      -9.465   2.517  71.338  1.00  0.00    -0.214 A  
HETATM   11  C   UNL     1      -8.585   3.459  70.802  1.00  0.00    -0.114 A  
HETATM   12  C   UNL     1      -8.289   3.680  69.322  1.00  0.00    -0.086 C  
HETATM   13  C   UNL     1      -7.756   4.105  71.734  1.00  0.00    -0.074 A  
HETATM   14  C   UNL     1      -9.402   4.245  68.355  1.00  0.00    -0.209 C  
HETATM   15  C   UNL     1      -9.127   5.759  68.001  1.00  0.00    -0.110 C  
HETATM   16  N   UNL     1      -6.647   4.834  67.791  1.00  0.00    -0.045 NA 
HETATM   17  C   UNL     1      -7.703   5.734  67.236  1.00  0.00    -0.101 C  
ENDROOT
BRANCH  15  18
HETATM   18  C   UNL     1      -9.591   6.576  69.355  1.00  0.00    -0.144 C  
HETATM   19  N   UNL     1      -9.147   7.838  69.784  1.00  0.00    -0.147 N  
HETATM   20  O   UNL     1     -10.504   6.061  69.999  1.00  0.00    -0.206 OA 
BRANCH  19  21
HETATM   21  C   UNL     1      -9.879   8.478  70.940  1.00  0.00    -0.189 C  
BRANCH  21  22
HETATM   22  C   UNL     1     -10.698   9.778  70.748  1.00  0.00    -0.393 C  
HETATM   23  C   UNL     1     -12.248   9.860  70.867  1.00  0.00    -0.328 C  
BRANCH  23  24
HETATM   24  N   UNL     1     -13.033   9.307  71.991  1.00  0.00    -0.393 NA 
HETATM   25  C   UNL     1     -12.119   8.572  72.902  1.00  0.00     0.148 C  
HETATM   26  C   UNL     1     -14.073   8.343  71.584  1.00  0.00    -0.419 C  
ENDBRANCH  23  24
ENDBRANCH  21  22
ENDBRANCH  19  21
BRANCH  19  27
HETATM   27  C   UNL     1      -8.419   8.675  68.949  1.00  0.00    -0.129 C  
HETATM   28  O   UNL     1      -7.294   9.092  69.204  1.00  0.00    -0.069 OA 
BRANCH  27  29
HETATM   29  N   UNL     1      -9.032   8.970  67.748  1.00  0.00    -0.128 N  
HETATM   30  H   UNL     1      -9.336   8.216  67.131  1.00  0.00     0.000 HD 
BRANCH  29  31
HETATM   31  C   UNL     1      -9.242  10.345  67.366  1.00  0.00    -0.142 C  
HETATM   32  C   UNL     1     -10.622  10.547  66.784  1.00  0.00    -0.284 C  
ENDBRANCH  29  31
ENDBRANCH  27  29
ENDBRANCH  19  27
ENDBRANCH  15  18
BRANCH  16  33
HETATM   33  C   UNL     1      -6.442   3.512  67.160  1.00  0.00    -0.037 C  
BRANCH  33  34
HETATM   34  C   UNL     1      -6.279   2.324  68.071  1.00  0.00    -0.025 C  
HETATM   35  C   UNL     1      -5.138   1.835  68.574  1.00  0.00    -0.008 C  
ENDBRANCH  33  34
ENDBRANCH  16  33
TORSDOF 9
ENDMDL
MODEL      187
REMARK 921   NORMALIZED FREE ENERGY PREDICTED BY IDOCK:   -1.84 KCAL/MOL
REMARK 922        TOTAL FREE ENERGY PREDICTED BY IDOCK:   -3.52 KCAL/MOL
REMARK 923 INTER-LIGAND FREE ENERGY PREDICTED BY IDOCK:   -2.82 KCAL/MOL
REMARK 924 INTRA-LIGAND FREE ENERGY PREDICTED BY IDOCK:   -0.70 KCAL/MOL
REMARK 927      BINDING AFFINITY PREDICTED BY RF-SCORE:    0.00 PKD
ROOT
HETATM    1  C   UNL     1      -8.381   6.992  66.638  1.00  0.00    -0.118 C  
HETATM    2  C   UNL     1      -9.579   7.641  65.945  1.00  0.00     0.144 C  
HETATM    3  C   UNL     1      -9.014   8.750  65.140  1.00  0.00    -0.152 A  
HETATM    4  C   UNL     1      -9.385  10.039  64.881  1.00  0.00    -0.266 A  
HETATM    5  N   UNL     1      -8.537  10.508  63.902  1.00  0.00    -0.234 NA 
HETATM    6  H   UNL     1      -8.582  11.437  63.486  1.00  0.00     0.000 HD 
HETATM    7  C   UNL     1      -7.619   9.538  63.566  1.00  0.00    -0.118 A  
HETATM    8  C   UNL     1      -6.708   9.394  62.528  1.00  0.00    -0.095 A  
HETATM    9  C   UNL     1      -5.941   8.214  62.529  1.00  0.00    -0.078 A  
HETATM   10  C   UNL     1      -5.978   7.290  63.596  1.00  0.00    -0.044 A  
HETATM   11  C   UNL     1      -6.870   7.469  64.655  1.00  0.00    -0.051 A  
HETATM   12  C   UNL     1      -7.116   6.497  65.805  1.00  0.00    -0.062 C  
HETATM   13  C   UNL     1      -7.758   8.549  64.517  1.00  0.00    -0.126 A  
HETATM   14  C   UNL     1      -5.987   6.210  66.870  1.00  0.00    -0.021 C  
HETATM   15  C   UNL     1      -6.304   6.937  68.236  1.00  0.00    -0.035 C  
HETATM   16  N   UNL     1      -8.738   6.034  67.682  1.00  0.00    -0.106 NA 
HETATM   17  C   UNL     1      -7.694   6.274  68.726  1.00  0.00    -0.100 C  
ENDROOT
BRANCH  15  18
HETATM   18  C   UNL     1      -5.923   8.514  67.947  1.00  0.00    -0.047 C  
HETATM   19  N   UNL     1      -6.279   9.633  68.717  1.00  0.00    -0.043 N  
HETATM   20  O   UNL     1      -5.154   8.710  67.007  1.00  0.00    -0.031 OA 
BRANCH  19  21
HETATM   21  C   UNL     1      -5.629  10.952  68.372  1.00  0.00    -0.043 C  
BRANCH  21  22
HETATM   22  C   UNL     1      -5.947  12.236  69.177  1.00  0.00    -0.080 C  
HETATM   23  C   UNL     1      -6.760  13.439  68.618  1.00  0.00    -0.095 C  
BRANCH  23  24
HETATM   24  N   UNL     1      -8.062  13.323  67.927  1.00  0.00    -0.145 NA 
HETATM   25  C   UNL     1      -7.942  12.322  66.837  1.00  0.00    -0.068 C  
HETATM   26  C   UNL     1      -8.522  14.571  67.291  1.00  0.00    -0.215 C  
ENDBRANCH  23  24
ENDBRANCH  21  22
ENDBRANCH  19  21
BRANCH  19  27
HETATM   27  C   UNL     1      -6.809   9.499  69.993  1.00  0.00    -0.075 C  
HETATM   28  O   UNL     1      -7.951   9.822  70.302  1.00  0.00    -0.170 OA 
BRANCH  27  29
HETATM   29  N   UNL     1      -5.967   8.902  70.909  1.00  0.00    -0.037 N  
HETATM   30  H   UNL     1      -5.134   8.405  70.590  1.00  0.00     0.000 HD 
BRANCH  29  31
HETATM   31  C   UNL     1      -6.264   8.980  72.318  1.00  0.00     0.019 C  
HETATM   32  C   UNL     1      -5.408   8.022  73.114  1.00  0.00    -0.041 C  
ENDBRANCH  29  31
ENDBRANCH  27  29
ENDBRANCH  19  27
ENDBRANCH  15  18
BRANCH  16  33
HETATM   33  C   UNL     1      -8.869   4.674  67.114  1.00  0.00    -0.108 C  
BRANCH  33  34
HETATM   34  C   UNL     1      -8.298   3.530  67.909  1.00  0.00    -0.095 C  
HETATM   35  C   UNL     1      -8.377   2.223  67.626  1.00  0.00    -0.081 C  
ENDBRANCH  33  34
ENDBRANCH  16  33
TORSDOF 9
ENDMDL
MODEL      188
REMARK 921   NORMALIZED FREE ENERGY PREDICTED BY IDOCK:   -0.43 KCAL/MOL
REMARK 922        TOTAL FREE ENERGY PREDICTED BY IDOCK:   -1.37 KCAL/MOL
REMARK 923 INTER-LIGAND FREE ENERGY PREDICTED BY IDOCK:   -0.47 KCAL/MOL
REMARK 924 INTRA-LIGAND FREE ENERGY PREDICTED BY IDOCK:   -0.90 KCAL/MOL
REMARK 927      BINDING AFFINITY PREDICTED BY RF-SCORE:    0.00 PKD
ROOT
HETATM    1  C   UNL     1      -9.712  16.161  68.013  1.00  0.00    -0.229 C  
HETATM    2  C   UNL     1     -11.009  16.964  67.919  1.00  0.00    -0.251 C  
HETATM    3  C   UNL     1     -11.982  16.241  68.770  1.00  0.00     0.136 A  
HETATM    4  C   UNL     1     -13.304  15.914  68.658  1.00  0.00     3.608 A  
HETATM    5  N   UNL     1     -13.689  15.393  69.873  1.00  0.00     0.202 NA 
HETATM    6  H   UNL     1     -14.631  15.077  70.101  1.00  0.00     0.000 HD 
HETATM    7  C   UNL     1     -12.617  15.361  70.737  1.00  0.00    -0.442 A  
HETATM    8  C   UNL     1     -12.488  15.149  72.103  1.00  0.00    -0.420 A  
HETATM    9  C   UNL     1     -11.183  15.218  72.625  1.00  0.00    -0.029 A  
HETATM   10  C   UNL     1     -10.044  15.346  71.800  1.00  0.00     2.097 A  
HETATM   11  C   UNL     1     -10.187  15.518  70.422  1.00  0.00    -0.036 A  
HETATM   12  C   UNL     1      -9.068  15.798  69.424  1.00  0.00    -0.254 C  
HETATM   13  C   UNL     1     -11.510  15.645  69.966  1.00  0.00    -0.352 A  
HETATM   14  C   UNL     1      -7.966  14.707  69.125  1.00  0.00    -0.097 C  
HETATM   15  C   UNL     1      -8.210  14.032  67.717  1.00  0.00    -0.169 C  
HETATM   16  N   UNL     1      -8.689  16.556  67.047  1.00  0.00    -0.188 NA 
HETATM   17  C   UNL     1      -8.070  15.250  66.664  1.00  0.00    -0.036 C  
ENDROOT
BRANCH  15  18
HETATM   18  C   UNL     1      -9.464  12.997  67.983  1.00  0.00    -0.217 C  
HETATM   19  N   UNL     1     -10.610  12.823  67.190  1.00  0.00    -0.236 N  
HETATM   20  O   UNL     1      -9.321  12.221  68.928  1.00  0.00     0.042 OA 
BRANCH  19  21
HETATM   21  C   UNL     1     -11.514  11.659  67.518  1.00  0.00    -0.289 C  
BRANCH  21  22
HETATM   22  C   UNL     1     -10.965  10.212  67.585  1.00  0.00    -0.331 C  
HETATM   23  C   UNL     1     -10.295   9.590  68.845  1.00  0.00    -0.208 C  
BRANCH  23  24
HETATM   24  N   UNL     1     -10.865   9.639  70.209  1.00  0.00    -0.263 NA 
HETATM   25  C   UNL     1      -9.898   9.031  71.157  1.00  0.00    -0.300 C  
HETATM   26  C   UNL     1     -12.123   8.887  70.364  1.00  0.00     0.205 C  
ENDBRANCH  23  24
ENDBRANCH  21  22
ENDBRANCH  19  21
BRANCH  19  27
HETATM   27  C   UNL     1     -10.696  13.356  65.910  1.00  0.00    -0.279 C  
HETATM   28  O   UNL     1     -11.422  14.296  65.604  1.00  0.00    -0.318 OA 
BRANCH  27  29
HETATM   29  N   UNL     1      -9.841  12.786  64.988  1.00  0.00    -0.493 N  
HETATM   30  H   UNL     1      -8.835  12.788  65.155  1.00  0.00     0.000 HD 
BRANCH  29  31
HETATM   31  C   UNL     1     -10.374  12.189  63.788  1.00  0.00    -0.437 C  
HETATM   32  C   UNL     1      -9.634  10.919  63.433  1.00  0.00    -0.364 C  
ENDBRANCH  29  31
ENDBRANCH  27  29
ENDBRANCH  19  27
ENDBRANCH  15  18
BRANCH  16  33
HETATM   33  C   UNL     1      -7.820  17.610  67.615  1.00  0.00    -0.207 C  
BRANCH  33  34
HETATM   34  C   UNL     1      -6.332  17.443  67.461  1.00  0.00    -0.166 C  
HETATM   35  C   UNL     1      -5.383  17.737  68.359  1.00  0.00    -0.154 C  
ENDBRANCH  33  34
ENDBRANCH  16  33
TORSDOF 9
ENDMDL
MODEL      189
REMARK 921   NORMALIZED FREE ENERGY PREDICTED BY IDOCK:   -0.16 KCAL/MOL
REMARK 922        TOTAL FREE ENERGY PREDICTED BY IDOCK:   -0.95 KCAL/MOL
REMARK 923 INTER-LIGAND FREE ENERGY PREDICTED BY IDOCK:   -1.57 KCAL/MOL
REMARK 924 INTRA-LIGAND FREE ENERGY PREDICTED BY IDOCK:    0.62 KCAL/MOL
REMARK 927      BINDING AFFINITY PREDICTED BY RF-SCORE:    0.00 PKD
ROOT
HETATM    1  C   UNL     1      -8.272  12.961  68.038  1.00  0.00    -0.168 C  
HETATM    2  C   UNL     1      -9.363  12.184  68.774  1.00  0.00     0.072 C  
HETATM    3  C   UNL     1     -10.583  13.019  68.665  1.00  0.00    -0.257 A  
HETATM    4  C   UNL     1     -11.593  13.365  69.517  1.00  0.00    -0.290 A  
HETATM    5  N   UNL     1     -12.540  14.024  68.764  1.00  0.00    -0.292 NA 
HETATM    6  H   UNL     1     -13.422  14.386  69.123  1.00  0.00     0.000 HD 
HETATM    7  C   UNL     1     -12.121  14.123  67.456  1.00  0.00    -0.328 A  
HETATM    8  C   UNL     1     -12.747  14.479  66.269  1.00  0.00     0.163 A  
HETATM    9  C   UNL     1     -11.955  14.435  65.107  1.00  0.00    -0.391 A  
HETATM   10  C   UNL     1     -10.565  14.189  65.149  1.00  0.00    -0.414 A  
HETATM   11  C   UNL     1      -9.940  13.873  66.356  1.00  0.00    -0.303 A  
HETATM   12  C   UNL     1      -8.483  13.458  66.539  1.00  0.00     0.288 C  
HETATM   13  C   UNL     1     -10.799  13.730  67.458  1.00  0.00    -0.274 A  
HETATM   14  C   UNL     1      -7.315  14.483  66.260  1.00  0.00     2.753 C  
HETATM   15  C   UNL     1      -6.689  15.007  67.612  1.00  0.00    -0.201 C  
HETATM   16  N   UNL     1      -6.922  12.438  68.240  1.00  0.00    -0.082 NA 
HETATM   17  C   UNL     1      -6.092  13.679  68.313  1.00  0.00    -0.108 C  
ENDROOT
BRANCH  15  18
HETATM   18  C   UNL     1      -7.794  16.095  68.168  1.00  0.00    -0.146 C  
HETATM   19  N   UNL     1      -8.382  17.154  67.456  1.00  0.00    -0.189 N  
HETATM   20  O   UNL     1      -8.223  15.885  69.302  1.00  0.00    -0.226 OA 
BRANCH  19  21
HETATM   21  C   UNL     1      -9.531  17.882  68.112  1.00  0.00    -0.288 C  
BRANCH  21  22
HETATM   22  C   UNL     1      -9.282  19.068  69.076  1.00  0.00    -0.262 C  
HETATM   23  C   UNL     1      -7.950  19.304  69.846  1.00  0.00     0.700 C  
BRANCH  23  24
HETATM   24  N   UNL     1      -6.607  19.279  69.226  1.00  0.00    -0.303 NA 
HETATM   25  C   UNL     1      -5.701  18.462  70.072  1.00  0.00    -0.241 C  
HETATM   26  C   UNL     1      -5.975  20.605  69.105  1.00  0.00    -0.336 C  
ENDBRANCH  23  24
ENDBRANCH  21  22
ENDBRANCH  19  21
BRANCH  19  27
HETATM   27  C   UNL     1      -8.270  17.252  66.076  1.00  0.00    -0.140 C  
HETATM   28  O   UNL     1      -8.686  16.406  65.290  1.00  0.00     0.258 OA 
BRANCH  27  29
HETATM   29  N   UNL     1      -7.701  18.425  65.623  1.00  0.00     0.046 N  
HETATM   30  H   UNL     1      -8.227  19.043  65.005  1.00  0.00     0.000 HD 
BRANCH  29  31
HETATM   31  C   UNL     1      -6.361  18.776  66.025  1.00  0.00    -0.210 C  
HETATM   32  C   UNL     1      -5.341  18.278  65.027  1.00  0.00    -0.146 C  
ENDBRANCH  29  31
ENDBRANCH  27  29
ENDBRANCH  19  27
ENDBRANCH  15  18
BRANCH  16  33
HETATM   33  C   UNL     1      -6.598  11.430  67.206  1.00  0.00    -0.104 C  
BRANCH  33  34
HETATM   34  C   UNL     1      -6.749   9.979  67.576  1.00  0.00    -0.072 C  
HETATM   35  C   UNL     1      -7.266   9.477  68.705  1.00  0.00    -0.073 C  
ENDBRANCH  33  34
ENDBRANCH  16  33
TORSDOF 9
ENDMDL
MODEL      190
REMARK 921   NORMALIZED FREE ENERGY PREDICTED BY IDOCK:    0.16 KCAL/MOL
REMARK 922        TOTAL FREE ENERGY PREDICTED BY IDOCK:   -0.47 KCAL/MOL
REMARK 923 INTER-LIGAND FREE ENERGY PREDICTED BY IDOCK:   -2.10 KCAL/MOL
REMARK 924 INTRA-LIGAND FREE ENERGY PREDICTED BY IDOCK:    1.63 KCAL/MOL
REMARK 927      BINDING AFFINITY PREDICTED BY RF-SCORE:    0.00 PKD
ROOT
HETATM    1  C   UNL     1      -7.190   9.226  70.611  1.00  0.00    -0.117 C  
HETATM    2  C   UNL     1      -8.030  10.495  70.465  1.00  0.00     1.182 C  
HETATM    3  C   UNL     1      -9.363  10.034  70.010  1.00  0.00    -0.165 A  
HETATM    4  C   UNL     1     -10.275  10.477  69.094  1.00  0.00    -0.224 A  
HETATM    5  N   UNL     1     -11.411   9.718  69.266  1.00  0.00    -0.452 NA 
HETATM    6  H   UNL     1     -12.274   9.831  68.736  1.00  0.00     0.000 HD 
HETATM    7  C   UNL     1     -11.213   8.784  70.258  1.00  0.00    -0.195 A  
HETATM    8  C   UNL     1     -12.057   7.940  70.968  1.00  0.00    -0.246 A  
HETATM    9  C   UNL     1     -11.450   7.125  71.942  1.00  0.00    -0.305 A  
HETATM   10  C   UNL     1     -10.048   7.050  72.098  1.00  0.00    -0.198 A  
HETATM   11  C   UNL     1      -9.209   7.875  71.347  1.00  0.00    -0.165 A  
HETATM   12  C   UNL     1      -7.696   8.000  71.495  1.00  0.00    -0.098 C  
HETATM   13  C   UNL     1      -9.862   8.815  70.533  1.00  0.00    -0.224 A  
HETATM   14  C   UNL     1      -6.749   6.790  71.131  1.00  0.00    -0.057 C  
HETATM   15  C   UNL     1      -6.014   7.044  69.756  1.00  0.00    -0.023 C  
HETATM   16  N   UNL     1      -5.762   9.470  70.806  1.00  0.00    -0.054 NA 
HETATM   17  C   UNL     1      -5.126   8.368  70.021  1.00  0.00    -0.022 C  
ENDROOT
BRANCH  15  18
HETATM   18  C   UNL     1      -7.174   6.752  68.623  1.00  0.00    -0.085 C  
HETATM   19  N   UNL     1      -7.535   5.512  68.071  1.00  0.00    -0.073 N  
HETATM   20  O   UNL     1      -7.865   7.721  68.309  1.00  0.00    -0.116 OA 
BRANCH  19  21
HETATM   21  C   UNL     1      -8.776   5.467  67.212  1.00  0.00    -0.107 C  
BRANCH  21  22
HETATM   22  C   UNL     1      -8.802   6.119  65.807  1.00  0.00    -0.133 C  
HETATM   23  C   UNL     1      -8.741   5.321  64.472  1.00  0.00    -0.072 C  
BRANCH  23  24
HETATM   24  N   UNL     1      -9.590   4.153  64.153  1.00  0.00    -0.158 NA 
HETATM   25  C   UNL     1      -8.877   2.914  64.557  1.00  0.00    -0.109 C  
HETATM   26  C   UNL     1      -9.896   4.003  62.719  1.00  0.00    -0.151 C  
ENDBRANCH  23  24
ENDBRANCH  21  22
ENDBRANCH  19  21
BRANCH  19  27
HETATM   27  C   UNL     1      -7.099   4.315  68.624  1.00  0.00    -0.052 C  
HETATM   28  O   UNL     1      -6.286   3.567  68.092  1.00  0.00    -0.034 OA 
BRANCH  27  29
HETATM   29  N   UNL     1      -7.604   4.041  69.879  1.00  0.00    -0.052 N  
HETATM   30  H   UNL     1      -7.280   4.571  70.688  1.00  0.00     0.000 HD 
BRANCH  29  31
HETATM   31  C   UNL     1      -8.591   3.001  70.045  1.00  0.00    -0.061 C  
HETATM   32  C   UNL     1      -9.403   3.213  71.303  1.00  0.00    -0.207 C  
ENDBRANCH  29  31
ENDBRANCH  27  29
ENDBRANCH  19  27
ENDBRANCH  15  18
BRANCH  16  33
HETATM   33  C   UNL     1      -5.449   9.581  72.248  1.00  0.00    -0.022 C  
BRANCH  33  34
HETATM   34  C   UNL     1      -6.511   9.154  73.226  1.00  0.00     0.299 C  
HETATM   35  C   UNL     1      -6.656   9.553  74.496  1.00  0.00     0.402 C  
ENDBRANCH  33  34
ENDBRANCH  16  33
TORSDOF 9
ENDMDL
MODEL      191
REMARK 921   NORMALIZED FREE ENERGY PREDICTED BY IDOCK:    0.17 KCAL/MOL
REMARK 922        TOTAL FREE ENERGY PREDICTED BY IDOCK:   -0.46 KCAL/MOL
REMARK 923 INTER-LIGAND FREE ENERGY PREDICTED BY IDOCK:   -1.81 KCAL/MOL
REMARK 924 INTRA-LIGAND FREE ENERGY PREDICTED BY IDOCK:    1.35 KCAL/MOL
REMARK 927      BINDING AFFINITY PREDICTED BY RF-SCORE:    0.00 PKD
ROOT
HETATM    1  C   UNL     1      -8.049  16.301  67.104  1.00  0.00    -0.188 C  
HETATM    2  C   UNL     1      -8.620  16.869  65.805  1.00  0.00     0.177 C  
HETATM    3  C   UNL     1      -9.832  17.622  66.204  1.00  0.00    -0.253 A  
HETATM    4  C   UNL     1     -11.092  17.762  65.694  1.00  0.00     0.469 A  
HETATM    5  N   UNL     1     -11.709  18.753  66.425  1.00  0.00     1.776 NA 
HETATM    6  H   UNL     1     -12.656  19.095  66.262  1.00  0.00     0.000 HD 
HETATM    7  C   UNL     1     -10.863  19.215  67.407  1.00  0.00    -0.435 A  
HETATM    8  C   UNL     1     -10.883  20.314  68.256  1.00  0.00     0.236 A  
HETATM    9  C   UNL     1      -9.788  20.447  69.131  1.00  0.00     0.185 A  
HETATM   10  C   UNL     1      -8.795  19.452  69.256  1.00  0.00    -0.034 A  
HETATM   11  C   UNL     1      -8.810  18.330  68.424  1.00  0.00    -0.321 A  
HETATM   12  C   UNL     1      -7.742  17.244  68.351  1.00  0.00    -0.247 C  
HETATM   13  C   UNL     1      -9.802  18.334  67.429  1.00  0.00    -0.323 A  
HETATM   14  C   UNL     1      -7.499  16.272  69.573  1.00  0.00    -0.039 C  
HETATM   15  C   UNL     1      -8.096  14.839  69.280  1.00  0.00    -0.088 C  
HETATM   16  N   UNL     1      -6.991  15.310  66.912  1.00  0.00    -0.098 NA 
HETATM   17  C   UNL     1      -7.264  14.318  67.997  1.00  0.00    -0.142 C  
ENDROOT
BRANCH  15  18
HETATM   18  C   UNL     1      -9.719  15.033  69.487  1.00  0.00    -0.103 C  
HETATM   19  N   UNL     1     -10.747  14.218  68.984  1.00  0.00    -0.250 N  
HETATM   20  O   UNL     1     -10.053  15.936  70.254  1.00  0.00    -0.140 OA 
BRANCH  19  21
HETATM   21  C   UNL     1     -12.148  14.472  69.489  1.00  0.00    -0.306 C  
BRANCH  21  22
HETATM   22  C   UNL     1     -12.572  14.050  70.918  1.00  0.00    -0.431 C  
HETATM   23  C   UNL     1     -13.108  12.636  71.288  1.00  0.00    -0.145 C  
BRANCH  23  24
HETATM   24  N   UNL     1     -12.458  11.365  70.901  1.00  0.00    -0.390 NA 
HETATM   25  C   UNL     1     -12.892  11.001  69.528  1.00  0.00     0.456 C  
HETATM   26  C   UNL     1     -12.811  10.221  71.761  1.00  0.00    -0.460 C  
ENDBRANCH  23  24
ENDBRANCH  21  22
ENDBRANCH  19  21
BRANCH  19  27
HETATM   27  C   UNL     1     -10.483  12.969  68.439  1.00  0.00    -0.252 C  
HETATM   28  O   UNL     1      -9.886  12.074  69.028  1.00  0.00    -0.011 OA 
BRANCH  27  29
HETATM   29  N   UNL     1     -11.003  12.768  67.176  1.00  0.00    -0.256 N  
HETATM   30  H   UNL     1     -11.446  11.879  66.942  1.00  0.00     0.000 HD 
BRANCH  29  31
HETATM   31  C   UNL     1     -10.918  13.815  66.188  1.00  0.00    -0.292 C  
HETATM   32  C   UNL     1      -9.719  13.624  65.288  1.00  0.00    -0.025 C  
ENDBRANCH  29  31
ENDBRANCH  27  29
ENDBRANCH  19  27
ENDBRANCH  15  18
BRANCH  16  33
HETATM   33  C   UNL     1      -5.667  15.969  66.875  1.00  0.00     0.390 C  
BRANCH  33  34
HETATM   34  C   UNL     1      -5.470  17.186  67.739  1.00  0.00    -0.126 C  
HETATM   35  C   UNL     1      -5.135  18.420  67.342  1.00  0.00    -0.140 C  
ENDBRANCH  33  34
ENDBRANCH  16  33
TORSDOF 9
ENDMDL
MODEL      192
REMARK 921   NORMALIZED FREE ENERGY PREDICTED BY IDOCK:    0.24 KCAL/MOL
REMARK 922        TOTAL FREE ENERGY PREDICTED BY IDOCK:   -0.34 KCAL/MOL
REMARK 923 INTER-LIGAND FREE ENERGY PREDICTED BY IDOCK:   -1.61 KCAL/MOL
REMARK 924 INTRA-LIGAND FREE ENERGY PREDICTED BY IDOCK:    1.27 KCAL/MOL
REMARK 927      BINDING AFFINITY PREDICTED BY RF-SCORE:    0.00 PKD
ROOT
HETATM    1  C   UNL     1     -11.439  14.586  64.723  1.00  0.00    -0.408 C  
HETATM    2  C   UNL     1     -11.400  15.939  64.013  1.00  0.00     0.221 C  
HETATM    3  C   UNL     1     -10.797  16.878  64.988  1.00  0.00    -0.077 A  
HETATM    4  C   UNL     1     -11.050  18.166  65.369  1.00  0.00     0.672 A  
HETATM    5  N   UNL     1     -10.017  18.545  66.197  1.00  0.00    -0.498 NA 
HETATM    6  H   UNL     1      -9.919  19.466  66.624  1.00  0.00     0.000 HD 
HETATM    7  C   UNL     1      -9.135  17.502  66.364  1.00  0.00    -0.240 A  
HETATM    8  C   UNL     1      -7.856  17.398  66.895  1.00  0.00    -0.258 A  
HETATM    9  C   UNL     1      -7.269  16.119  66.865  1.00  0.00    -0.240 A  
HETATM   10  C   UNL     1      -7.981  14.970  66.460  1.00  0.00     0.359 A  
HETATM   11  C   UNL     1      -9.283  15.083  65.967  1.00  0.00    -0.245 A  
HETATM   12  C   UNL     1     -10.127  13.959  65.374  1.00  0.00    -0.328 C  
HETATM   13  C   UNL     1      -9.759  16.397  65.824  1.00  0.00    -0.271 A  
HETATM   14  C   UNL     1     -10.626  12.765  66.280  1.00  0.00    -0.275 C  
HETATM   15  C   UNL     1     -12.165  12.911  66.606  1.00  0.00    -0.229 C  
HETATM   16  N   UNL     1     -12.230  13.568  64.034  1.00  0.00    -0.612 NA 
HETATM   17  C   UNL     1     -12.885  12.836  65.161  1.00  0.00    -0.159 C  
ENDROOT
BRANCH  15  18
HETATM   18  C   UNL     1     -12.219  14.087  67.759  1.00  0.00    -0.174 C  
HETATM   19  N   UNL     1     -11.739  14.013  69.077  1.00  0.00    -0.307 N  
HETATM   20  O   UNL     1     -12.635  15.182  67.382  1.00  0.00     0.602 OA 
BRANCH  19  21
HETATM   21  C   UNL     1     -11.703  15.292  69.878  1.00  0.00    -0.323 C  
BRANCH  21  22
HETATM   22  C   UNL     1     -10.363  15.884  70.383  1.00  0.00     0.018 C  
HETATM   23  C   UNL     1      -9.695  17.159  69.793  1.00  0.00     0.544 C  
BRANCH  23  24
HETATM   24  N   UNL     1     -10.393  18.443  69.563  1.00  0.00     0.222 NA 
HETATM   25  C   UNL     1     -11.361  18.272  68.450  1.00  0.00     1.182 C  
HETATM   26  C   UNL     1      -9.504  19.551  69.169  1.00  0.00    -0.249 C  
ENDBRANCH  23  24
ENDBRANCH  21  22
ENDBRANCH  19  21
BRANCH  19  27
HETATM   27  C   UNL     1     -10.911  12.978  69.491  1.00  0.00     0.097 C  
HETATM   28  O   UNL     1      -9.757  12.823  69.107  1.00  0.00     0.255 OA 
BRANCH  27  29
HETATM   29  N   UNL     1     -11.463  12.141  70.440  1.00  0.00    -0.417 N  
HETATM   30  H   UNL     1     -10.861  11.542  71.006  1.00  0.00     0.000 HD 
BRANCH  29  31
HETATM   31  C   UNL     1     -12.893  12.113  70.630  1.00  0.00     0.051 C  
HETATM   32  C   UNL     1     -13.261  12.398  72.068  1.00  0.00    -0.514 C  
ENDBRANCH  29  31
ENDBRANCH  27  29
ENDBRANCH  19  27
ENDBRANCH  15  18
BRANCH  16  33
HETATM   33  C   UNL     1     -11.381  12.804  63.093  1.00  0.00     0.048 C  
BRANCH  33  34
HETATM   34  C   UNL     1     -11.163  11.343  63.383  1.00  0.00    -0.252 C  
HETATM   35  C   UNL     1     -10.162  10.567  62.947  1.00  0.00     0.198 C  
ENDBRANCH  33  34
ENDBRANCH  16  33
TORSDOF 9
ENDMDL
MODEL      193
REMARK 921   NORMALIZED FREE ENERGY PREDICTED BY IDOCK:    1.20 KCAL/MOL
REMARK 922        TOTAL FREE ENERGY PREDICTED BY IDOCK:    1.12 KCAL/MOL
REMARK 923 INTER-LIGAND FREE ENERGY PREDICTED BY IDOCK:   -0.11 KCAL/MOL
REMARK 924 INTRA-LIGAND FREE ENERGY PREDICTED BY IDOCK:    1.24 KCAL/MOL
REMARK 927      BINDING AFFINITY PREDICTED BY RF-SCORE:    0.00 PKD
ROOT
HETATM    1  C   UNL     1      -7.840  14.518  69.079  1.00  0.00    -0.106 C  
HETATM    2  C   UNL     1      -8.114  15.488  70.228  1.00  0.00     0.872 C  
HETATM    3  C   UNL     1      -9.529  15.899  70.067  1.00  0.00     0.292 A  
HETATM    4  C   UNL     1     -10.208  17.079  70.180  1.00  0.00     0.601 A  
HETATM    5  N   UNL     1     -11.549  16.777  70.086  1.00  0.00    -0.139 NA 
HETATM    6  H   UNL     1     -12.306  17.455  70.156  1.00  0.00     0.000 HD 
HETATM    7  C   UNL     1     -11.717  15.425  69.885  1.00  0.00    -0.336 A  
HETATM    8  C   UNL     1     -12.813  14.573  69.936  1.00  0.00     0.015 A  
HETATM    9  C   UNL     1     -12.559  13.213  69.678  1.00  0.00     0.193 A  
HETATM   10  C   UNL     1     -11.298  12.748  69.244  1.00  0.00    -0.307 A  
HETATM   11  C   UNL     1     -10.214  13.625  69.156  1.00  0.00     0.099 A  
HETATM   12  C   UNL     1      -8.772  13.249  68.831  1.00  0.00     0.272 C  
HETATM   13  C   UNL     1     -10.458  14.930  69.615  1.00  0.00    -0.182 A  
HETATM   14  C   UNL     1      -8.385  12.707  67.400  1.00  0.00    -0.184 C  
HETATM   15  C   UNL     1      -7.633  13.815  66.562  1.00  0.00     1.422 C  
HETATM   16  N   UNL     1      -6.428  14.184  68.899  1.00  0.00    -0.089 NA 
HETATM   17  C   UNL     1      -6.291  14.111  67.412  1.00  0.00     0.167 C  
ENDROOT
BRANCH  15  18
HETATM   18  C   UNL     1      -8.834  14.836  66.082  1.00  0.00     0.112 C  
HETATM   19  N   UNL     1      -9.895  14.554  65.207  1.00  0.00    -0.272 N  
HETATM   20  O   UNL     1      -8.851  15.934  66.639  1.00  0.00    -0.226 OA 
BRANCH  19  21
HETATM   21  C   UNL     1     -10.995  15.583  65.091  1.00  0.00    -0.409 C  
BRANCH  21  22
HETATM   22  C   UNL     1     -11.396  16.466  66.299  1.00  0.00     0.529 C  
HETATM   23  C   UNL     1     -10.513  17.611  66.876  1.00  0.00    -0.290 C  
BRANCH  23  24
HETATM   24  N   UNL     1      -9.884  18.675  66.064  1.00  0.00    -0.523 NA 
HETATM   25  C   UNL     1      -9.119  19.577  66.962  1.00  0.00    -0.315 C  
HETATM   26  C   UNL     1     -10.845  19.530  65.343  1.00  0.00     0.018 C  
ENDBRANCH  23  24
ENDBRANCH  21  22
ENDBRANCH  19  21
BRANCH  19  27
HETATM   27  C   UNL     1     -10.197  13.254  64.826  1.00  0.00    -0.304 C  
HETATM   28  O   UNL     1      -9.733  12.703  63.833  1.00  0.00    -0.187 OA 
BRANCH  27  29
HETATM   29  N   UNL     1     -11.029  12.575  65.693  1.00  0.00    -0.279 N  
HETATM   30  H   UNL     1     -10.645  11.874  66.326  1.00  0.00     0.000 HD 
BRANCH  29  31
HETATM   31  C   UNL     1     -12.444  12.859  65.702  1.00  0.00    -0.338 C  
HETATM   32  C   UNL     1     -13.078  12.529  64.370  1.00  0.00    -0.076 C  
ENDBRANCH  29  31
ENDBRANCH  27  29
ENDBRANCH  19  27
ENDBRANCH  15  18
BRANCH  16  33
HETATM   33  C   UNL     1      -6.072  12.993  69.700  1.00  0.00    -0.122 C  
BRANCH  33  34
HETATM   34  C   UNL     1      -5.133  13.190  70.860  1.00  0.00    -0.136 C  
HETATM   35  C   UNL     1      -5.402  13.026  72.162  1.00  0.00     0.114 C  
ENDBRANCH  33  34
ENDBRANCH  16  33
TORSDOF 9
ENDMDL
MODEL      194
REMARK 921   NORMALIZED FREE ENERGY PREDICTED BY IDOCK:    1.25 KCAL/MOL
REMARK 922        TOTAL FREE ENERGY PREDICTED BY IDOCK:    1.20 KCAL/MOL
REMARK 923 INTER-LIGAND FREE ENERGY PREDICTED BY IDOCK:   -2.96 KCAL/MOL
REMARK 924 INTRA-LIGAND FREE ENERGY PREDICTED BY IDOCK:    4.15 KCAL/MOL
REMARK 927      BINDING AFFINITY PREDICTED BY RF-SCORE:    0.00 PKD
ROOT
HETATM    1  C   UNL     1     -11.350  15.014  66.863  1.00  0.00    -0.302 C  
HETATM    2  C   UNL     1     -11.530  15.853  68.128  1.00  0.00    -0.281 C  
HETATM    3  C   UNL     1     -10.436  15.435  69.036  1.00  0.00    -0.249 A  
HETATM    4  C   UNL     1     -10.340  15.180  70.375  1.00  0.00     0.012 A  
HETATM    5  N   UNL     1      -9.002  15.009  70.652  1.00  0.00     0.714 NA 
HETATM    6  H   UNL     1      -8.616  14.825  71.577  1.00  0.00     0.000 HD 
HETATM    7  C   UNL     1      -8.260  15.124  69.498  1.00  0.00    -0.160 A  
HETATM    8  C   UNL     1      -6.903  15.254  69.235  1.00  0.00    -0.155 A  
HETATM    9  C   UNL     1      -6.537  15.365  67.880  1.00  0.00    -0.169 A  
HETATM   10  C   UNL     1      -7.467  15.205  66.830  1.00  0.00     0.085 A  
HETATM   11  C   UNL     1      -8.824  15.032  67.110  1.00  0.00    -0.233 A  
HETATM   12  C   UNL     1      -9.957  14.976  66.090  1.00  0.00    -0.313 C  
HETATM   13  C   UNL     1      -9.176  15.129  68.466  1.00  0.00    -0.192 A  
HETATM   14  C   UNL     1     -10.065  13.773  65.073  1.00  0.00    -0.310 C  
HETATM   15  C   UNL     1     -11.222  12.784  65.491  1.00  0.00    -0.329 C  
HETATM   16  N   UNL     1     -12.474  15.083  65.931  1.00  0.00     0.268 NA 
HETATM   17  C   UNL     1     -12.562  13.684  65.411  1.00  0.00    -0.491 C  
ENDROOT
BRANCH  15  18
HETATM   18  C   UNL     1     -10.587  11.935  66.752  1.00  0.00    -0.229 C  
HETATM   19  N   UNL     1      -9.934  10.693  66.703  1.00  0.00    -0.205 N  
HETATM   20  O   UNL     1     -10.599  12.512  67.839  1.00  0.00    -0.209 OA 
BRANCH  19  21
HETATM   21  C   UNL     1      -9.243  10.218  67.959  1.00  0.00    -0.135 C  
BRANCH  21  22
HETATM   22  C   UNL     1      -9.538  10.873  69.331  1.00  0.00     0.009 C  
HETATM   23  C   UNL     1     -10.669  10.409  70.295  1.00  0.00    -0.187 C  
BRANCH  23  24
HETATM   24  N   UNL     1     -10.902   9.006  70.701  1.00  0.00    -0.229 NA 
HETATM   25  C   UNL     1     -10.419   8.106  69.624  1.00  0.00    -0.224 C  
HETATM   26  C   UNL     1     -12.321   8.668  70.915  1.00  0.00    -0.052 C  
ENDBRANCH  23  24
ENDBRANCH  21  22
ENDBRANCH  19  21
BRANCH  19  27
HETATM   27  C   UNL     1      -9.522  10.136  65.499  1.00  0.00    -0.230 C  
HETATM   28  O   UNL     1      -9.512  10.737  64.430  1.00  0.00    -0.218 OA 
BRANCH  27  29
HETATM   29  N   UNL     1      -9.050   8.842  65.592  1.00  0.00    -0.285 N  
HETATM   30  H   UNL     1      -9.690   8.080  65.818  1.00  0.00     0.000 HD 
BRANCH  29  31
HETATM   31  C   UNL     1      -7.651   8.568  65.370  1.00  0.00    -0.088 C  
HETATM   32  C   UNL     1      -7.358   7.090  65.480  1.00  0.00    -0.079 C  
ENDBRANCH  29  31
ENDBRANCH  27  29
ENDBRANCH  19  27
ENDBRANCH  15  18
BRANCH  16  33
HETATM   33  C   UNL     1     -12.277  16.186  64.964  1.00  0.00     1.130 C  
BRANCH  33  34
HETATM   34  C   UNL     1     -10.927  16.851  64.933  1.00  0.00    -0.011 C  
HETATM   35  C   UNL     1     -10.627  18.101  65.310  1.00  0.00     0.391 C  
ENDBRANCH  33  34
ENDBRANCH  16  33
TORSDOF 9
ENDMDL
MODEL      195
REMARK 921   NORMALIZED FREE ENERGY PREDICTED BY IDOCK:    1.41 KCAL/MOL
REMARK 922        TOTAL FREE ENERGY PREDICTED BY IDOCK:    1.44 KCAL/MOL
REMARK 923 INTER-LIGAND FREE ENERGY PREDICTED BY IDOCK:   -1.06 KCAL/MOL
REMARK 924 INTRA-LIGAND FREE ENERGY PREDICTED BY IDOCK:    2.50 KCAL/MOL
REMARK 927      BINDING AFFINITY PREDICTED BY RF-SCORE:    0.00 PKD
ROOT
HETATM    1  C   UNL     1      -7.043   4.467  69.349  1.00  0.00    -0.051 C  
HETATM    2  C   UNL     1      -5.760   4.597  70.171  1.00  0.00    -0.013 C  
HETATM    3  C   UNL     1      -6.069   5.589  71.228  1.00  0.00    -0.033 A  
HETATM    4  C   UNL     1      -5.397   6.636  71.793  1.00  0.00    -0.028 A  
HETATM    5  N   UNL     1      -6.153   7.061  72.864  1.00  0.00    -0.055 NA 
HETATM    6  H   UNL     1      -5.896   7.819  73.495  1.00  0.00     0.000 HD 
HETATM    7  C   UNL     1      -7.305   6.313  72.959  1.00  0.00    -0.091 A  
HETATM    8  C   UNL     1      -8.280   6.168  73.936  1.00  0.00    -0.109 A  
HETATM    9  C   UNL     1      -9.321   5.264  73.651  1.00  0.00    -0.133 A  
HETATM   10  C   UNL     1      -9.460   4.646  72.389  1.00  0.00    -0.172 A  
HETATM   11  C   UNL     1      -8.492   4.833  71.400  1.00  0.00    -0.113 A  
HETATM   12  C   UNL     1      -8.437   4.135  70.045  1.00  0.00    -0.091 C  
HETATM   13  C   UNL     1      -7.369   5.579  71.793  1.00  0.00    -0.091 A  
HETATM   14  C   UNL     1      -9.540   4.416  68.950  1.00  0.00    -0.233 C  
HETATM   15  C   UNL     1      -8.971   5.340  67.802  1.00  0.00    -0.110 C  
HETATM   16  N   UNL     1      -6.882   3.728  68.099  1.00  0.00    -0.046 NA 
HETATM   17  C   UNL     1      -7.770   4.475  67.155  1.00  0.00    -0.090 C  
ENDROOT
BRANCH  15  18
HETATM   18  C   UNL     1      -8.954   6.845  68.473  1.00  0.00    -0.122 C  
HETATM   19  N   UNL     1      -7.988   7.849  68.294  1.00  0.00    -0.120 N  
HETATM   20  O   UNL     1      -9.956   7.150  69.119  1.00  0.00    -0.162 OA 
BRANCH  19  21
HETATM   21  C   UNL     1      -8.300   9.223  68.838  1.00  0.00    -0.120 C  
BRANCH  21  22
HETATM   22  C   UNL     1      -9.279  10.171  68.101  1.00  0.00    -0.137 C  
HETATM   23  C   UNL     1     -10.775  10.356  68.489  1.00  0.00    -0.221 C  
BRANCH  23  24
HETATM   24  N   UNL     1     -11.259  10.614  69.862  1.00  0.00    -0.288 NA 
HETATM   25  C   UNL     1     -10.326   9.982  70.829  1.00  0.00     0.007 C  
HETATM   26  C   UNL     1     -12.592  10.051  70.147  1.00  0.00     0.093 C  
ENDBRANCH  23  24
ENDBRANCH  21  22
ENDBRANCH  19  21
BRANCH  19  27
HETATM   27  C   UNL     1      -7.027   7.762  67.295  1.00  0.00    -0.078 C  
HETATM   28  O   UNL     1      -5.824   7.909  67.483  1.00  0.00    -0.036 OA 
BRANCH  27  29
HETATM   29  N   UNL     1      -7.517   7.429  66.048  1.00  0.00    -0.081 N  
HETATM   30  H   UNL     1      -6.920   6.947  65.377  1.00  0.00     0.000 HD 
BRANCH  29  31
HETATM   31  C   UNL     1      -8.876   7.764  65.697  1.00  0.00    -0.065 C  
HETATM   32  C   UNL     1      -9.439   6.786  64.692  1.00  0.00     1.827 C  
ENDBRANCH  29  31
ENDBRANCH  27  29
ENDBRANCH  19  27
ENDBRANCH  15  18
BRANCH  16  33
HETATM   33  C   UNL     1      -7.134   2.286  68.314  1.00  0.00    -0.047 C  
BRANCH  33  34
HETATM   34  C   UNL     1      -6.944   1.747  69.707  1.00  0.00    -0.033 C  
HETATM   35  C   UNL     1      -5.826   1.772  70.443  1.00  0.00    -0.018 C  
ENDBRANCH  33  34
ENDBRANCH  16  33
TORSDOF 9
ENDMDL
MODEL      196
REMARK 921   NORMALIZED FREE ENERGY PREDICTED BY IDOCK:    1.51 KCAL/MOL
REMARK 922        TOTAL FREE ENERGY PREDICTED BY IDOCK:    1.59 KCAL/MOL
REMARK 923 INTER-LIGAND FREE ENERGY PREDICTED BY IDOCK:   -1.58 KCAL/MOL
REMARK 924 INTRA-LIGAND FREE ENERGY PREDICTED BY IDOCK:    3.17 KCAL/MOL
REMARK 927      BINDING AFFINITY PREDICTED BY RF-SCORE:    0.00 PKD
ROOT
HETATM    1  C   UNL     1     -10.746  14.534  69.469  1.00  0.00    -0.146 C  
HETATM    2  C   UNL     1      -9.421  15.180  69.876  1.00  0.00     0.047 C  
HETATM    3  C   UNL     1      -8.712  15.457  68.605  1.00  0.00    -0.191 A  
HETATM    4  C   UNL     1      -7.419  15.339  68.177  1.00  0.00    -0.112 A  
HETATM    5  N   UNL     1      -7.355  15.936  66.937  1.00  0.00    -0.206 NA 
HETATM    6  H   UNL     1      -6.510  16.022  66.374  1.00  0.00     0.000 HD 
HETATM    7  C   UNL     1      -8.598  16.399  66.569  1.00  0.00    -0.294 A  
HETATM    8  C   UNL     1      -9.051  17.241  65.562  1.00  0.00     0.745 A  
HETATM    9  C   UNL     1     -10.437  17.489  65.532  1.00  0.00    -0.077 A  
HETATM   10  C   UNL     1     -11.344  16.813  66.376  1.00  0.00     0.729 A  
HETATM   11  C   UNL     1     -10.877  15.937  67.358  1.00  0.00    -0.291 A  
HETATM   12  C   UNL     1     -11.718  15.238  68.421  1.00  0.00    -0.340 C  
HETATM   13  C   UNL     1      -9.480  15.870  67.488  1.00  0.00    -0.219 A  
HETATM   14  C   UNL     1     -12.777  14.139  68.014  1.00  0.00     0.904 C  
HETATM   15  C   UNL     1     -12.250  12.692  68.365  1.00  0.00     0.054 C  
HETATM   16  N   UNL     1     -11.494  13.948  70.579  1.00  0.00    -0.047 NA 
HETATM   17  C   UNL     1     -12.077  12.712  69.972  1.00  0.00    -0.269 C  
ENDROOT
BRANCH  15  18
HETATM   18  C   UNL     1     -11.149  12.370  67.183  1.00  0.00    -0.280 C  
HETATM   19  N   UNL     1     -10.340  11.228  67.057  1.00  0.00    -0.218 N  
HETATM   20  O   UNL     1     -11.114  13.179  66.255  1.00  0.00    -0.282 OA 
BRANCH  19  21
HETATM   21  C   UNL     1      -9.568  11.060  65.770  1.00  0.00    -0.222 C  
BRANCH  21  22
HETATM   22  C   UNL     1      -9.629  12.132  64.653  1.00  0.00     0.042 C  
HETATM   23  C   UNL     1     -10.828  12.309  63.676  1.00  0.00    -0.469 C  
BRANCH  23  24
HETATM   24  N   UNL     1     -12.244  12.390  64.093  1.00  0.00    -0.443 NA 
HETATM   25  C   UNL     1     -13.075  11.631  63.125  1.00  0.00     0.548 C  
HETATM   26  C   UNL     1     -12.788  13.760  64.118  1.00  0.00     0.307 C  
ENDBRANCH  23  24
ENDBRANCH  21  22
ENDBRANCH  19  21
BRANCH  19  27
HETATM   27  C   UNL     1     -10.568  10.089  67.817  1.00  0.00    -0.261 C  
HETATM   28  O   UNL     1     -11.656   9.790  68.299  1.00  0.00     0.084 OA 
BRANCH  27  29
HETATM   29  N   UNL     1      -9.477   9.255  67.950  1.00  0.00    -0.136 N  
HETATM   30  H   UNL     1      -8.781   9.201  67.206  1.00  0.00     0.000 HD 
BRANCH  29  31
HETATM   31  C   UNL     1      -9.321   8.459  69.143  1.00  0.00    -0.151 C  
HETATM   32  C   UNL     1      -8.730   9.272  70.272  1.00  0.00    -0.246 C  
ENDBRANCH  29  31
ENDBRANCH  27  29
ENDBRANCH  19  27
ENDBRANCH  15  18
BRANCH  16  33
HETATM   33  C   UNL     1     -12.414  14.947  71.168  1.00  0.00    -0.327 C  
BRANCH  33  34
HETATM   34  C   UNL     1     -13.786  14.477  71.570  1.00  0.00    -0.472 C  
HETATM   35  C   UNL     1     -14.221  13.213  71.654  1.00  0.00     0.660 C  
ENDBRANCH  33  34
ENDBRANCH  16  33
TORSDOF 9
ENDMDL
MODEL      197
REMARK 921   NORMALIZED FREE ENERGY PREDICTED BY IDOCK:    3.40 KCAL/MOL
REMARK 922        TOTAL FREE ENERGY PREDICTED BY IDOCK:    4.48 KCAL/MOL
REMARK 923 INTER-LIGAND FREE ENERGY PREDICTED BY IDOCK:    1.44 KCAL/MOL
REMARK 924 INTRA-LIGAND FREE ENERGY PREDICTED BY IDOCK:    3.03 KCAL/MOL
REMARK 927      BINDING AFFINITY PREDICTED BY RF-SCORE:    0.00 PKD
ROOT
HETATM    1  C   UNL     1     -11.033  13.887  67.310  1.00  0.00    -0.290 C  
HETATM    2  C   UNL     1     -11.560  12.706  66.496  1.00  0.00    -0.441 C  
HETATM    3  C   UNL     1     -11.437  11.528  67.387  1.00  0.00    -0.349 A  
HETATM    4  C   UNL     1     -11.044  10.230  67.220  1.00  0.00    -0.142 A  
HETATM    5  N   UNL     1     -11.328   9.574  68.397  1.00  0.00    -0.457 NA 
HETATM    6  H   UNL     1     -11.163   8.583  68.568  1.00  0.00     0.000 HD 
HETATM    7  C   UNL     1     -11.867  10.451  69.312  1.00  0.00    -0.093 A  
HETATM    8  C   UNL     1     -12.513  10.295  70.530  1.00  0.00    -0.351 A  
HETATM    9  C   UNL     1     -12.942  11.475  71.166  1.00  0.00    -0.329 A  
HETATM   10  C   UNL     1     -12.610  12.759  70.680  1.00  0.00    -0.248 A  
HETATM   11  C   UNL     1     -11.923  12.901  69.473  1.00  0.00    -0.346 A  
HETATM   12  C   UNL     1     -11.611  14.213  68.759  1.00  0.00    -0.362 C  
HETATM   13  C   UNL     1     -11.691  11.708  68.770  1.00  0.00    -0.392 A  
HETATM   14  C   UNL     1     -10.609  15.255  69.395  1.00  0.00    -0.257 C  
HETATM   15  C   UNL     1      -9.220  15.233  68.644  1.00  0.00    -0.201 C  
HETATM   16  N   UNL     1     -10.827  15.108  66.533  1.00  0.00    -0.315 NA 
HETATM   17  C   UNL     1      -9.580  15.677  67.132  1.00  0.00    -0.218 C  
ENDROOT
BRANCH  15  18
HETATM   18  C   UNL     1      -8.485  13.868  69.203  1.00  0.00     0.329 C  
HETATM   19  N   UNL     1      -7.167  13.448  68.961  1.00  0.00    -0.065 N  
HETATM   20  O   UNL     1      -9.140  13.203  70.006  1.00  0.00     2.514 OA 
BRANCH  19  21
HETATM   21  C   UNL     1      -6.652  12.275  69.761  1.00  0.00     0.032 C  
BRANCH  21  22
HETATM   22  C   UNL     1      -7.442  10.945  69.832  1.00  0.00     0.157 C  
HETATM   23  C   UNL     1      -7.519   9.912  68.670  1.00  0.00    -0.075 C  
BRANCH  23  24
HETATM   24  N   UNL     1      -6.349   9.397  67.927  1.00  0.00    -0.054 NA 
HETATM   25  C   UNL     1      -5.215   9.228  68.870  1.00  0.00    -0.037 C  
HETATM   26  C   UNL     1      -5.869  10.296  66.861  1.00  0.00    -0.051 C  
ENDBRANCH  23  24
ENDBRANCH  21  22
ENDBRANCH  19  21
BRANCH  19  27
HETATM   27  C   UNL     1      -6.225  14.299  68.398  1.00  0.00    -0.103 C  
HETATM   28  O   UNL     1      -5.125  13.937  67.994  1.00  0.00    -0.104 OA 
BRANCH  27  29
HETATM   29  N   UNL     1      -6.638  15.609  68.260  1.00  0.00    -0.115 N  
HETATM   30  H   UNL     1      -6.799  16.184  69.087  1.00  0.00     0.000 HD 
BRANCH  29  31
HETATM   31  C   UNL     1      -6.843  16.163  66.943  1.00  0.00    -0.113 C  
HETATM   32  C   UNL     1      -6.542  17.644  66.919  1.00  0.00    -0.213 C  
ENDBRANCH  29  31
ENDBRANCH  27  29
ENDBRANCH  19  27
ENDBRANCH  15  18
BRANCH  16  33
HETATM   33  C   UNL     1     -12.053  15.936  66.535  1.00  0.00     1.287 C  
BRANCH  33  34
HETATM   34  C   UNL     1     -13.238  15.426  65.759  1.00  0.00     2.055 C  
HETATM   35  C   UNL     1     -13.242  14.485  64.806  1.00  0.00     0.790 C  
ENDBRANCH  33  34
ENDBRANCH  16  33
TORSDOF 9
ENDMDL
MODEL      198
REMARK 921   NORMALIZED FREE ENERGY PREDICTED BY IDOCK:    4.24 KCAL/MOL
REMARK 922        TOTAL FREE ENERGY PREDICTED BY IDOCK:    5.77 KCAL/MOL
REMARK 923 INTER-LIGAND FREE ENERGY PREDICTED BY IDOCK:    2.73 KCAL/MOL
REMARK 924 INTRA-LIGAND FREE ENERGY PREDICTED BY IDOCK:    3.04 KCAL/MOL
REMARK 927      BINDING AFFINITY PREDICTED BY RF-SCORE:    0.00 PKD
ROOT
HETATM    1  C   UNL     1      -8.510   7.150  67.081  1.00  0.00    -0.121 C  
HETATM    2  C   UNL     1      -9.899   6.952  66.473  1.00  0.00    -0.168 C  
HETATM    3  C   UNL     1     -10.206   8.221  65.773  1.00  0.00     0.997 A  
HETATM    4  C   UNL     1     -11.316   9.009  65.648  1.00  0.00     4.768 A  
HETATM    5  N   UNL     1     -11.017   9.970  64.708  1.00  0.00     0.798 NA 
HETATM    6  H   UNL     1     -11.661  10.692  64.386  1.00  0.00     0.000 HD 
HETATM    7  C   UNL     1      -9.723   9.814  64.264  1.00  0.00     0.091 A  
HETATM    8  C   UNL     1      -8.999  10.343  63.204  1.00  0.00    -0.245 A  
HETATM    9  C   UNL     1      -7.667   9.905  63.078  1.00  0.00    -0.138 A  
HETATM   10  C   UNL     1      -7.043   9.092  64.049  1.00  0.00    -0.096 A  
HETATM   11  C   UNL     1      -7.773   8.600  65.133  1.00  0.00    -0.101 A  
HETATM   12  C   UNL     1      -7.277   7.613  66.185  1.00  0.00    -0.070 C  
HETATM   13  C   UNL     1      -9.147   8.894  65.115  1.00  0.00    -0.157 A  
HETATM   14  C   UNL     1      -6.140   8.025  67.201  1.00  0.00    -0.054 C  
HETATM   15  C   UNL     1      -6.740   8.299  68.636  1.00  0.00    -0.059 C  
HETATM   16  N   UNL     1      -8.117   6.111  68.031  1.00  0.00    -0.113 NA 
HETATM   17  C   UNL     1      -7.376   6.880  69.078  1.00  0.00    -0.093 C  
ENDROOT
BRANCH  15  18
HETATM   18  C   UNL     1      -7.444   9.782  68.498  1.00  0.00    -0.079 C  
HETATM   19  N   UNL     1      -8.798  10.104  68.686  1.00  0.00    -0.130 N  
HETATM   20  O   UNL     1      -6.672  10.722  68.311  1.00  0.00    -0.062 OA 
BRANCH  19  21
HETATM   21  C   UNL     1      -9.168  11.568  68.720  1.00  0.00    -0.067 C  
BRANCH  21  22
HETATM   22  C   UNL     1     -10.586  12.027  69.143  1.00  0.00    -0.067 C  
HETATM   23  C   UNL     1     -11.380  13.167  68.443  1.00  0.00    -0.289 C  
BRANCH  23  24
HETATM   24  N   UNL     1     -11.573  13.280  66.981  1.00  0.00    -0.339 NA 
HETATM   25  C   UNL     1     -10.287  12.985  66.300  1.00  0.00    -0.285 C  
HETATM   26  C   UNL     1     -11.981  14.623  66.528  1.00  0.00    -0.268 C  
ENDBRANCH  23  24
ENDBRANCH  21  22
ENDBRANCH  19  21
BRANCH  19  27
HETATM   27  C   UNL     1      -9.684   9.210  69.271  1.00  0.00    -0.164 C  
HETATM   28  O   UNL     1     -10.860   9.092  68.944  1.00  0.00    -0.178 OA 
BRANCH  27  29
HETATM   29  N   UNL     1      -9.127   8.390  70.233  1.00  0.00    -0.145 N  
HETATM   30  H   UNL     1      -8.120   8.234  70.249  1.00  0.00     0.000 HD 
BRANCH  29  31
HETATM   31  C   UNL     1      -9.973   7.756  71.214  1.00  0.00    -0.175 C  
HETATM   32  C   UNL     1      -9.210   6.720  72.008  1.00  0.00    -0.143 C  
ENDBRANCH  29  31
ENDBRANCH  27  29
ENDBRANCH  19  27
ENDBRANCH  15  18
BRANCH  16  33
HETATM   33  C   UNL     1      -7.415   5.011  67.334  1.00  0.00    -0.083 C  
BRANCH  33  34
HETATM   34  C   UNL     1      -6.114   5.338  66.652  1.00  0.00    -0.030 C  
HETATM   35  C   UNL     1      -5.280   4.487  66.040  1.00  0.00    -0.009 C  
ENDBRANCH  33  34
ENDBRANCH  16  33
TORSDOF 9
ENDMDL
MODEL      199
REMARK 921   NORMALIZED FREE ENERGY PREDICTED BY IDOCK:    4.33 KCAL/MOL
REMARK 922        TOTAL FREE ENERGY PREDICTED BY IDOCK:    5.89 KCAL/MOL
REMARK 923 INTER-LIGAND FREE ENERGY PREDICTED BY IDOCK:    3.30 KCAL/MOL
REMARK 924 INTRA-LIGAND FREE ENERGY PREDICTED BY IDOCK:    2.59 KCAL/MOL
REMARK 927      BINDING AFFINITY PREDICTED BY RF-SCORE:    0.00 PKD
ROOT
HETATM    1  C   UNL     1      -7.993  15.677  68.086  1.00  0.00    -0.128 C  
HETATM    2  C   UNL     1      -6.571  15.165  68.314  1.00  0.00    -0.114 C  
HETATM    3  C   UNL     1      -6.664  13.689  68.224  1.00  0.00    -0.108 A  
HETATM    4  C   UNL     1      -6.124  12.645  68.921  1.00  0.00    -0.079 A  
HETATM    5  N   UNL     1      -6.450  11.497  68.232  1.00  0.00    -0.053 NA 
HETATM    6  H   UNL     1      -6.167  10.556  68.500  1.00  0.00     0.000 HD 
HETATM    7  C   UNL     1      -7.214  11.806  67.129  1.00  0.00    -0.147 A  
HETATM    8  C   UNL     1      -7.618  11.093  66.008  1.00  0.00     0.023 A  
HETATM    9  C   UNL     1      -8.401  11.794  65.072  1.00  0.00     1.027 A  
HETATM   10  C   UNL     1      -8.881  13.099  65.313  1.00  0.00     1.571 A  
HETATM   11  C   UNL     1      -8.500  13.790  66.466  1.00  0.00     0.299 A  
HETATM   12  C   UNL     1      -8.829  15.241  66.801  1.00  0.00    -0.302 C  
HETATM   13  C   UNL     1      -7.558  13.134  67.275  1.00  0.00    -0.090 A  
HETATM   14  C   UNL     1     -10.317  15.683  67.088  1.00  0.00    -0.285 C  
HETATM   15  C   UNL     1     -10.545  15.923  68.632  1.00  0.00    -0.250 C  
HETATM   16  N   UNL     1      -8.176  17.096  68.383  1.00  0.00    -0.244 NA 
HETATM   17  C   UNL     1      -9.539  17.134  68.998  1.00  0.00    -0.189 C  
ENDROOT
BRANCH  15  18
HETATM   18  C   UNL     1     -10.652  14.404  69.262  1.00  0.00    -0.175 C  
HETATM   19  N   UNL     1     -11.552  13.390  68.895  1.00  0.00    -0.291 N  
HETATM   20  O   UNL     1      -9.774  14.101  70.069  1.00  0.00     0.849 OA 
BRANCH  19  21
HETATM   21  C   UNL     1     -11.313  12.010  69.460  1.00  0.00    -0.228 C  
BRANCH  21  22
HETATM   22  C   UNL     1      -9.882  11.511  69.778  1.00  0.00     1.055 C  
HETATM   23  C   UNL     1      -9.561  10.137  70.436  1.00  0.00     0.250 C  
BRANCH  23  24
HETATM   24  N   UNL     1     -10.117   8.842  69.986  1.00  0.00    -0.186 NA 
HETATM   25  C   UNL     1     -10.844   9.048  68.708  1.00  0.00    -0.030 C  
HETATM   26  C   UNL     1     -11.088   8.245  70.921  1.00  0.00    -0.261 C  
ENDBRANCH  23  24
ENDBRANCH  21  22
ENDBRANCH  19  21
BRANCH  19  27
HETATM   27  C   UNL     1     -12.322  13.483  67.744  1.00  0.00     0.031 C  
HETATM   28  O   UNL     1     -12.905  14.501  67.386  1.00  0.00     0.540 OA 
BRANCH  27  29
HETATM   29  N   UNL     1     -12.343  12.341  66.968  1.00  0.00     0.355 N  
HETATM   30  H   UNL     1     -13.194  11.782  66.906  1.00  0.00     0.000 HD 
BRANCH  29  31
HETATM   31  C   UNL     1     -11.161  11.941  66.246  1.00  0.00    -0.314 C  
HETATM   32  C   UNL     1     -11.215  10.477  65.874  1.00  0.00     0.479 C  
ENDBRANCH  29  31
ENDBRANCH  27  29
ENDBRANCH  19  27
ENDBRANCH  15  18
BRANCH  16  33
HETATM   33  C   UNL     1      -7.922  17.915  67.178  1.00  0.00    -0.210 C  
BRANCH  33  34
HETATM   34  C   UNL     1      -9.012  18.851  66.730  1.00  0.00    -0.320 C  
HETATM   35  C   UNL     1      -9.345  19.171  65.473  1.00  0.00     0.827 C  
ENDBRANCH  33  34
ENDBRANCH  16  33
TORSDOF 9
ENDMDL
MODEL      200
REMARK 921   NORMALIZED FREE ENERGY PREDICTED BY IDOCK:    4.75 KCAL/MOL
REMARK 922        TOTAL FREE ENERGY PREDICTED BY IDOCK:    6.55 KCAL/MOL
REMARK 923 INTER-LIGAND FREE ENERGY PREDICTED BY IDOCK:    1.58 KCAL/MOL
REMARK 924 INTRA-LIGAND FREE ENERGY PREDICTED BY IDOCK:    4.97 KCAL/MOL
REMARK 927      BINDING AFFINITY PREDICTED BY RF-SCORE:    0.00 PKD
ROOT
HETATM    1  C   UNL     1      -7.978   4.102  71.501  1.00  0.00    -0.077 C  
HETATM    2  C   UNL     1      -7.457   5.363  72.191  1.00  0.00    -0.095 C  
HETATM    3  C   UNL     1      -7.804   6.481  71.282  1.00  0.00    -0.103 A  
HETATM    4  C   UNL     1      -7.164   7.610  70.855  1.00  0.00    -0.062 A  
HETATM    5  N   UNL     1      -8.089   8.349  70.152  1.00  0.00    -0.105 NA 
HETATM    6  H   UNL     1      -7.908   9.258  69.727  1.00  0.00     0.000 HD 
HETATM    7  C   UNL     1      -9.293   7.684  70.107  1.00  0.00    -0.157 A  
HETATM    8  C   UNL     1     -10.581   8.048  69.736  1.00  0.00    -0.238 A  
HETATM    9  C   UNL     1     -11.570   7.054  69.855  1.00  0.00    -0.179 A  
HETATM   10  C   UNL     1     -11.262   5.717  70.188  1.00  0.00    -0.219 A  
HETATM   11  C   UNL     1      -9.954   5.355  70.519  1.00  0.00    -0.288 A  
HETATM   12  C   UNL     1      -9.493   3.991  71.022  1.00  0.00    -0.233 C  
HETATM   13  C   UNL     1      -9.036   6.416  70.584  1.00  0.00    -0.144 A  
HETATM   14  C   UNL     1      -9.553   2.725  70.080  1.00  0.00    -0.117 C  
HETATM   15  C   UNL     1      -8.110   2.334  69.570  1.00  0.00    -0.061 C  
HETATM   16  N   UNL     1      -7.517   2.854  72.105  1.00  0.00    -0.050 NA 
HETATM   17  C   UNL     1      -7.297   1.971  70.919  1.00  0.00    -0.033 C  
ENDROOT
BRANCH  15  18
HETATM   18  C   UNL     1      -7.784   3.449  68.401  1.00  0.00    -0.056 C  
HETATM   19  N   UNL     1      -7.810   3.260  67.010  1.00  0.00    -0.079 N  
HETATM   20  O   UNL     1      -7.601   4.599  68.801  1.00  0.00    -0.067 OA 
BRANCH  19  21
HETATM   21  C   UNL     1      -7.690   4.487  66.137  1.00  0.00    -0.094 C  
BRANCH  21  22
HETATM   22  C   UNL     1      -8.054   4.438  64.633  1.00  0.00    -0.099 C  
HETATM   23  C   UNL     1      -9.461   4.058  64.086  1.00  0.00    -0.160 C  
BRANCH  23  24
HETATM   24  N   UNL     1     -10.733   4.637  64.569  1.00  0.00     0.218 NA 
HETATM   25  C   UNL     1     -10.527   6.078  64.860  1.00  0.00     2.913 C  
HETATM   26  C   UNL     1     -11.235   4.033  65.817  1.00  0.00     1.795 C  
ENDBRANCH  23  24
ENDBRANCH  21  22
ENDBRANCH  19  21
BRANCH  19  27
HETATM   27  C   UNL     1      -8.375   2.126  66.441  1.00  0.00    -0.095 C  
HETATM   28  O   UNL     1      -9.413   1.605  66.832  1.00  0.00     0.026 OA 
BRANCH  27  29
HETATM   29  N   UNL     1      -7.708   1.642  65.334  1.00  0.00    -0.069 N  
HETATM   30  H   UNL     1      -8.096   0.860  64.805  1.00  0.00     0.000 HD 
BRANCH  29  31
HETATM   31  C   UNL     1      -6.461   2.242  64.925  1.00  0.00    -0.023 C  
HETATM   32  C   UNL     1      -5.280   1.503  65.510  1.00  0.00    -0.005 C  
ENDBRANCH  29  31
ENDBRANCH  27  29
ENDBRANCH  19  27
ENDBRANCH  15  18
BRANCH  16  33
HETATM   33  C   UNL     1      -8.463   2.406  73.152  1.00  0.00    -0.070 C  
BRANCH  33  34
HETATM   34  C   UNL     1      -9.830   1.958  72.710  1.00  0.00    -0.164 C  
HETATM   35  C   UNL     1     -10.878   1.656  73.487  1.00  0.00    -0.232 C  
ENDBRANCH  33  34
ENDBRANCH  16  33
TORSDOF 9
ENDMDL
MODEL      201
REMARK 921   NORMALIZED FREE ENERGY PREDICTED BY IDOCK:    5.76 KCAL/MOL
REMARK 922        TOTAL FREE ENERGY PREDICTED BY IDOCK:    8.09 KCAL/MOL
REMARK 923 INTER-LIGAND FREE ENERGY PREDICTED BY IDOCK:   -4.00 KCAL/MOL
REMARK 924 INTRA-LIGAND FREE ENERGY PREDICTED BY IDOCK:   12.09 KCAL/MOL
REMARK 927      BINDING AFFINITY PREDICTED BY RF-SCORE:    0.00 PKD
ROOT
HETATM    1  C   UNL     1      -9.453   5.764  66.964  1.00  0.00    -0.124 C  
HETATM    2  C   UNL     1     -10.553   6.718  66.499  1.00  0.00    -0.060 C  
HETATM    3  C   UNL     1     -10.058   8.077  66.821  1.00  0.00    -0.357 A  
HETATM    4  C   UNL     1     -10.621   9.211  67.336  1.00  0.00    -0.244 A  
HETATM    5  N   UNL     1      -9.678  10.209  67.224  1.00  0.00    -0.162 NA 
HETATM    6  H   UNL     1      -9.818  11.178  67.506  1.00  0.00     0.000 HD 
HETATM    7  C   UNL     1      -8.520   9.707  66.673  1.00  0.00    -0.123 A  
HETATM    8  C   UNL     1      -7.371  10.289  66.153  1.00  0.00    -0.122 A  
HETATM    9  C   UNL     1      -6.394   9.406  65.657  1.00  0.00    -0.068 A  
HETATM   10  C   UNL     1      -6.494   8.005  65.807  1.00  0.00    -0.042 A  
HETATM   11  C   UNL     1      -7.638   7.436  66.370  1.00  0.00    -0.088 A  
HETATM   12  C   UNL     1      -7.946   5.946  66.480  1.00  0.00    -0.102 C  
HETATM   13  C   UNL     1      -8.674   8.337  66.668  1.00  0.00    -0.150 A  
HETATM   14  C   UNL     1      -7.080   5.013  67.415  1.00  0.00    -0.066 C  
HETATM   15  C   UNL     1      -7.873   4.641  68.729  1.00  0.00    -0.075 C  
HETATM   16  N   UNL     1      -9.843   4.356  66.973  1.00  0.00    -0.207 NA 
HETATM   17  C   UNL     1      -9.165   3.830  68.197  1.00  0.00    -0.163 C  
ENDROOT
BRANCH  15  18
HETATM   18  C   UNL     1      -7.780   6.004  69.650  1.00  0.00    -0.097 C  
HETATM   19  N   UNL     1      -8.439   6.262  70.864  1.00  0.00    -0.130 N  
HETATM   20  O   UNL     1      -6.958   6.842  69.278  1.00  0.00    -0.069 OA 
BRANCH  19  21
HETATM   21  C   UNL     1      -8.025   7.493  71.634  1.00  0.00    -0.090 C  
BRANCH  21  22
HETATM   22  C   UNL     1      -8.632   7.810  73.023  1.00  0.00    -0.218 C  
HETATM   23  C   UNL     1      -9.008   6.729  74.079  1.00  0.00    -0.171 C  
BRANCH  23  24
HETATM   24  N   UNL     1      -8.116   5.630  74.508  1.00  0.00    -0.103 NA 
HETATM   25  C   UNL     1      -6.865   5.685  73.710  1.00  0.00    -0.081 C  
HETATM   26  C   UNL     1      -8.678   4.282  74.300  1.00  0.00    -0.095 C  
ENDBRANCH  23  24
ENDBRANCH  21  22
ENDBRANCH  19  21
BRANCH  19  27
HETATM   27  C   UNL     1      -9.079   5.253  71.571  1.00  0.00    -0.145 C  
HETATM   28  O   UNL     1      -9.846   5.449  72.508  1.00  0.00    -0.161 OA 
BRANCH  27  29
HETATM   29  N   UNL     1      -8.841   3.977  71.102  1.00  0.00    -0.089 N  
HETATM   30  H   UNL     1      -9.277   3.661  70.235  1.00  0.00     0.000 HD 
BRANCH  29  31
HETATM   31  C   UNL     1      -7.974   3.090  71.839  1.00  0.00    -0.058 C  
HETATM   32  C   UNL     1      -8.606   2.666  73.145  1.00  0.00    -0.071 C  
ENDBRANCH  29  31
ENDBRANCH  27  29
ENDBRANCH  19  27
ENDBRANCH  15  18
BRANCH  16  33
HETATM   33  C   UNL     1      -9.535   3.726  65.670  1.00  0.00    -0.170 C  
BRANCH  33  34
HETATM   34  C   UNL     1      -9.719   4.562  64.432  1.00  0.00     0.002 C  
HETATM   35  C   UNL     1      -8.827   4.779  63.457  1.00  0.00    -0.104 C  
ENDBRANCH  33  34
ENDBRANCH  16  33
TORSDOF 9
ENDMDL
MODEL      202
REMARK 921   NORMALIZED FREE ENERGY PREDICTED BY IDOCK:    6.20 KCAL/MOL
REMARK 922        TOTAL FREE ENERGY PREDICTED BY IDOCK:    8.75 KCAL/MOL
REMARK 923 INTER-LIGAND FREE ENERGY PREDICTED BY IDOCK:    2.35 KCAL/MOL
REMARK 924 INTRA-LIGAND FREE ENERGY PREDICTED BY IDOCK:    6.40 KCAL/MOL
REMARK 927      BINDING AFFINITY PREDICTED BY RF-SCORE:    0.00 PKD
ROOT
HETATM    1  C   UNL     1      -9.163  12.627  66.119  1.00  0.00    -0.045 C  
HETATM    2  C   UNL     1      -8.393  12.251  64.853  1.00  0.00     2.168 C  
HETATM    3  C   UNL     1      -7.744  10.954  65.158  1.00  0.00     0.207 A  
HETATM    4  C   UNL     1      -6.514  10.411  64.913  1.00  0.00    -0.072 A  
HETATM    5  N   UNL     1      -6.583   9.088  65.291  1.00  0.00    -0.068 NA 
HETATM    6  H   UNL     1      -5.820   8.417  65.207  1.00  0.00     0.000 HD 
HETATM    7  C   UNL     1      -7.831   8.803  65.798  1.00  0.00    -0.099 A  
HETATM    8  C   UNL     1      -8.496   7.625  66.112  1.00  0.00    -0.147 A  
HETATM    9  C   UNL     1      -9.807   7.762  66.606  1.00  0.00    -0.295 A  
HETATM   10  C   UNL     1     -10.373   9.019  66.911  1.00  0.00    -0.324 A  
HETATM   11  C   UNL     1      -9.675  10.195  66.629  1.00  0.00    -0.242 A  
HETATM   12  C   UNL     1     -10.203  11.618  66.781  1.00  0.00    -0.248 C  
HETATM   13  C   UNL     1      -8.456  10.022  65.952  1.00  0.00    -0.139 A  
HETATM   14  C   UNL     1     -10.523  12.209  68.210  1.00  0.00    -0.225 C  
HETATM   15  C   UNL     1      -9.409  13.236  68.657  1.00  0.00    -0.001 C  
HETATM   16  N   UNL     1      -9.672  13.997  66.127  1.00  0.00    -0.295 NA 
HETATM   17  C   UNL     1      -9.488  14.412  67.552  1.00  0.00    -0.207 C  
ENDROOT
BRANCH  15  18
HETATM   18  C   UNL     1      -8.142  12.281  69.104  1.00  0.00     0.429 C  
HETATM   19  N   UNL     1      -6.780  12.623  69.120  1.00  0.00    -0.102 N  
HETATM   20  O   UNL     1      -8.444  11.183  69.572  1.00  0.00     0.145 OA 
BRANCH  19  21
HETATM   21  C   UNL     1      -5.826  11.654  69.778  1.00  0.00    -0.111 C  
BRANCH  21  22
HETATM   22  C   UNL     1      -5.813  11.461  71.315  1.00  0.00     0.360 C  
HETATM   23  C   UNL     1      -6.910  10.693  72.108  1.00  0.00     3.600 C  
BRANCH  23  24
HETATM   24  N   UNL     1      -7.415   9.349  71.754  1.00  0.00    -0.186 NA 
HETATM   25  C   UNL     1      -6.429   8.682  70.867  1.00  0.00    -0.047 C  
HETATM   26  C   UNL     1      -8.692   9.360  71.016  1.00  0.00     0.004 C  
ENDBRANCH  23  24
ENDBRANCH  21  22
ENDBRANCH  19  21
BRANCH  19  27
HETATM   27  C   UNL     1      -6.360  13.940  68.987  1.00  0.00    -0.099 C  
HETATM   28  O   UNL     1      -5.948  14.627  69.916  1.00  0.00    -0.111 OA 
BRANCH  27  29
HETATM   29  N   UNL     1      -6.375  14.424  67.695  1.00  0.00    -0.149 N  
HETATM   30  H   UNL     1      -5.722  14.056  67.004  1.00  0.00     0.000 HD 
BRANCH  29  31
HETATM   31  C   UNL     1      -7.317  15.452  67.323  1.00  0.00    -0.204 C  
HETATM   32  C   UNL     1      -6.802  16.825  67.690  1.00  0.00    -0.158 C  
ENDBRANCH  29  31
ENDBRANCH  27  29
ENDBRANCH  19  27
ENDBRANCH  15  18
BRANCH  16  33
HETATM   33  C   UNL     1     -11.033  14.047  65.548  1.00  0.00    -0.309 C  
BRANCH  33  34
HETATM   34  C   UNL     1     -12.195  13.860  66.485  1.00  0.00    -0.482 C  
HETATM   35  C   UNL     1     -12.284  14.257  67.761  1.00  0.00    -0.199 C  
ENDBRANCH  33  34
ENDBRANCH  16  33
TORSDOF 9
ENDMDL
MODEL      203
REMARK 921   NORMALIZED FREE ENERGY PREDICTED BY IDOCK:    6.90 KCAL/MOL
REMARK 922        TOTAL FREE ENERGY PREDICTED BY IDOCK:    9.81 KCAL/MOL
REMARK 923 INTER-LIGAND FREE ENERGY PREDICTED BY IDOCK:    0.92 KCAL/MOL
REMARK 924 INTRA-LIGAND FREE ENERGY PREDICTED BY IDOCK:    8.90 KCAL/MOL
REMARK 927      BINDING AFFINITY PREDICTED BY RF-SCORE:    0.00 PKD
ROOT
HETATM    1  C   UNL     1     -10.363  10.742  66.817  1.00  0.00    -0.243 C  
HETATM    2  C   UNL     1     -11.521   9.802  66.485  1.00  0.00     1.659 C  
HETATM    3  C   UNL     1     -11.474   8.740  67.517  1.00  0.00     1.477 A  
HETATM    4  C   UNL     1     -11.632   7.382  67.510  1.00  0.00     1.156 A  
HETATM    5  N   UNL     1     -11.653   6.979  68.827  1.00  0.00    -0.270 NA 
HETATM    6  H   UNL     1     -11.780   6.017  69.141  1.00  0.00     0.000 HD 
HETATM    7  C   UNL     1     -11.480   8.062  69.659  1.00  0.00     0.336 A  
HETATM    8  C   UNL     1     -11.630   8.261  71.024  1.00  0.00    -0.301 A  
HETATM    9  C   UNL     1     -11.365   9.559  71.500  1.00  0.00    -0.456 A  
HETATM   10  C   UNL     1     -10.832  10.573  70.673  1.00  0.00     0.063 A  
HETATM   11  C   UNL     1     -10.646  10.345  69.308  1.00  0.00    -0.259 A  
HETATM   12  C   UNL     1     -10.206  11.374  68.271  1.00  0.00    -0.204 C  
HETATM   13  C   UNL     1     -11.111   9.107  68.836  1.00  0.00     0.089 A  
HETATM   14  C   UNL     1      -8.752  11.989  68.316  1.00  0.00    -0.178 C  
HETATM   15  C   UNL     1      -7.844  11.372  67.181  1.00  0.00    -0.156 C  
HETATM   16  N   UNL     1     -10.069  11.725  65.775  1.00  0.00    -0.228 NA 
HETATM   17  C   UNL     1      -8.576  11.807  65.807  1.00  0.00     0.219 C  
ENDROOT
BRANCH  15  18
HETATM   18  C   UNL     1      -7.456   9.875  67.750  1.00  0.00    -0.090 C  
HETATM   19  N   UNL     1      -6.507   9.556  68.735  1.00  0.00    -0.047 N  
HETATM   20  O   UNL     1      -8.154   8.951  67.333  1.00  0.00    -0.107 OA 
BRANCH  19  21
HETATM   21  C   UNL     1      -6.484   8.135  69.246  1.00  0.00    -0.039 C  
BRANCH  21  22
HETATM   22  C   UNL     1      -7.350   7.032  68.586  1.00  0.00    -0.097 C  
HETATM   23  C   UNL     1      -8.058   7.186  67.208  1.00  0.00    -0.115 C  
BRANCH  23  24
HETATM   24  N   UNL     1      -7.401   7.673  65.977  1.00  0.00    -0.076 NA 
HETATM   25  C   UNL     1      -8.160   7.182  64.799  1.00  0.00    -0.092 C  
HETATM   26  C   UNL     1      -6.016   7.195  65.803  1.00  0.00    -0.037 C  
ENDBRANCH  23  24
ENDBRANCH  21  22
ENDBRANCH  19  21
BRANCH  19  27
HETATM   27  C   UNL     1      -5.942  10.533  69.543  1.00  0.00    -0.046 C  
HETATM   28  O   UNL     1      -5.743  10.400  70.746  1.00  0.00    -0.085 OA 
BRANCH  27  29
HETATM   29  N   UNL     1      -5.547  11.676  68.879  1.00  0.00    -0.049 N  
HETATM   30  H   UNL     1      -4.792  11.635  68.195  1.00  0.00     0.000 HD 
BRANCH  29  31
HETATM   31  C   UNL     1      -6.205  12.931  69.153  1.00  0.00    -0.101 C  
HETATM   32  C   UNL     1      -6.243  13.217  70.637  1.00  0.00     0.189 C  
ENDBRANCH  29  31
ENDBRANCH  27  29
ENDBRANCH  19  27
ENDBRANCH  15  18
BRANCH  16  33
HETATM   33  C   UNL     1     -10.849  12.962  65.996  1.00  0.00    -0.279 C  
BRANCH  33  34
HETATM   34  C   UNL     1     -10.085  14.252  66.129  1.00  0.00    -0.325 C  
HETATM   35  C   UNL     1     -10.452  15.464  65.694  1.00  0.00    -0.391 C  
ENDBRANCH  33  34
ENDBRANCH  16  33
TORSDOF 9
ENDMDL
MODEL      204
REMARK 921   NORMALIZED FREE ENERGY PREDICTED BY IDOCK:    8.22 KCAL/MOL
REMARK 922        TOTAL FREE ENERGY PREDICTED BY IDOCK:   11.83 KCAL/MOL
REMARK 923 INTER-LIGAND FREE ENERGY PREDICTED BY IDOCK:   10.83 KCAL/MOL
REMARK 924 INTRA-LIGAND FREE ENERGY PREDICTED BY IDOCK:    1.00 KCAL/MOL
REMARK 927      BINDING AFFINITY PREDICTED BY RF-SCORE:    0.00 PKD
ROOT
HETATM    1  C   UNL     1      -8.524   3.459  66.701  1.00  0.00    -0.109 C  
HETATM    2  C   UNL     1      -9.953   2.949  66.514  1.00  0.00     0.793 C  
HETATM    3  C   UNL     1     -10.664   4.025  65.785  1.00  0.00     0.503 A  
HETATM    4  C   UNL     1     -11.903   4.595  65.876  1.00  0.00     3.105 A  
HETATM    5  N   UNL     1     -12.036   5.431  64.789  1.00  0.00     2.001 NA 
HETATM    6  H   UNL     1     -12.867   5.981  64.575  1.00  0.00     0.000 HD 
HETATM    7  C   UNL     1     -10.884   5.416  64.035  1.00  0.00     3.026 A  
HETATM    8  C   UNL     1     -10.558   5.880  62.767  1.00  0.00     4.026 A  
HETATM    9  C   UNL     1      -9.238   5.646  62.337  1.00  0.00     0.336 A  
HETATM   10  C   UNL     1      -8.250   5.107  63.189  1.00  0.00    -0.109 A  
HETATM   11  C   UNL     1      -8.583   4.683  64.477  1.00  0.00    -0.141 A  
HETATM   12  C   UNL     1      -7.662   3.967  65.460  1.00  0.00    -0.085 C  
HETATM   13  C   UNL     1      -9.950   4.746  64.796  1.00  0.00     0.152 A  
HETATM   14  C   UNL     1      -6.415   4.710  66.081  1.00  0.00    -0.041 C  
HETATM   15  C   UNL     1      -6.688   5.108  67.585  1.00  0.00    -0.055 C  
HETATM   16  N   UNL     1      -7.716   2.661  67.619  1.00  0.00    -0.060 NA 
HETATM   17  C   UNL     1      -6.907   3.694  68.336  1.00  0.00    -0.046 C  
ENDROOT
BRANCH  15  18
HETATM   18  C   UNL     1      -7.681   6.419  67.477  1.00  0.00    -0.101 C  
HETATM   19  N   UNL     1      -8.296   7.113  68.532  1.00  0.00    -0.124 N  
HETATM   20  O   UNL     1      -7.807   6.898  66.350  1.00  0.00    -0.099 OA 
BRANCH  19  21
HETATM   21  C   UNL     1      -8.984   8.416  68.201  1.00  0.00    -0.139 C  
BRANCH  21  22
HETATM   22  C   UNL     1     -10.163   8.466  67.198  1.00  0.00    -0.362 C  
HETATM   23  C   UNL     1     -10.383   9.610  66.165  1.00  0.00    -0.132 C  
BRANCH  23  24
HETATM   24  N   UNL     1      -9.339  10.130  65.256  1.00  0.00    -0.203 NA 
HETATM   25  C   UNL     1      -9.890  11.282  64.498  1.00  0.00    -0.270 C  
HETATM   26  C   UNL     1      -8.877   9.157  64.248  1.00  0.00    -0.100 C  
ENDBRANCH  23  24
ENDBRANCH  21  22
ENDBRANCH  19  21
BRANCH  19  27
HETATM   27  C   UNL     1      -7.921   6.907  69.853  1.00  0.00    -0.120 C  
HETATM   28  O   UNL     1      -6.802   6.547  70.203  1.00  0.00    -0.054 OA 
BRANCH  27  29
HETATM   29  N   UNL     1      -8.898   7.202  70.783  1.00  0.00    -0.147 N  
HETATM   30  H   UNL     1      -8.831   8.052  71.342  1.00  0.00     0.000 HD 
BRANCH  29  31
HETATM   31  C   UNL     1     -10.013   6.304  70.964  1.00  0.00    -0.182 C  
HETATM   32  C   UNL     1     -11.287   6.893  70.402  1.00  0.00    -0.376 C  
ENDBRANCH  29  31
ENDBRANCH  27  29
ENDBRANCH  19  27
ENDBRANCH  15  18
BRANCH  16  33
HETATM   33  C   UNL     1      -7.004   1.590  66.886  1.00  0.00    -0.038 C  
BRANCH  33  34
HETATM   34  C   UNL     1      -5.603   1.880  66.419  1.00  0.00    -0.017 C  
HETATM   35  C   UNL     1      -5.178   2.016  65.156  1.00  0.00    -0.005 C  
ENDBRANCH  33  34
ENDBRANCH  16  33
TORSDOF 9
ENDMDL
MODEL      205
REMARK 921   NORMALIZED FREE ENERGY PREDICTED BY IDOCK:    9.81 KCAL/MOL
REMARK 922        TOTAL FREE ENERGY PREDICTED BY IDOCK:   14.26 KCAL/MOL
REMARK 923 INTER-LIGAND FREE ENERGY PREDICTED BY IDOCK:   10.66 KCAL/MOL
REMARK 924 INTRA-LIGAND FREE ENERGY PREDICTED BY IDOCK:    3.60 KCAL/MOL
REMARK 927      BINDING AFFINITY PREDICTED BY RF-SCORE:    0.00 PKD
ROOT
HETATM    1  C   UNL     1      -7.447  13.236  67.808  1.00  0.00    -0.154 C  
HETATM    2  C   UNL     1      -7.921  11.893  68.365  1.00  0.00    -0.154 C  
HETATM    3  C   UNL     1      -9.397  11.995  68.435  1.00  0.00    -0.175 A  
HETATM    4  C   UNL     1     -10.348  11.618  69.342  1.00  0.00     0.178 A  
HETATM    5  N   UNL     1     -11.571  11.828  68.745  1.00  0.00    -0.281 NA 
HETATM    6  H   UNL     1     -12.473  11.618  69.173  1.00  0.00     0.000 HD 
HETATM    7  C   UNL     1     -11.401  12.360  67.487  1.00  0.00    -0.315 A  
HETATM    8  C   UNL     1     -12.245  12.556  66.403  1.00  0.00    -0.100 A  
HETATM    9  C   UNL     1     -11.666  13.132  65.256  1.00  0.00    -0.375 A  
HETATM   10  C   UNL     1     -10.343  13.625  65.244  1.00  0.00    -0.362 A  
HETATM   11  C   UNL     1      -9.517  13.459  66.358  1.00  0.00    -0.230 A  
HETATM   12  C   UNL     1      -8.038  13.818  66.448  1.00  0.00     0.999 C  
HETATM   13  C   UNL     1     -10.067  12.702  67.405  1.00  0.00    -0.218 A  
HETATM   14  C   UNL     1      -7.571  15.326  66.389  1.00  0.00     0.917 C  
HETATM   15  C   UNL     1      -7.148  15.840  67.821  1.00  0.00    -0.171 C  
HETATM   16  N   UNL     1      -6.003  13.445  67.895  1.00  0.00    -0.128 NA 
HETATM   17  C   UNL     1      -5.897  14.900  68.227  1.00  0.00    -0.118 C  
ENDROOT
BRANCH  15  18
HETATM   18  C   UNL     1      -8.580  16.094  68.595  1.00  0.00    -0.210 C  
HETATM   19  N   UNL     1      -9.382  17.246  68.551  1.00  0.00    -0.270 N  
HETATM   20  O   UNL     1      -9.041  15.121  69.191  1.00  0.00    -0.206 OA 
BRANCH  19  21
HETATM   21  C   UNL     1     -10.758  17.162  69.166  1.00  0.00    -0.184 C  
BRANCH  21  22
HETATM   22  C   UNL     1     -11.062  17.808  70.540  1.00  0.00     2.130 C  
HETATM   23  C   UNL     1     -10.101  18.785  71.278  1.00  0.00     3.395 C  
BRANCH  23  24
HETATM   24  N   UNL     1      -9.461  19.962  70.653  1.00  0.00     1.140 NA 
HETATM   25  C   UNL     1      -8.052  20.045  71.114  1.00  0.00     1.981 C  
HETATM   26  C   UNL     1     -10.087  21.249  71.009  1.00  0.00     3.741 C  
ENDBRANCH  23  24
ENDBRANCH  21  22
ENDBRANCH  19  21
BRANCH  19  27
HETATM   27  C   UNL     1      -9.162  18.249  67.616  1.00  0.00    -0.267 C  
HETATM   28  O   UNL     1      -9.651  18.259  66.491  1.00  0.00    -0.301 OA 
BRANCH  27  29
HETATM   29  N   UNL     1      -8.386  19.298  68.064  1.00  0.00    -0.305 N  
HETATM   30  H   UNL     1      -8.496  20.227  67.656  1.00  0.00     0.000 HD 
BRANCH  29  31
HETATM   31  C   UNL     1      -7.417  19.080  69.111  1.00  0.00    -0.235 C  
HETATM   32  C   UNL     1      -6.061  18.736  68.540  1.00  0.00    -0.225 C  
ENDBRANCH  29  31
ENDBRANCH  27  29
ENDBRANCH  19  27
ENDBRANCH  15  18
BRANCH  16  33
HETATM   33  C   UNL     1      -5.334  12.950  66.671  1.00  0.00     1.322 C  
BRANCH  33  34
HETATM   34  C   UNL     1      -5.150  11.462  66.533  1.00  0.00    -0.118 C  
HETATM   35  C   UNL     1      -5.722  10.500  67.268  1.00  0.00    -0.041 C  
ENDBRANCH  33  34
ENDBRANCH  16  33
TORSDOF 9
ENDMDL
MODEL      206
REMARK 921   NORMALIZED FREE ENERGY PREDICTED BY IDOCK:   11.12 KCAL/MOL
REMARK 922        TOTAL FREE ENERGY PREDICTED BY IDOCK:   16.26 KCAL/MOL
REMARK 923 INTER-LIGAND FREE ENERGY PREDICTED BY IDOCK:   16.08 KCAL/MOL
REMARK 924 INTRA-LIGAND FREE ENERGY PREDICTED BY IDOCK:    0.18 KCAL/MOL
REMARK 927      BINDING AFFINITY PREDICTED BY RF-SCORE:    0.00 PKD
ROOT
HETATM    1  C   UNL     1      -8.035   2.929  65.839  1.00  0.00    -0.082 C  
HETATM    2  C   UNL     1      -9.322   2.118  65.988  1.00  0.00     0.101 C  
HETATM    3  C   UNL     1     -10.423   3.077  65.737  1.00  0.00     1.566 A  
HETATM    4  C   UNL     1     -11.643   3.316  66.305  1.00  0.00     7.573 A  
HETATM    5  N   UNL     1     -12.286   4.229  65.499  1.00  0.00     2.300 NA 
HETATM    6  H   UNL     1     -13.227   4.586  65.657  1.00  0.00     0.000 HD 
HETATM    7  C   UNL     1     -11.472   4.589  64.448  1.00  0.00     1.000 A  
HETATM    8  C   UNL     1     -11.682   5.279  63.261  1.00  0.00     4.089 A  
HETATM    9  C   UNL     1     -10.563   5.428  62.420  1.00  0.00     1.630 A  
HETATM   10  C   UNL     1      -9.265   5.037  62.812  1.00  0.00     0.090 A  
HETATM   11  C   UNL     1      -9.062   4.381  64.028  1.00  0.00    -0.143 A  
HETATM   12  C   UNL     1      -7.749   3.786  64.526  1.00  0.00    -0.081 C  
HETATM   13  C   UNL     1     -10.229   4.071  64.746  1.00  0.00    -0.223 A  
HETATM   14  C   UNL     1      -6.527   4.720  64.883  1.00  0.00    -0.036 C  
HETATM   15  C   UNL     1      -6.349   4.842  66.448  1.00  0.00    -0.036 C  
HETATM   16  N   UNL     1      -6.832   2.235  66.295  1.00  0.00    -0.042 NA 
HETATM   17  C   UNL     1      -6.037   3.331  66.930  1.00  0.00    -0.024 C  
ENDROOT
BRANCH  15  18
HETATM   18  C   UNL     1      -7.545   5.877  66.906  1.00  0.00    -0.099 C  
HETATM   19  N   UNL     1      -8.083   6.044  68.193  1.00  0.00    -0.109 N  
HETATM   20  O   UNL     1      -7.932   6.660  66.039  1.00  0.00    -0.103 OA 
BRANCH  19  21
HETATM   21  C   UNL     1      -9.019   7.209  68.412  1.00  0.00    -0.125 C  
BRANCH  21  22
HETATM   22  C   UNL     1      -8.828   8.176  69.607  1.00  0.00    -0.143 C  
HETATM   23  C   UNL     1      -8.481   9.686  69.461  1.00  0.00    -0.159 C  
BRANCH  23  24
HETATM   24  N   UNL     1      -9.189  10.628  68.568  1.00  0.00    -0.162 NA 
HETATM   25  C   UNL     1     -10.636  10.295  68.566  1.00  0.00    -0.213 C  
HETATM   26  C   UNL     1      -8.751  10.569  67.161  1.00  0.00    -0.130 C  
ENDBRANCH  23  24
ENDBRANCH  21  22
ENDBRANCH  19  21
BRANCH  19  27
HETATM   27  C   UNL     1      -7.467   5.502  69.314  1.00  0.00    -0.078 C  
HETATM   28  O   UNL     1      -6.346   5.814  69.701  1.00  0.00    -0.034 OA 
BRANCH  27  29
HETATM   29  N   UNL     1      -8.243   4.608  70.024  1.00  0.00    -0.067 N  
HETATM   30  H   UNL     1      -9.241   4.529  69.827  1.00  0.00     0.000 HD 
BRANCH  29  31
HETATM   31  C   UNL     1      -7.640   3.787  71.045  1.00  0.00    -0.047 C  
HETATM   32  C   UNL     1      -8.634   3.445  72.131  1.00  0.00    -0.102 C  
ENDBRANCH  29  31
ENDBRANCH  27  29
ENDBRANCH  19  27
ENDBRANCH  15  18
BRANCH  16  33
HETATM   33  C   UNL     1      -6.222   1.473  65.183  1.00  0.00    -0.018 C  
BRANCH  33  34
HETATM   34  C   UNL     1      -5.247   2.198  64.295  1.00  0.00    -0.008 C  
HETATM   35  C   UNL     1      -5.257   2.263  62.957  1.00  0.00    -0.007 C  
ENDBRANCH  33  34
ENDBRANCH  16  33
TORSDOF 9
ENDMDL
MODEL      207
REMARK 921   NORMALIZED FREE ENERGY PREDICTED BY IDOCK:   12.24 KCAL/MOL
REMARK 922        TOTAL FREE ENERGY PREDICTED BY IDOCK:   17.97 KCAL/MOL
REMARK 923 INTER-LIGAND FREE ENERGY PREDICTED BY IDOCK:   16.54 KCAL/MOL
REMARK 924 INTRA-LIGAND FREE ENERGY PREDICTED BY IDOCK:    1.43 KCAL/MOL
REMARK 927      BINDING AFFINITY PREDICTED BY RF-SCORE:    0.00 PKD
ROOT
HETATM    1  C   UNL     1      -9.836   9.985  67.068  1.00  0.00    -0.189 C  
HETATM    2  C   UNL     1      -8.690   9.454  67.929  1.00  0.00    -0.120 C  
HETATM    3  C   UNL     1      -9.098   9.710  69.330  1.00  0.00    -0.174 A  
HETATM    4  C   UNL     1      -8.460  10.155  70.454  1.00  0.00     0.449 A  
HETATM    5  N   UNL     1      -9.344  10.003  71.499  1.00  0.00     0.656 NA 
HETATM    6  H   UNL     1      -9.143  10.231  72.472  1.00  0.00     0.000 HD 
HETATM    7  C   UNL     1     -10.540   9.497  71.039  1.00  0.00    -0.322 A  
HETATM    8  C   UNL     1     -11.661   8.962  71.660  1.00  0.00    -0.408 A  
HETATM    9  C   UNL     1     -12.697   8.527  70.812  1.00  0.00     0.238 A  
HETATM   10  C   UNL     1     -12.677   8.751  69.418  1.00  0.00     3.273 A  
HETATM   11  C   UNL     1     -11.559   9.328  68.812  1.00  0.00     0.705 A  
HETATM   12  C   UNL     1     -11.338   9.513  67.314  1.00  0.00     0.734 C  
HETATM   13  C   UNL     1     -10.467   9.563  69.664  1.00  0.00    -0.239 A  
HETATM   14  C   UNL     1     -12.241  10.509  66.485  1.00  0.00     3.905 C  
HETATM   15  C   UNL     1     -11.449  11.830  66.136  1.00  0.00    -0.288 C  
HETATM   16  N   UNL     1      -9.529  10.064  65.641  1.00  0.00    -0.201 NA 
HETATM   17  C   UNL     1     -10.216  11.324  65.222  1.00  0.00    -0.274 C  
ENDROOT
BRANCH  15  18
HETATM   18  C   UNL     1     -11.445  12.678  67.549  1.00  0.00    -0.340 C  
HETATM   19  N   UNL     1     -10.690  13.821  67.857  1.00  0.00    -0.244 N  
HETATM   20  O   UNL     1     -12.277  12.322  68.384  1.00  0.00    -0.282 OA 
BRANCH  19  21
HETATM   21  C   UNL     1     -11.020  14.551  69.138  1.00  0.00    -0.268 C  
BRANCH  21  22
HETATM   22  C   UNL     1     -11.283  13.778  70.454  1.00  0.00     0.286 C  
HETATM   23  C   UNL     1     -12.580  13.916  71.304  1.00  0.00    -0.371 C  
BRANCH  23  24
HETATM   24  N   UNL     1     -13.953  13.835  70.759  1.00  0.00     0.531 NA 
HETATM   25  C   UNL     1     -14.130  12.518  70.097  1.00  0.00     5.143 C  
HETATM   26  C   UNL     1     -14.258  14.854  69.739  1.00  0.00     3.491 C  
ENDBRANCH  23  24
ENDBRANCH  21  22
ENDBRANCH  19  21
BRANCH  19  27
HETATM   27  C   UNL     1     -10.016  14.533  66.874  1.00  0.00    -0.259 C  
HETATM   28  O   UNL     1     -10.339  14.546  65.691  1.00  0.00    -0.310 OA 
BRANCH  27  29
HETATM   29  N   UNL     1      -8.964  15.300  67.333  1.00  0.00    -0.177 N  
HETATM   30  H   UNL     1      -9.101  16.293  67.524  1.00  0.00     0.000 HD 
BRANCH  29  31
HETATM   31  C   UNL     1      -7.671  14.696  67.543  1.00  0.00    -0.195 C  
HETATM   32  C   UNL     1      -7.656  13.259  67.074  1.00  0.00     0.157 C  
ENDBRANCH  29  31
ENDBRANCH  27  29
ENDBRANCH  19  27
ENDBRANCH  15  18
BRANCH  16  33
HETATM   33  C   UNL     1      -9.896   8.801  64.963  1.00  0.00     1.039 C  
BRANCH  33  34
HETATM   34  C   UNL     1      -9.685   7.517  65.721  1.00  0.00     0.467 C  
HETATM   35  C   UNL     1      -8.939   6.468  65.353  1.00  0.00     0.129 C  
ENDBRANCH  33  34
ENDBRANCH  16  33
TORSDOF 9
ENDMDL
MODEL      208
REMARK 921   NORMALIZED FREE ENERGY PREDICTED BY IDOCK:   13.65 KCAL/MOL
REMARK 922        TOTAL FREE ENERGY PREDICTED BY IDOCK:   20.13 KCAL/MOL
REMARK 923 INTER-LIGAND FREE ENERGY PREDICTED BY IDOCK:   16.47 KCAL/MOL
REMARK 924 INTRA-LIGAND FREE ENERGY PREDICTED BY IDOCK:    3.66 KCAL/MOL
REMARK 927      BINDING AFFINITY PREDICTED BY RF-SCORE:    0.00 PKD
ROOT
HETATM    1  C   UNL     1     -10.692   7.962  70.356  1.00  0.00    -0.233 C  
HETATM    2  C   UNL     1      -9.535   8.932  70.597  1.00  0.00    -0.259 C  
HETATM    3  C   UNL     1      -9.320   9.618  69.301  1.00  0.00    -0.184 A  
HETATM    4  C   UNL     1      -8.222   9.994  68.579  1.00  0.00    -0.108 A  
HETATM    5  N   UNL     1      -8.679  10.764  67.533  1.00  0.00    -0.125 NA 
HETATM    6  H   UNL     1      -8.086  11.207  66.832  1.00  0.00     0.000 HD 
HETATM    7  C   UNL     1     -10.052  10.850  67.571  1.00  0.00    -0.184 A  
HETATM    8  C   UNL     1     -10.985  11.644  66.918  1.00  0.00    -0.342 A  
HETATM    9  C   UNL     1     -12.334  11.431  67.257  1.00  0.00     1.507 A  
HETATM   10  C   UNL     1     -12.744  10.374  68.100  1.00  0.00     3.888 A  
HETATM   11  C   UNL     1     -11.796   9.556  68.718  1.00  0.00     0.956 A  
HETATM   12  C   UNL     1     -12.076   8.466  69.747  1.00  0.00     1.114 C  
HETATM   13  C   UNL     1     -10.457   9.928  68.513  1.00  0.00    -0.232 A  
HETATM   14  C   UNL     1     -12.865   7.160  69.341  1.00  0.00     3.421 C  
HETATM   15  C   UNL     1     -11.886   5.926  69.215  1.00  0.00     1.351 C  
HETATM   16  N   UNL     1     -10.904   7.000  71.436  1.00  0.00    -0.227 NA 
HETATM   17  C   UNL     1     -11.275   5.752  70.701  1.00  0.00    -0.126 C  
ENDROOT
BRANCH  15  18
HETATM   18  C   UNL     1     -11.124   6.167  67.775  1.00  0.00    -0.200 C  
HETATM   19  N   UNL     1      -9.751   6.375  67.560  1.00  0.00    -0.118 N  
HETATM   20  O   UNL     1     -11.829   6.046  66.773  1.00  0.00     0.811 OA 
BRANCH  19  21
HETATM   21  C   UNL     1      -9.258   6.352  66.132  1.00  0.00    -0.106 C  
BRANCH  21  22
HETATM   22  C   UNL     1      -9.725   7.414  65.106  1.00  0.00     1.709 C  
HETATM   23  C   UNL     1      -8.760   8.316  64.283  1.00  0.00     0.245 C  
BRANCH  23  24
HETATM   24  N   UNL     1      -7.592   7.820  63.523  1.00  0.00    -0.119 NA 
HETATM   25  C   UNL     1      -8.051   6.802  62.544  1.00  0.00    -0.075 C  
HETATM   26  C   UNL     1      -6.568   7.161  64.354  1.00  0.00    -0.040 C  
ENDBRANCH  23  24
ENDBRANCH  21  22
ENDBRANCH  19  21
BRANCH  19  27
HETATM   27  C   UNL     1      -8.816   6.148  68.561  1.00  0.00    -0.113 C  
HETATM   28  O   UNL     1      -9.101   5.961  69.739  1.00  0.00    -0.135 OA 
BRANCH  27  29
HETATM   29  N   UNL     1      -7.508   6.081  68.126  1.00  0.00    -0.087 N  
HETATM   30  H   UNL     1      -7.054   5.175  68.011  1.00  0.00     0.000 HD 
BRANCH  29  31
HETATM   31  C   UNL     1      -6.784   7.294  67.834  1.00  0.00    -0.061 C  
HETATM   32  C   UNL     1      -5.439   6.994  67.214  1.00  0.00    -0.017 C  
ENDBRANCH  29  31
ENDBRANCH  27  29
ENDBRANCH  19  27
ENDBRANCH  15  18
BRANCH  16  33
HETATM   33  C   UNL     1     -11.853   7.542  72.432  1.00  0.00    -0.261 C  
BRANCH  33  34
HETATM   34  C   UNL     1     -12.364   6.601  73.491  1.00  0.00     2.490 C  
HETATM   35  C   UNL     1     -13.117   5.508  73.312  1.00  0.00     2.328 C  
ENDBRANCH  33  34
ENDBRANCH  16  33
TORSDOF 9
ENDMDL
MODEL      209
REMARK 921   NORMALIZED FREE ENERGY PREDICTED BY IDOCK:   14.13 KCAL/MOL
REMARK 922        TOTAL FREE ENERGY PREDICTED BY IDOCK:   20.85 KCAL/MOL
REMARK 923 INTER-LIGAND FREE ENERGY PREDICTED BY IDOCK:   18.06 KCAL/MOL
REMARK 924 INTRA-LIGAND FREE ENERGY PREDICTED BY IDOCK:    2.80 KCAL/MOL
REMARK 927      BINDING AFFINITY PREDICTED BY RF-SCORE:    0.00 PKD
ROOT
HETATM    1  C   UNL     1      -8.063   2.926  65.844  1.00  0.00    -0.087 C  
HETATM    2  C   UNL     1      -9.300   2.052  66.049  1.00  0.00     0.115 C  
HETATM    3  C   UNL     1     -10.457   2.936  65.775  1.00  0.00     1.728 A  
HETATM    4  C   UNL     1     -11.681   3.130  66.352  1.00  0.00     9.607 A  
HETATM    5  N   UNL     1     -12.385   3.969  65.518  1.00  0.00     3.710 NA 
HETATM    6  H   UNL     1     -13.343   4.279  65.676  1.00  0.00     0.000 HD 
HETATM    7  C   UNL     1     -11.608   4.329  64.440  1.00  0.00     1.157 A  
HETATM    8  C   UNL     1     -11.873   4.953  63.228  1.00  0.00     3.068 A  
HETATM    9  C   UNL     1     -10.777   5.128  62.363  1.00  0.00     1.144 A  
HETATM   10  C   UNL     1      -9.453   4.827  62.750  1.00  0.00     0.060 A  
HETATM   11  C   UNL     1      -9.196   4.237  63.989  1.00  0.00    -0.148 A  
HETATM   12  C   UNL     1      -7.845   3.739  64.491  1.00  0.00    -0.085 C  
HETATM   13  C   UNL     1     -10.334   3.895  64.739  1.00  0.00    -0.184 A  
HETATM   14  C   UNL     1      -6.673   4.756  64.788  1.00  0.00    -0.044 C  
HETATM   15  C   UNL     1      -6.480   4.956  66.342  1.00  0.00    -0.041 C  
HETATM   16  N   UNL     1      -6.817   2.322  66.310  1.00  0.00    -0.042 NA 
HETATM   17  C   UNL     1      -6.076   3.487  66.884  1.00  0.00    -0.025 C  
ENDROOT
BRANCH  15  18
HETATM   18  C   UNL     1      -7.727   5.941  66.776  1.00  0.00    -0.100 C  
HETATM   19  N   UNL     1      -7.710   6.970  67.733  1.00  0.00    -0.110 N  
HETATM   20  O   UNL     1      -8.754   5.824  66.107  1.00  0.00    -0.129 OA 
BRANCH  19  21
HETATM   21  C   UNL     1      -8.913   7.880  67.798  1.00  0.00    -0.128 C  
BRANCH  21  22
HETATM   22  C   UNL     1     -10.282   7.363  68.306  1.00  0.00    -0.213 C  
HETATM   23  C   UNL     1     -10.806   7.561  69.758  1.00  0.00    -0.225 C  
BRANCH  23  24
HETATM   24  N   UNL     1     -10.813   8.853  70.479  1.00  0.00    -0.228 NA 
HETATM   25  C   UNL     1     -11.364   8.641  71.841  1.00  0.00    -0.347 C  
HETATM   26  C   UNL     1     -11.653   9.889  69.851  1.00  0.00    -0.127 C  
ENDBRANCH  23  24
ENDBRANCH  21  22
ENDBRANCH  19  21
BRANCH  19  27
HETATM   27  C   UNL     1      -6.520   7.446  68.266  1.00  0.00    -0.045 C  
HETATM   28  O   UNL     1      -5.433   6.895  68.124  1.00  0.00    -0.017 OA 
BRANCH  27  29
HETATM   29  N   UNL     1      -6.626   8.649  68.935  1.00  0.00    -0.052 N  
HETATM   30  H   UNL     1      -7.544   9.004  69.204  1.00  0.00     0.000 HD 
BRANCH  29  31
HETATM   31  C   UNL     1      -5.438   9.403  69.252  1.00  0.00    -0.036 C  
HETATM   32  C   UNL     1      -5.737  10.508  70.239  1.00  0.00    -0.079 C  
ENDBRANCH  29  31
ENDBRANCH  27  29
ENDBRANCH  19  27
ENDBRANCH  15  18
BRANCH  16  33
HETATM   33  C   UNL     1      -6.180   1.547  65.222  1.00  0.00    -0.022 C  
BRANCH  33  34
HETATM   34  C   UNL     1      -5.244   2.282  64.300  1.00  0.00    -0.008 C  
HETATM   35  C   UNL     1      -5.302   2.344  62.963  1.00  0.00    -0.008 C  
ENDBRANCH  33  34
ENDBRANCH  16  33
TORSDOF 9
ENDMDL
MODEL      210
REMARK 921   NORMALIZED FREE ENERGY PREDICTED BY IDOCK:   18.05 KCAL/MOL
REMARK 922        TOTAL FREE ENERGY PREDICTED BY IDOCK:   26.84 KCAL/MOL
REMARK 923 INTER-LIGAND FREE ENERGY PREDICTED BY IDOCK:   19.89 KCAL/MOL
REMARK 924 INTRA-LIGAND FREE ENERGY PREDICTED BY IDOCK:    6.94 KCAL/MOL
REMARK 927      BINDING AFFINITY PREDICTED BY RF-SCORE:    0.00 PKD
ROOT
HETATM    1  C   UNL     1      -8.953  15.309  66.728  1.00  0.00    -0.262 C  
HETATM    2  C   UNL     1      -8.874  16.660  66.016  1.00  0.00    -0.242 C  
HETATM    3  C   UNL     1      -8.570  17.647  67.078  1.00  0.00    -0.252 A  
HETATM    4  C   UNL     1      -9.002  18.910  67.373  1.00  0.00    -0.276 A  
HETATM    5  N   UNL     1      -8.201  19.376  68.393  1.00  0.00    -0.338 NA 
HETATM    6  H   UNL     1      -8.271  20.302  68.813  1.00  0.00     0.000 HD 
HETATM    7  C   UNL     1      -7.293  18.409  68.762  1.00  0.00    -0.287 A  
HETATM    8  C   UNL     1      -6.151  18.414  69.552  1.00  0.00    -0.260 A  
HETATM    9  C   UNL     1      -5.469  17.188  69.671  1.00  0.00    -0.189 A  
HETATM   10  C   UNL     1      -5.984  15.983  69.146  1.00  0.00    -0.127 A  
HETATM   11  C   UNL     1      -7.156  15.986  68.388  1.00  0.00    -0.125 A  
HETATM   12  C   UNL     1      -7.761  14.795  67.653  1.00  0.00    -0.199 C  
HETATM   13  C   UNL     1      -7.697  17.256  68.123  1.00  0.00    -0.217 A  
HETATM   14  C   UNL     1      -8.342  13.565  68.455  1.00  0.00    -0.097 C  
HETATM   15  C   UNL     1      -9.922  13.582  68.446  1.00  0.00    -0.232 C  
HETATM   16  N   UNL     1      -9.494  14.228  65.907  1.00  0.00    -0.190 NA 
HETATM   17  C   UNL     1     -10.311  13.445  66.884  1.00  0.00    -0.257 C  
ENDROOT
BRANCH  15  18
HETATM   18  C   UNL     1     -10.314  14.751  69.540  1.00  0.00    -0.112 C  
HETATM   19  N   UNL     1      -9.660  15.045  70.747  1.00  0.00     1.031 N  
HETATM   20  O   UNL     1     -11.220  15.513  69.201  1.00  0.00    -0.259 OA 
BRANCH  19  21
HETATM   21  C   UNL     1     -10.070  16.303  71.474  1.00  0.00     3.071 C  
BRANCH  21  22
HETATM   22  C   UNL     1     -11.207  16.285  72.527  1.00  0.00     0.579 C  
HETATM   23  C   UNL     1     -12.665  15.827  72.230  1.00  0.00    -0.446 C  
BRANCH  23  24
HETATM   24  N   UNL     1     -13.025  14.569  71.541  1.00  0.00    -0.318 NA 
HETATM   25  C   UNL     1     -13.561  14.892  70.195  1.00  0.00     0.689 C  
HETATM   26  C   UNL     1     -14.071  13.786  72.225  1.00  0.00    -0.531 C  
ENDBRANCH  23  24
ENDBRANCH  21  22
ENDBRANCH  19  21
BRANCH  19  27
HETATM   27  C   UNL     1      -8.410  14.516  71.044  1.00  0.00     3.419 C  
HETATM   28  O   UNL     1      -7.513  14.367  70.221  1.00  0.00     0.295 OA 
BRANCH  27  29
HETATM   29  N   UNL     1      -8.211  14.216  72.376  1.00  0.00     6.707 N  
HETATM   30  H   UNL     1      -9.006  13.981  72.971  1.00  0.00     0.000 HD 
BRANCH  29  31
HETATM   31  C   UNL     1      -6.878  14.235  72.926  1.00  0.00     2.941 C  
HETATM   32  C   UNL     1      -5.858  13.783  71.907  1.00  0.00     0.061 C  
ENDBRANCH  29  31
ENDBRANCH  27  29
ENDBRANCH  19  27
ENDBRANCH  15  18
BRANCH  16  33
HETATM   33  C   UNL     1      -8.406  13.536  65.181  1.00  0.00     4.213 C  
BRANCH  33  34
HETATM   34  C   UNL     1      -8.082  12.125  65.594  1.00  0.00     1.210 C  
HETATM   35  C   UNL     1      -6.962  11.438  65.334  1.00  0.00     0.892 C  
ENDBRANCH  33  34
ENDBRANCH  16  33
TORSDOF 9
ENDMDL
MODEL      211
REMARK 921   NORMALIZED FREE ENERGY PREDICTED BY IDOCK:   23.36 KCAL/MOL
REMARK 922        TOTAL FREE ENERGY PREDICTED BY IDOCK:   34.93 KCAL/MOL
REMARK 923 INTER-LIGAND FREE ENERGY PREDICTED BY IDOCK:   34.57 KCAL/MOL
REMARK 924 INTRA-LIGAND FREE ENERGY PREDICTED BY IDOCK:    0.36 KCAL/MOL
REMARK 927      BINDING AFFINITY PREDICTED BY RF-SCORE:    0.00 PKD
ROOT
HETATM    1  C   UNL     1     -11.158  13.206  70.648  1.00  0.00     1.614 C  
HETATM    2  C   UNL     1     -10.382  14.285  71.402  1.00  0.00     3.095 C  
HETATM    3  C   UNL     1      -9.970  15.266  70.371  1.00  0.00     0.203 A  
HETATM    4  C   UNL     1      -8.830  15.977  70.118  1.00  0.00     1.017 A  
HETATM    5  N   UNL     1      -9.133  16.867  69.111  1.00  0.00    -0.161 NA 
HETATM    6  H   UNL     1      -8.484  17.549  68.721  1.00  0.00     0.000 HD 
HETATM    7  C   UNL     1     -10.439  16.701  68.708  1.00  0.00    -0.324 A  
HETATM    8  C   UNL     1     -11.302  17.445  67.914  1.00  0.00     0.351 A  
HETATM    9  C   UNL     1     -12.603  16.929  67.754  1.00  0.00     3.284 A  
HETATM   10  C   UNL     1     -12.977  15.658  68.241  1.00  0.00     2.313 A  
HETATM   11  C   UNL     1     -12.084  14.903  69.004  1.00  0.00    -0.248 A  
HETATM   12  C   UNL     1     -12.385  13.581  69.703  1.00  0.00    -0.220 C  
HETATM   13  C   UNL     1     -10.869  15.538  69.311  1.00  0.00    -0.252 A  
HETATM   14  C   UNL     1     -12.693  12.279  68.864  1.00  0.00     1.175 C  
HETATM   15  C   UNL     1     -11.459  11.294  68.879  1.00  0.00    -0.363 C  
HETATM   16  N   UNL     1     -11.441  12.008  71.437  1.00  0.00     1.965 NA 
HETATM   17  C   UNL     1     -11.280  10.906  70.438  1.00  0.00    -0.105 C  
ENDROOT
BRANCH  15  18
HETATM   18  C   UNL     1     -10.391  11.975  67.825  1.00  0.00    -0.197 C  
HETATM   19  N   UNL     1      -9.012  11.728  67.728  1.00  0.00    -0.167 N  
HETATM   20  O   UNL     1     -10.886  12.701  66.964  1.00  0.00    -0.245 OA 
BRANCH  19  21
HETATM   21  C   UNL     1      -8.282  12.307  66.540  1.00  0.00     0.116 C  
BRANCH  21  22
HETATM   22  C   UNL     1      -8.522  13.769  66.087  1.00  0.00     0.948 C  
HETATM   23  C   UNL     1      -7.588  14.960  66.450  1.00  0.00     1.382 C  
BRANCH  23  24
HETATM   24  N   UNL     1      -6.117  14.952  66.289  1.00  0.00     3.134 NA 
HETATM   25  C   UNL     1      -5.657  13.547  66.145  1.00  0.00     4.943 C  
HETATM   26  C   UNL     1      -5.382  15.511  67.439  1.00  0.00     0.130 C  
ENDBRANCH  23  24
ENDBRANCH  21  22
ENDBRANCH  19  21
BRANCH  19  27
HETATM   27  C   UNL     1      -8.418  10.655  68.380  1.00  0.00    -0.132 C  
HETATM   28  O   UNL     1      -9.024   9.655  68.752  1.00  0.00    -0.129 OA 
BRANCH  27  29
HETATM   29  N   UNL     1      -7.050  10.756  68.533  1.00  0.00    -0.067 N  
HETATM   30  H   UNL     1      -6.486  11.193  67.804  1.00  0.00     0.000 HD 
BRANCH  29  31
HETATM   31  C   UNL     1      -6.420  10.244  69.725  1.00  0.00    -0.080 C  
HETATM   32  C   UNL     1      -6.783  11.072  70.936  1.00  0.00     1.114 C  
ENDBRANCH  29  31
ENDBRANCH  27  29
ENDBRANCH  19  27
ENDBRANCH  15  18
BRANCH  16  33
HETATM   33  C   UNL     1     -12.738  12.143  72.136  1.00  0.00     0.154 C  
BRANCH  33  34
HETATM   34  C   UNL     1     -13.190  10.990  72.992  1.00  0.00     2.944 C  
HETATM   35  C   UNL     1     -12.423  10.066  73.584  1.00  0.00     7.381 C  
ENDBRANCH  33  34
ENDBRANCH  16  33
TORSDOF 9
ENDMDL
MODEL      212
REMARK 921   NORMALIZED FREE ENERGY PREDICTED BY IDOCK:   30.19 KCAL/MOL
REMARK 922        TOTAL FREE ENERGY PREDICTED BY IDOCK:   45.36 KCAL/MOL
REMARK 923 INTER-LIGAND FREE ENERGY PREDICTED BY IDOCK:   21.97 KCAL/MOL
REMARK 924 INTRA-LIGAND FREE ENERGY PREDICTED BY IDOCK:   23.39 KCAL/MOL
REMARK 927      BINDING AFFINITY PREDICTED BY RF-SCORE:    0.00 PKD
ROOT
HETATM    1  C   UNL     1     -11.240  15.772  67.957  1.00  0.00    -0.338 C  
HETATM    2  C   UNL     1     -12.032  15.915  69.257  1.00  0.00    -0.254 C  
HETATM    3  C   UNL     1     -11.183  15.298  70.304  1.00  0.00    -0.320 A  
HETATM    4  C   UNL     1     -11.416  14.483  71.377  1.00  0.00     0.088 A  
HETATM    5  N   UNL     1     -10.233  14.405  72.079  1.00  0.00     3.019 NA 
HETATM    6  H   UNL     1     -10.102  13.882  72.944  1.00  0.00     0.000 HD 
HETATM    7  C   UNL     1      -9.254  15.135  71.444  1.00  0.00     3.416 A  
HETATM    8  C   UNL     1      -7.986  15.568  71.809  1.00  0.00     5.552 A  
HETATM    9  C   UNL     1      -7.287  16.330  70.854  1.00  0.00     3.105 A  
HETATM   10  C   UNL     1      -7.770  16.525  69.542  1.00  0.00     0.119 A  
HETATM   11  C   UNL     1      -9.031  16.048  69.175  1.00  0.00    -0.252 A  
HETATM   12  C   UNL     1      -9.738  16.291  67.846  1.00  0.00    -0.233 C  
HETATM   13  C   UNL     1      -9.780  15.470  70.213  1.00  0.00     0.265 A  
HETATM   14  C   UNL     1      -9.170  15.675  66.508  1.00  0.00    -0.325 C  
HETATM   15  C   UNL     1     -10.043  14.445  66.039  1.00  0.00    -0.338 C  
HETATM   16  N   UNL     1     -12.004  16.087  66.752  1.00  0.00     0.918 NA 
HETATM   17  C   UNL     1     -11.506  15.077  65.768  1.00  0.00    -0.236 C  
ENDROOT
BRANCH  15  18
HETATM   18  C   UNL     1      -9.584  13.223  67.044  1.00  0.00    -0.243 C  
HETATM   19  N   UNL     1      -8.494  13.210  67.929  1.00  0.00    -0.168 N  
HETATM   20  O   UNL     1     -10.349  12.260  67.094  1.00  0.00    -0.216 OA 
BRANCH  19  21
HETATM   21  C   UNL     1      -8.404  12.063  68.908  1.00  0.00     0.152 C  
BRANCH  21  22
HETATM   22  C   UNL     1      -7.037  11.440  69.288  1.00  0.00    -0.100 C  
HETATM   23  C   UNL     1      -6.748   9.911  69.299  1.00  0.00    -0.055 C  
BRANCH  23  24
HETATM   24  N   UNL     1      -7.075   8.987  68.192  1.00  0.00    -0.077 NA 
HETATM   25  C   UNL     1      -8.068   9.636  67.299  1.00  0.00    -0.110 C  
HETATM   26  C   UNL     1      -7.682   7.715  68.627  1.00  0.00    -0.119 C  
ENDBRANCH  23  24
ENDBRANCH  21  22
ENDBRANCH  19  21
BRANCH  19  27
HETATM   27  C   UNL     1      -7.797  14.370  68.242  1.00  0.00    -0.138 C  
HETATM   28  O   UNL     1      -7.617  14.778  69.385  1.00  0.00    -0.163 OA 
BRANCH  27  29
HETATM   29  N   UNL     1      -7.249  15.025  67.158  1.00  0.00    -0.213 N  
HETATM   30  H   UNL     1      -7.829  15.637  66.583  1.00  0.00     0.000 HD 
BRANCH  29  31
HETATM   31  C   UNL     1      -5.854  14.843  66.838  1.00  0.00     1.446 C  
HETATM   32  C   UNL     1      -5.439  15.718  65.678  1.00  0.00     5.667 C  
ENDBRANCH  29  31
ENDBRANCH  27  29
ENDBRANCH  19  27
ENDBRANCH  15  18
BRANCH  16  33
HETATM   33  C   UNL     1     -11.873  17.523  66.417  1.00  0.00     2.773 C  
BRANCH  33  34
HETATM   34  C   UNL     1     -10.490  18.049  66.138  1.00  0.00    -0.336 C  
HETATM   35  C   UNL     1      -9.651  18.632  67.004  1.00  0.00    -0.319 C  
ENDBRANCH  33  34
ENDBRANCH  16  33
TORSDOF 9
ENDMDL
MODEL      213
REMARK 921   NORMALIZED FREE ENERGY PREDICTED BY IDOCK:   30.34 KCAL/MOL
REMARK 922        TOTAL FREE ENERGY PREDICTED BY IDOCK:   45.60 KCAL/MOL
REMARK 923 INTER-LIGAND FREE ENERGY PREDICTED BY IDOCK:   42.31 KCAL/MOL
REMARK 924 INTRA-LIGAND FREE ENERGY PREDICTED BY IDOCK:    3.28 KCAL/MOL
REMARK 927      BINDING AFFINITY PREDICTED BY RF-SCORE:    0.00 PKD
ROOT
HETATM    1  C   UNL     1      -9.107  15.143  67.193  1.00  0.00    -0.211 C  
HETATM    2  C   UNL     1     -10.062  15.798  66.195  1.00  0.00    -0.337 C  
HETATM    3  C   UNL     1     -10.737  16.881  66.948  1.00  0.00    -0.130 A  
HETATM    4  C   UNL     1     -12.017  17.353  67.018  1.00  0.00     2.608 A  
HETATM    5  N   UNL     1     -11.975  18.507  67.768  1.00  0.00     1.804 NA 
HETATM    6  H   UNL     1     -12.779  19.098  67.977  1.00  0.00     0.000 HD 
HETATM    7  C   UNL     1     -10.688  18.749  68.196  1.00  0.00    -0.120 A  
HETATM    8  C   UNL     1     -10.055  19.841  68.774  1.00  0.00    -0.523 A  
HETATM    9  C   UNL     1      -8.684  19.691  69.054  1.00  0.00    -0.155 A  
HETATM   10  C   UNL     1      -8.010  18.460  68.900  1.00  0.00    -0.213 A  
HETATM   11  C   UNL     1      -8.671  17.357  68.355  1.00  0.00    -0.271 A  
HETATM   12  C   UNL     1      -8.047  16.009  68.009  1.00  0.00    -0.148 C  
HETATM   13  C   UNL     1      -9.978  17.603  67.903  1.00  0.00    -0.323 A  
HETATM   14  C   UNL     1      -7.504  15.059  69.147  1.00  0.00    -0.169 C  
HETATM   15  C   UNL     1      -8.486  13.845  69.385  1.00  0.00     0.629 C  
HETATM   16  N   UNL     1      -8.524  13.886  66.730  1.00  0.00    -0.067 NA 
HETATM   17  C   UNL     1      -8.490  13.056  67.974  1.00  0.00    -0.181 C  
ENDROOT
BRANCH  15  18
HETATM   18  C   UNL     1      -9.734  14.501  70.237  1.00  0.00     1.113 C  
HETATM   19  N   UNL     1      -9.771  14.788  71.612  1.00  0.00     2.925 N  
HETATM   20  O   UNL     1     -10.696  14.875  69.568  1.00  0.00    -0.245 OA 
BRANCH  19  21
HETATM   21  C   UNL     1     -10.942  15.591  72.125  1.00  0.00     0.245 C  
BRANCH  21  22
HETATM   22  C   UNL     1     -12.058  14.928  72.972  1.00  0.00    -0.369 C  
HETATM   23  C   UNL     1     -12.949  13.753  72.476  1.00  0.00    -0.336 C  
BRANCH  23  24
HETATM   24  N   UNL     1     -12.435  12.519  71.842  1.00  0.00     0.121 NA 
HETATM   25  C   UNL     1     -12.432  12.699  70.369  1.00  0.00    -0.143 C  
HETATM   26  C   UNL     1     -13.250  11.320  72.110  1.00  0.00    -0.181 C  
ENDBRANCH  23  24
ENDBRANCH  21  22
ENDBRANCH  19  21
BRANCH  19  27
HETATM   27  C   UNL     1      -8.620  14.771  72.389  1.00  0.00     7.322 C  
HETATM   28  O   UNL     1      -7.518  15.137  71.994  1.00  0.00     2.986 OA 
BRANCH  27  29
HETATM   29  N   UNL     1      -8.809  14.364  73.694  1.00  0.00     7.895 N  
HETATM   30  H   UNL     1      -9.753  14.207  74.048  1.00  0.00     0.000 HD 
BRANCH  29  31
HETATM   31  C   UNL     1      -7.671  14.163  74.557  1.00  0.00     6.114 C  
HETATM   32  C   UNL     1      -6.575  13.399  73.849  1.00  0.00     2.498 C  
ENDBRANCH  29  31
ENDBRANCH  27  29
ENDBRANCH  19  27
ENDBRANCH  15  18
BRANCH  16  33
HETATM   33  C   UNL     1      -7.253  14.138  66.014  1.00  0.00     4.672 C  
BRANCH  33  34
HETATM   34  C   UNL     1      -6.228  15.002  66.699  1.00  0.00     2.074 C  
HETATM   35  C   UNL     1      -5.135  15.553  66.157  1.00  0.00     3.430 C  
ENDBRANCH  33  34
ENDBRANCH  16  33
TORSDOF 9
ENDMDL
MODEL      214
REMARK 921   NORMALIZED FREE ENERGY PREDICTED BY IDOCK:   32.80 KCAL/MOL
REMARK 922        TOTAL FREE ENERGY PREDICTED BY IDOCK:   49.35 KCAL/MOL
REMARK 923 INTER-LIGAND FREE ENERGY PREDICTED BY IDOCK:   46.95 KCAL/MOL
REMARK 924 INTRA-LIGAND FREE ENERGY PREDICTED BY IDOCK:    2.41 KCAL/MOL
REMARK 927      BINDING AFFINITY PREDICTED BY RF-SCORE:    0.00 PKD
ROOT
HETATM    1  C   UNL     1      -9.822  11.003  67.849  1.00  0.00    -0.171 C  
HETATM    2  C   UNL     1      -8.867  11.569  68.900  1.00  0.00     0.030 C  
HETATM    3  C   UNL     1      -8.988  13.042  68.789  1.00  0.00     0.172 A  
HETATM    4  C   UNL     1      -8.107  14.086  68.817  1.00  0.00    -0.065 A  
HETATM    5  N   UNL     1      -8.859  15.240  68.847  1.00  0.00    -0.195 NA 
HETATM    6  H   UNL     1      -8.478  16.184  68.892  1.00  0.00     0.000 HD 
HETATM    7  C   UNL     1     -10.201  14.933  68.806  1.00  0.00    -0.243 A  
HETATM    8  C   UNL     1     -11.362  15.663  69.024  1.00  0.00    -0.332 A  
HETATM    9  C   UNL     1     -12.575  14.958  68.900  1.00  0.00     0.260 A  
HETATM   10  C   UNL     1     -12.631  13.626  68.436  1.00  0.00     0.609 A  
HETATM   11  C   UNL     1     -11.455  12.917  68.181  1.00  0.00    -0.354 A  
HETATM   12  C   UNL     1     -11.353  11.442  67.804  1.00  0.00    -0.354 C  
HETATM   13  C   UNL     1     -10.266  13.587  68.510  1.00  0.00    -0.229 A  
HETATM   14  C   UNL     1     -11.906  10.927  66.418  1.00  0.00     1.336 C  
HETATM   15  C   UNL     1     -10.723  10.627  65.415  1.00  0.00    -0.106 C  
HETATM   16  N   UNL     1      -9.672   9.568  67.612  1.00  0.00    -0.149 NA 
HETATM   17  C   UNL     1      -9.881   9.451  66.136  1.00  0.00    -0.285 C  
ENDROOT
BRANCH  15  18
HETATM   18  C   UNL     1     -10.242  12.119  64.908  1.00  0.00    -0.280 C  
HETATM   19  N   UNL     1     -10.987  13.048  64.162  1.00  0.00    -0.393 N  
HETATM   20  O   UNL     1      -9.145  12.493  65.321  1.00  0.00     0.311 OA 
BRANCH  19  21
HETATM   21  C   UNL     1     -10.413  14.436  64.005  1.00  0.00     1.246 C  
BRANCH  21  22
HETATM   22  C   UNL     1     -10.627  15.519  65.092  1.00  0.00    -0.455 C  
HETATM   23  C   UNL     1     -10.831  17.032  64.789  1.00  0.00     0.257 C  
BRANCH  23  24
HETATM   24  N   UNL     1     -11.789  17.567  63.797  1.00  0.00     2.937 NA 
HETATM   25  C   UNL     1     -12.750  18.462  64.490  1.00  0.00    12.374 C  
HETATM   26  C   UNL     1     -12.598  16.535  63.123  1.00  0.00     6.587 C  
ENDBRANCH  23  24
ENDBRANCH  21  22
ENDBRANCH  19  21
BRANCH  19  27
HETATM   27  C   UNL     1     -12.355  12.899  63.973  1.00  0.00    -0.380 C  
HETATM   28  O   UNL     1     -13.131  13.832  63.801  1.00  0.00     0.017 OA 
BRANCH  27  29
HETATM   29  N   UNL     1     -12.793  11.591  63.928  1.00  0.00    -0.178 N  
HETATM   30  H   UNL     1     -13.263  11.181  64.735  1.00  0.00     0.000 HD 
BRANCH  29  31
HETATM   31  C   UNL     1     -12.585  10.803  62.737  1.00  0.00     3.306 C  
HETATM   32  C   UNL     1     -11.746   9.580  63.029  1.00  0.00     9.992 C  
ENDBRANCH  29  31
ENDBRANCH  27  29
ENDBRANCH  19  27
ENDBRANCH  15  18
BRANCH  16  33
HETATM   33  C   UNL     1     -10.559   8.800  68.514  1.00  0.00    -0.129 C  
BRANCH  33  34
HETATM   34  C   UNL     1     -11.498   7.806  67.885  1.00  0.00     1.050 C  
HETATM   35  C   UNL     1     -12.746   8.025  67.453  1.00  0.00    10.759 C  
ENDBRANCH  33  34
ENDBRANCH  16  33
TORSDOF 9
ENDMDL
MODEL      215
REMARK 921   NORMALIZED FREE ENERGY PREDICTED BY IDOCK:   45.93 KCAL/MOL
REMARK 922        TOTAL FREE ENERGY PREDICTED BY IDOCK:   69.38 KCAL/MOL
REMARK 923 INTER-LIGAND FREE ENERGY PREDICTED BY IDOCK:   43.77 KCAL/MOL
REMARK 924 INTRA-LIGAND FREE ENERGY PREDICTED BY IDOCK:   25.61 KCAL/MOL
REMARK 927      BINDING AFFINITY PREDICTED BY RF-SCORE:    0.00 PKD
ROOT
HETATM    1  C   UNL     1      -8.021  16.431  69.604  1.00  0.00     0.340 C  
HETATM    2  C   UNL     1      -8.435  17.466  70.649  1.00  0.00     4.893 C  
HETATM    3  C   UNL     1      -9.900  17.303  70.805  1.00  0.00     3.131 A  
HETATM    4  C   UNL     1     -10.956  18.160  70.936  1.00  0.00     2.805 A  
HETATM    5  N   UNL     1     -12.059  17.389  71.230  1.00  0.00     2.462 NA 
HETATM    6  H   UNL     1     -12.995  17.752  71.404  1.00  0.00     0.000 HD 
HETATM    7  C   UNL     1     -11.714  16.057  71.255  1.00  0.00    -0.461 A  
HETATM    8  C   UNL     1     -12.352  14.905  71.695  1.00  0.00    -0.404 A  
HETATM    9  C   UNL     1     -11.635  13.702  71.558  1.00  0.00     1.223 A  
HETATM   10  C   UNL     1     -10.399  13.632  70.878  1.00  0.00     3.815 A  
HETATM   11  C   UNL     1      -9.788  14.794  70.403  1.00  0.00     0.756 A  
HETATM   12  C   UNL     1      -8.404  14.893  69.770  1.00  0.00     0.165 C  
HETATM   13  C   UNL     1     -10.437  15.994  70.737  1.00  0.00     0.373 A  
HETATM   14  C   UNL     1      -8.111  14.225  68.369  1.00  0.00    -0.142 C  
HETATM   15  C   UNL     1      -8.030  15.317  67.230  1.00  0.00    -0.231 C  
HETATM   16  N   UNL     1      -6.654  16.589  69.111  1.00  0.00    -0.187 NA 
HETATM   17  C   UNL     1      -6.781  16.247  67.661  1.00  0.00    -0.145 C  
ENDROOT
BRANCH  15  18
HETATM   18  C   UNL     1      -9.604  15.716  66.947  1.00  0.00    -0.230 C  
HETATM   19  N   UNL     1     -10.129  16.994  66.700  1.00  0.00    -0.296 N  
HETATM   20  O   UNL     1     -10.381  14.767  66.840  1.00  0.00    -0.262 OA 
BRANCH  19  21
HETATM   21  C   UNL     1     -11.568  17.082  66.251  1.00  0.00     1.529 C  
BRANCH  21  22
HETATM   22  C   UNL     1     -12.462  18.280  66.657  1.00  0.00     6.063 C  
HETATM   23  C   UNL     1     -12.603  18.811  68.113  1.00  0.00     6.373 C  
BRANCH  23  24
HETATM   24  N   UNL     1     -11.466  19.111  69.010  1.00  0.00     2.674 NA 
HETATM   25  C   UNL     1     -10.644  17.886  69.172  1.00  0.00     0.155 C  
HETATM   26  C   UNL     1     -11.863  19.524  70.369  1.00  0.00     9.253 C  
ENDBRANCH  23  24
ENDBRANCH  21  22
ENDBRANCH  19  21
BRANCH  19  27
HETATM   27  C   UNL     1      -9.305  18.075  66.414  1.00  0.00    -0.255 C  
HETATM   28  O   UNL     1      -9.697  19.125  65.915  1.00  0.00    -0.453 OA 
BRANCH  27  29
HETATM   29  N   UNL     1      -7.988  17.915  66.793  1.00  0.00    -0.223 N  
HETATM   30  H   UNL     1      -7.485  17.063  66.545  1.00  0.00     0.000 HD 
BRANCH  29  31
HETATM   31  C   UNL     1      -7.324  18.954  67.542  1.00  0.00    -0.226 C  
HETATM   32  C   UNL     1      -8.304  19.727  68.395  1.00  0.00    -0.291 C  
ENDBRANCH  29  31
ENDBRANCH  27  29
ENDBRANCH  19  27
ENDBRANCH  15  18
BRANCH  16  33
HETATM   33  C   UNL     1      -5.711  15.806  69.941  1.00  0.00    -0.145 C  
BRANCH  33  34
HETATM   34  C   UNL     1      -6.101  15.535  71.369  1.00  0.00     0.781 C  
HETATM   35  C   UNL     1      -5.421  15.865  72.475  1.00  0.00     0.930 C  
ENDBRANCH  33  34
ENDBRANCH  16  33
TORSDOF 9
ENDMDL
MODEL      216
REMARK 921   NORMALIZED FREE ENERGY PREDICTED BY IDOCK:   58.45 KCAL/MOL
REMARK 922        TOTAL FREE ENERGY PREDICTED BY IDOCK:   88.49 KCAL/MOL
REMARK 923 INTER-LIGAND FREE ENERGY PREDICTED BY IDOCK:   48.87 KCAL/MOL
REMARK 924 INTRA-LIGAND FREE ENERGY PREDICTED BY IDOCK:   39.62 KCAL/MOL
REMARK 927      BINDING AFFINITY PREDICTED BY RF-SCORE:    0.00 PKD
ROOT
HETATM    1  C   UNL     1     -10.253  10.763  67.803  1.00  0.00    -0.182 C  
HETATM    2  C   UNL     1      -9.348  10.515  69.009  1.00  0.00    -0.205 C  
HETATM    3  C   UNL     1      -8.543  11.750  69.158  1.00  0.00     0.371 A  
HETATM    4  C   UNL     1      -7.234  12.020  69.443  1.00  0.00     0.154 A  
HETATM    5  N   UNL     1      -7.139  13.382  69.624  1.00  0.00    -0.320 NA 
HETATM    6  H   UNL     1      -6.284  13.880  69.869  1.00  0.00     0.000 HD 
HETATM    7  C   UNL     1      -8.367  13.974  69.427  1.00  0.00     0.517 A  
HETATM    8  C   UNL     1      -8.878  15.239  69.685  1.00  0.00    -0.110 A  
HETATM    9  C   UNL     1     -10.227  15.449  69.344  1.00  0.00    -0.262 A  
HETATM   10  C   UNL     1     -10.988  14.488  68.643  1.00  0.00    -0.263 A  
HETATM   11  C   UNL     1     -10.447  13.233  68.353  1.00  0.00    -0.261 A  
HETATM   12  C   UNL     1     -11.183  12.055  67.723  1.00  0.00    -0.331 C  
HETATM   13  C   UNL     1      -9.171  12.992  68.887  1.00  0.00     0.297 A  
HETATM   14  C   UNL     1     -11.687  12.128  66.228  1.00  0.00    -0.389 C  
HETATM   15  C   UNL     1     -10.767  11.262  65.281  1.00  0.00    -0.302 C  
HETATM   16  N   UNL     1     -10.953   9.574  67.322  1.00  0.00    -0.116 NA 
HETATM   17  C   UNL     1     -10.934   9.754  65.837  1.00  0.00     0.904 C  
ENDROOT
BRANCH  15  18
HETATM   18  C   UNL     1      -9.413  12.180  65.090  1.00  0.00     0.067 C  
HETATM   19  N   UNL     1      -9.273  13.556  65.335  1.00  0.00     0.494 N  
HETATM   20  O   UNL     1      -8.388  11.562  64.801  1.00  0.00     0.483 OA 
BRANCH  19  21
HETATM   21  C   UNL     1      -7.877  14.132  65.298  1.00  0.00     7.103 C  
BRANCH  21  22
HETATM   22  C   UNL     1      -6.920  13.988  66.507  1.00  0.00     2.454 C  
HETATM   23  C   UNL     1      -6.027  15.138  67.056  1.00  0.00     0.841 C  
BRANCH  23  24
HETATM   24  N   UNL     1      -6.509  16.503  67.360  1.00  0.00    -0.150 NA 
HETATM   25  C   UNL     1      -6.284  16.785  68.800  1.00  0.00    -0.151 C  
HETATM   26  C   UNL     1      -7.951  16.699  67.122  1.00  0.00    -0.182 C  
ENDBRANCH  23  24
ENDBRANCH  21  22
ENDBRANCH  19  21
BRANCH  19  27
HETATM   27  C   UNL     1     -10.240  14.273  66.026  1.00  0.00    -0.315 C  
HETATM   28  O   UNL     1     -10.299  15.498  66.054  1.00  0.00    -0.289 OA 
BRANCH  27  29
HETATM   29  N   UNL     1     -11.200  13.500  66.647  1.00  0.00    -0.306 N  
HETATM   30  H   UNL     1     -11.376  13.610  67.646  1.00  0.00     0.000 HD 
BRANCH  29  31
HETATM   31  C   UNL     1     -11.953  12.536  65.882  1.00  0.00    -0.409 C  
HETATM   32  C   UNL     1     -12.379  13.107  64.549  1.00  0.00    -0.447 C  
ENDBRANCH  29  31
ENDBRANCH  27  29
ENDBRANCH  19  27
ENDBRANCH  15  18
BRANCH  16  33
HETATM   33  C   UNL     1     -12.261   9.433  67.999  1.00  0.00     4.235 C  
BRANCH  33  34
HETATM   34  C   UNL     1     -12.965   8.108  67.884  1.00  0.00    12.396 C  
HETATM   35  C   UNL     1     -13.908   7.762  66.998  1.00  0.00    23.538 C  
ENDBRANCH  33  34
ENDBRANCH  16  33
TORSDOF 9
ENDMDL
MODEL      217
REMARK 921   NORMALIZED FREE ENERGY PREDICTED BY IDOCK:   63.04 KCAL/MOL
REMARK 922        TOTAL FREE ENERGY PREDICTED BY IDOCK:   95.50 KCAL/MOL
REMARK 923 INTER-LIGAND FREE ENERGY PREDICTED BY IDOCK:   88.23 KCAL/MOL
REMARK 924 INTRA-LIGAND FREE ENERGY PREDICTED BY IDOCK:    7.27 KCAL/MOL
REMARK 927      BINDING AFFINITY PREDICTED BY RF-SCORE:    0.00 PKD
ROOT
HETATM    1  C   UNL     1     -11.269  13.565  71.026  1.00  0.00     1.691 C  
HETATM    2  C   UNL     1     -11.424  14.356  72.325  1.00  0.00     0.790 C  
HETATM    3  C   UNL     1     -11.476  15.779  71.915  1.00  0.00    -0.477 A  
HETATM    4  C   UNL     1     -10.942  16.941  72.397  1.00  0.00     2.016 A  
HETATM    5  N   UNL     1     -11.511  17.969  71.678  1.00  0.00     2.403 NA 
HETATM    6  H   UNL     1     -11.322  18.959  71.826  1.00  0.00     0.000 HD 
HETATM    7  C   UNL     1     -12.373  17.464  70.730  1.00  0.00     6.070 A  
HETATM    8  C   UNL     1     -13.341  18.030  69.911  1.00  0.00    17.936 A  
HETATM    9  C   UNL     1     -14.040  17.146  69.067  1.00  0.00     9.904 A  
HETATM   10  C   UNL     1     -13.687  15.784  68.941  1.00  0.00     4.485 A  
HETATM   11  C   UNL     1     -12.683  15.237  69.742  1.00  0.00    -0.055 A  
HETATM   12  C   UNL     1     -12.282  13.767  69.812  1.00  0.00    -0.368 C  
HETATM   13  C   UNL     1     -12.149  16.103  70.711  1.00  0.00    -0.147 A  
HETATM   14  C   UNL     1     -11.611  13.057  68.572  1.00  0.00    -0.363 C  
HETATM   15  C   UNL     1     -10.064  12.849  68.810  1.00  0.00    -0.058 C  
HETATM   16  N   UNL     1     -10.942  12.154  71.217  1.00  0.00     3.667 NA 
HETATM   17  C   UNL     1      -9.988  11.878  70.100  1.00  0.00     2.559 C  
ENDROOT
BRANCH  15  18
HETATM   18  C   UNL     1      -9.419  14.346  68.568  1.00  0.00    -0.212 C  
HETATM   19  N   UNL     1      -8.609  15.080  69.451  1.00  0.00    -0.166 N  
HETATM   20  O   UNL     1      -9.585  14.821  67.445  1.00  0.00    -0.206 OA 
BRANCH  19  21
HETATM   21  C   UNL     1      -7.957  16.334  68.920  1.00  0.00    -0.230 C  
BRANCH  21  22
HETATM   22  C   UNL     1      -8.782  17.410  68.171  1.00  0.00    -0.256 C  
HETATM   23  C   UNL     1      -9.577  18.548  68.876  1.00  0.00    -0.275 C  
BRANCH  23  24
HETATM   24  N   UNL     1      -9.025  19.431  69.926  1.00  0.00     0.612 NA 
HETATM   25  C   UNL     1      -7.807  18.800  70.494  1.00  0.00     2.661 C  
HETATM   26  C   UNL     1      -9.938  19.660  71.062  1.00  0.00     2.029 C  
ENDBRANCH  23  24
ENDBRANCH  21  22
ENDBRANCH  19  21
BRANCH  19  27
HETATM   27  C   UNL     1      -8.041  14.493  70.574  1.00  0.00     1.765 C  
HETATM   28  O   UNL     1      -7.930  13.282  70.736  1.00  0.00     3.743 OA 
BRANCH  27  29
HETATM   29  N   UNL     1      -7.535  15.384  71.499  1.00  0.00     2.511 N  
HETATM   30  H   UNL     1      -6.971  16.176  71.190  1.00  0.00     0.000 HD 
BRANCH  29  31
HETATM   31  C   UNL     1      -7.805  15.193  72.903  1.00  0.00     7.971 C  
HETATM   32  C   UNL     1      -9.242  15.523  73.235  1.00  0.00    10.545 C  
ENDBRANCH  29  31
ENDBRANCH  27  29
ENDBRANCH  19  27
ENDBRANCH  15  18
BRANCH  16  33
HETATM   33  C   UNL     1     -12.178  11.344  71.306  1.00  0.00    -0.134 C  
BRANCH  33  34
HETATM   34  C   UNL     1     -12.931  11.365  72.609  1.00  0.00     1.466 C  
HETATM   35  C   UNL     1     -12.938  12.338  73.530  1.00  0.00     6.351 C  
ENDBRANCH  33  34
ENDBRANCH  16  33
TORSDOF 9
ENDMDL
