MODEL        1
REMARK 921   NORMALIZED FREE ENERGY PREDICTED BY IDOCK:   -7.52 KCAL/MOL
REMARK 922        TOTAL FREE ENERGY PREDICTED BY IDOCK:  -12.51 KCAL/MOL
REMARK 923 INTER-LIGAND FREE ENERGY PREDICTED BY IDOCK:  -11.04 KCAL/MOL
REMARK 924 INTRA-LIGAND FREE ENERGY PREDICTED BY IDOCK:   -1.47 KCAL/MOL
REMARK 927      BINDING AFFINITY PREDICTED BY RF-SCORE:    0.00 PKD
ROOT
HETATM    1  C   UNL     1      -9.828   3.348  71.707  1.00  0.00    -0.159 C  
HETATM    2  O   UNL     1      -9.380   4.507  72.402  1.00  0.00    -0.123 OA 
ENDROOT
BRANCH   2   3
HETATM    3  C   UNL     1     -10.139   5.641  72.284  1.00  0.00    -0.187 A  
HETATM    4  C   UNL     1     -11.537   5.619  72.213  1.00  0.00    -0.244 A  
HETATM    5  C   UNL     1     -12.296   6.765  72.042  1.00  0.00    -0.271 A  
HETATM    6  C   UNL     1     -11.648   8.010  71.990  1.00  0.00    -0.369 A  
HETATM    7  C   UNL     1     -10.241   8.052  72.115  1.00  0.00    -0.308 A  
HETATM    8  C   UNL     1     -12.464   9.144  71.786  1.00  0.00    -0.372 A  
HETATM    9  C   UNL     1     -13.844   9.004  71.656  1.00  0.00    -0.422 A  
HETATM   10  C   UNL     1      -9.484   6.878  72.212  1.00  0.00    -0.140 A  
HETATM   11  N   UNL     1     -13.624   6.625  71.912  1.00  0.00    -0.072 NA 
HETATM   12  C   UNL     1     -14.367   7.730  71.714  1.00  0.00    -0.470 A  
BRANCH   8  13
HETATM   13  O   UNL     1     -11.841  10.374  71.804  1.00  0.00    -0.147 OA 
BRANCH  13  14
HETATM   14  C   UNL     1     -11.813  11.160  70.678  1.00  0.00    -0.302 A  
HETATM   15  C   UNL     1     -11.485  10.498  69.498  1.00  0.00    -0.339 A  
HETATM   16  C   UNL     1     -11.502  11.178  68.278  1.00  0.00    -0.373 A  
HETATM   17  C   UNL     1     -11.848  12.529  68.223  1.00  0.00    -0.309 A  
HETATM   18  C   UNL     1     -12.169  12.505  70.632  1.00  0.00    -0.365 A  
HETATM   19  C   UNL     1     -12.160  13.195  69.413  1.00  0.00    -0.285 A  
BRANCH  17  20
HETATM   20  N   UNL     1     -11.911  13.262  67.017  1.00  0.00    -0.385 N  
HETATM   21  H   UNL     1     -12.838  13.489  66.659  1.00  0.00     0.000 HD 
HETATM   22  C   UNL     1     -10.831  13.697  66.279  1.00  0.00    -0.282 C  
HETATM   23  O   UNL     1      -9.647  13.486  66.485  1.00  0.00    -0.269 OA 
BRANCH  22  24
HETATM   24  C   UNL     1     -11.186  14.536  65.093  1.00  0.00    -0.367 C  
HETATM   25  C   UNL     1     -11.195  13.827  63.741  1.00  0.00     0.195 C  
HETATM   26  C   UNL     1     -12.488  14.277  64.340  1.00  0.00    -0.328 C  
BRANCH  24  27
HETATM   27  C   UNL     1     -10.706  15.946  65.197  1.00  0.00    -0.429 C  
HETATM   28  O   UNL     1     -10.975  16.727  64.294  1.00  0.00    -0.933 OA 
HETATM   29  N   UNL     1      -9.985  16.225  66.342  1.00  0.00    -0.282 N  
HETATM   30  H   UNL     1      -9.772  15.458  66.980  1.00  0.00     0.000 HD 
BRANCH  29  31
HETATM   31  C   UNL     1      -9.531  17.514  66.670  1.00  0.00    -0.275 A  
HETATM   32  C   UNL     1     -10.421  18.560  66.942  1.00  0.00    -0.434 A  
HETATM   33  C   UNL     1      -9.941  19.845  67.195  1.00  0.00    -0.557 A  
HETATM   34  C   UNL     1      -8.574  20.081  67.149  1.00  0.00    -0.335 A  
HETATM   35  C   UNL     1      -7.677  19.044  66.914  1.00  0.00    -0.253 A  
HETATM   36  F   UNL     1      -8.113  21.325  67.329  1.00  0.00    -0.335 F  
HETATM   37  C   UNL     1      -8.154  17.747  66.710  1.00  0.00    -0.265 A  
ENDBRANCH  29  31
ENDBRANCH  24  27
ENDBRANCH  22  24
ENDBRANCH  17  20
ENDBRANCH  13  14
ENDBRANCH   8  13
BRANCH  10  38
HETATM   38  O   UNL     1      -8.131   7.092  72.276  1.00  0.00    -0.097 OA 
HETATM   39  C   UNL     1      -7.686   7.937  73.332  1.00  0.00    -0.149 C  
ENDBRANCH  10  38
ENDBRANCH   2   3
TORSDOF 8
ENDMDL
MODEL        2
REMARK 921   NORMALIZED FREE ENERGY PREDICTED BY IDOCK:   -7.25 KCAL/MOL
REMARK 922        TOTAL FREE ENERGY PREDICTED BY IDOCK:  -12.11 KCAL/MOL
REMARK 923 INTER-LIGAND FREE ENERGY PREDICTED BY IDOCK:  -10.51 KCAL/MOL
REMARK 924 INTRA-LIGAND FREE ENERGY PREDICTED BY IDOCK:   -1.60 KCAL/MOL
REMARK 927      BINDING AFFINITY PREDICTED BY RF-SCORE:    0.00 PKD
ROOT
HETATM    1  C   UNL     1      -7.107   4.403  72.932  1.00  0.00    -0.068 C  
HETATM    2  O   UNL     1      -7.308   5.643  73.602  1.00  0.00    -0.086 OA 
ENDROOT
BRANCH   2   3
HETATM    3  C   UNL     1      -8.388   6.394  73.218  1.00  0.00    -0.118 A  
HETATM    4  C   UNL     1      -9.659   5.848  73.004  1.00  0.00    -0.158 A  
HETATM    5  C   UNL     1     -10.734   6.604  72.566  1.00  0.00    -0.229 A  
HETATM    6  C   UNL     1     -10.564   7.986  72.379  1.00  0.00    -0.373 A  
HETATM    7  C   UNL     1      -9.301   8.559  72.644  1.00  0.00    -0.284 A  
HETATM    8  C   UNL     1     -11.683   8.705  71.905  1.00  0.00    -0.352 A  
HETATM    9  C   UNL     1     -12.886   8.051  71.654  1.00  0.00    -0.350 A  
HETATM   10  C   UNL     1      -8.206   7.769  73.014  1.00  0.00    -0.133 A  
HETATM   11  N   UNL     1     -11.890   5.968  72.320  1.00  0.00    -0.304 NA 
HETATM   12  C   UNL     1     -12.932   6.689  71.864  1.00  0.00    -0.107 A  
BRANCH   8  13
HETATM   13  O   UNL     1     -11.542  10.072  71.786  1.00  0.00    -0.245 OA 
BRANCH  13  14
HETATM   14  C   UNL     1     -11.686  10.686  70.566  1.00  0.00    -0.356 A  
HETATM   15  C   UNL     1     -12.157  11.996  70.612  1.00  0.00    -0.369 A  
HETATM   16  C   UNL     1     -12.269  12.747  69.441  1.00  0.00    -0.131 A  
HETATM   17  C   UNL     1     -11.909  12.200  68.208  1.00  0.00    -0.301 A  
HETATM   18  C   UNL     1     -11.316  10.134  69.343  1.00  0.00    -0.233 A  
HETATM   19  C   UNL     1     -11.453  10.878  68.164  1.00  0.00    -0.368 A  
BRANCH  17  20
HETATM   20  N   UNL     1     -11.973  12.920  66.995  1.00  0.00    -0.369 N  
HETATM   21  H   UNL     1     -12.902  13.119  66.622  1.00  0.00     0.000 HD 
HETATM   22  C   UNL     1     -10.896  13.379  66.269  1.00  0.00    -0.289 C  
HETATM   23  O   UNL     1      -9.710  13.202  66.494  1.00  0.00    -0.257 OA 
BRANCH  22  24
HETATM   24  C   UNL     1     -11.255  14.197  65.071  1.00  0.00    -0.356 C  
HETATM   25  C   UNL     1     -11.178  13.491  63.720  1.00  0.00    -0.026 C  
HETATM   26  C   UNL     1     -12.515  13.867  64.273  1.00  0.00    -0.305 C  
BRANCH  24  27
HETATM   27  C   UNL     1     -10.859  15.632  65.189  1.00  0.00    -0.431 C  
HETATM   28  O   UNL     1     -11.071  16.381  64.245  1.00  0.00    -0.845 OA 
HETATM   29  N   UNL     1     -10.275  15.969  66.395  1.00  0.00    -0.291 N  
HETATM   30  H   UNL     1     -10.092  15.226  67.070  1.00  0.00     0.000 HD 
BRANCH  29  31
HETATM   31  C   UNL     1      -9.920  17.286  66.737  1.00  0.00    -0.301 A  
HETATM   32  C   UNL     1     -10.867  18.201  67.214  1.00  0.00    -0.241 A  
HETATM   33  C   UNL     1     -10.499  19.520  67.477  1.00  0.00    -0.596 A  
HETATM   34  C   UNL     1      -9.192  19.922  67.238  1.00  0.00    -0.348 A  
HETATM   35  C   UNL     1      -8.234  19.015  66.798  1.00  0.00    -0.288 A  
HETATM   36  F   UNL     1      -8.850  21.203  67.430  1.00  0.00    -0.396 F  
HETATM   37  C   UNL     1      -8.589  17.681  66.581  1.00  0.00    -0.282 A  
ENDBRANCH  29  31
ENDBRANCH  24  27
ENDBRANCH  22  24
ENDBRANCH  17  20
ENDBRANCH  13  14
ENDBRANCH   8  13
BRANCH  10  38
HETATM   38  O   UNL     1      -7.043   8.474  73.185  1.00  0.00    -0.251 OA 
HETATM   39  C   UNL     1      -6.277   8.702  72.007  1.00  0.00    -0.072 C  
ENDBRANCH  10  38
ENDBRANCH   2   3
TORSDOF 8
ENDMDL
MODEL        3
REMARK 921   NORMALIZED FREE ENERGY PREDICTED BY IDOCK:   -7.21 KCAL/MOL
REMARK 922        TOTAL FREE ENERGY PREDICTED BY IDOCK:  -12.05 KCAL/MOL
REMARK 923 INTER-LIGAND FREE ENERGY PREDICTED BY IDOCK:  -10.56 KCAL/MOL
REMARK 924 INTRA-LIGAND FREE ENERGY PREDICTED BY IDOCK:   -1.49 KCAL/MOL
REMARK 927      BINDING AFFINITY PREDICTED BY RF-SCORE:    0.00 PKD
ROOT
HETATM    1  C   UNL     1     -10.656  18.229  67.446  1.00  0.00    -0.401 C  
HETATM    2  O   UNL     1     -10.106  16.959  67.777  1.00  0.00    -0.272 OA 
ENDROOT
BRANCH   2   3
HETATM    3  C   UNL     1     -10.784  16.202  68.697  1.00  0.00    -0.295 A  
HETATM    4  C   UNL     1     -10.923  16.578  70.039  1.00  0.00    -0.245 A  
HETATM    5  C   UNL     1     -11.565  15.784  70.975  1.00  0.00    -0.411 A  
HETATM    6  C   UNL     1     -12.150  14.576  70.559  1.00  0.00    -0.395 A  
HETATM    7  C   UNL     1     -12.064  14.212  69.196  1.00  0.00    -0.362 A  
HETATM    8  C   UNL     1     -12.767  13.791  71.556  1.00  0.00    -0.346 A  
HETATM    9  C   UNL     1     -12.788  14.224  72.880  1.00  0.00    -0.482 A  
HETATM   10  C   UNL     1     -11.347  14.990  68.279  1.00  0.00    -0.318 A  
HETATM   11  N   UNL     1     -11.577  16.202  72.250  1.00  0.00    -0.414 NA 
HETATM   12  C   UNL     1     -12.172  15.422  73.173  1.00  0.00    -0.456 A  
BRANCH   8  13
HETATM   13  O   UNL     1     -13.403  12.640  71.142  1.00  0.00    -0.044 OA 
BRANCH  13  14
HETATM   14  C   UNL     1     -12.819  11.412  71.331  1.00  0.00    -0.397 A  
HETATM   15  C   UNL     1     -13.509  10.548  72.178  1.00  0.00    -0.265 A  
HETATM   16  C   UNL     1     -13.053   9.245  72.384  1.00  0.00    -0.481 A  
HETATM   17  C   UNL     1     -11.900   8.787  71.744  1.00  0.00    -0.344 A  
HETATM   18  C   UNL     1     -11.673  10.961  70.681  1.00  0.00    -0.418 A  
HETATM   19  C   UNL     1     -11.199   9.662  70.907  1.00  0.00    -0.422 A  
BRANCH  17  20
HETATM   20  N   UNL     1     -11.406   7.472  71.890  1.00  0.00    -0.252 N  
HETATM   21  H   UNL     1     -11.801   6.757  71.278  1.00  0.00     0.000 HD 
HETATM   22  C   UNL     1     -10.441   7.066  72.786  1.00  0.00    -0.238 C  
HETATM   23  O   UNL     1      -9.886   7.732  73.644  1.00  0.00    -0.290 OA 
BRANCH  22  24
HETATM   24  C   UNL     1     -10.038   5.632  72.659  1.00  0.00    -0.208 C  
HETATM   25  C   UNL     1      -9.601   4.935  73.945  1.00  0.00    -0.138 C  
HETATM   26  C   UNL     1     -10.892   4.541  73.302  1.00  0.00    -0.346 C  
BRANCH  24  27
HETATM   27  C   UNL     1      -9.358   5.316  71.368  1.00  0.00    -0.148 C  
HETATM   28  O   UNL     1      -8.198   5.675  71.211  1.00  0.00    -0.121 OA 
HETATM   29  N   UNL     1     -10.140   4.631  70.459  1.00  0.00    -0.219 N  
HETATM   30  H   UNL     1     -11.118   4.459  70.693  1.00  0.00     0.000 HD 
BRANCH  29  31
HETATM   31  C   UNL     1      -9.655   4.160  69.226  1.00  0.00    -0.186 A  
HETATM   32  C   UNL     1      -9.715   4.942  68.066  1.00  0.00    -0.202 A  
HETATM   33  C   UNL     1      -9.291   4.421  66.844  1.00  0.00    -0.167 A  
HETATM   34  C   UNL     1      -8.834   3.111  66.785  1.00  0.00    -0.146 A  
HETATM   35  C   UNL     1      -8.738   2.336  67.936  1.00  0.00    -0.134 A  
HETATM   36  F   UNL     1      -8.486   2.587  65.603  1.00  0.00    -0.088 F  
HETATM   37  C   UNL     1      -9.114   2.874  69.169  1.00  0.00    -0.198 A  
ENDBRANCH  29  31
ENDBRANCH  24  27
ENDBRANCH  22  24
ENDBRANCH  17  20
ENDBRANCH  13  14
ENDBRANCH   8  13
BRANCH  10  38
HETATM   38  O   UNL     1     -11.321  14.470  67.010  1.00  0.00    -0.325 OA 
HETATM   39  C   UNL     1     -11.884  13.171  66.861  1.00  0.00    -0.386 C  
ENDBRANCH  10  38
ENDBRANCH   2   3
TORSDOF 8
ENDMDL
MODEL        4
REMARK 921   NORMALIZED FREE ENERGY PREDICTED BY IDOCK:   -7.01 KCAL/MOL
REMARK 922        TOTAL FREE ENERGY PREDICTED BY IDOCK:  -11.75 KCAL/MOL
REMARK 923 INTER-LIGAND FREE ENERGY PREDICTED BY IDOCK:  -10.27 KCAL/MOL
REMARK 924 INTRA-LIGAND FREE ENERGY PREDICTED BY IDOCK:   -1.48 KCAL/MOL
REMARK 927      BINDING AFFINITY PREDICTED BY RF-SCORE:    0.00 PKD
ROOT
HETATM    1  C   UNL     1     -10.306  20.164  65.879  1.00  0.00    -0.340 C  
HETATM    2  O   UNL     1     -10.825  18.926  65.406  1.00  0.00    -0.553 OA 
ENDROOT
BRANCH   2   3
HETATM    3  C   UNL     1     -10.244  17.780  65.881  1.00  0.00    -0.225 A  
HETATM    4  C   UNL     1      -9.250  17.781  66.867  1.00  0.00    -0.263 A  
HETATM    5  C   UNL     1      -8.629  16.623  67.305  1.00  0.00    -0.191 A  
HETATM    6  C   UNL     1      -9.045  15.387  66.782  1.00  0.00    -0.286 A  
HETATM    7  C   UNL     1     -10.085  15.367  65.827  1.00  0.00    -0.391 A  
HETATM    8  C   UNL     1      -8.361  14.240  67.241  1.00  0.00    -0.204 A  
HETATM    9  C   UNL     1      -7.334  14.360  68.175  1.00  0.00    -0.130 A  
HETATM   10  C   UNL     1     -10.650  16.552  65.340  1.00  0.00    -0.276 A  
HETATM   11  N   UNL     1      -7.637  16.743  68.201  1.00  0.00    -0.172 NA 
HETATM   12  C   UNL     1      -7.006  15.626  68.609  1.00  0.00    -0.125 A  
BRANCH   8  13
HETATM   13  O   UNL     1      -8.812  13.020  66.785  1.00  0.00    -0.207 OA 
BRANCH  13  14
HETATM   14  C   UNL     1      -9.396  12.124  67.646  1.00  0.00    -0.187 A  
HETATM   15  C   UNL     1     -10.784  12.207  67.739  1.00  0.00    -0.241 A  
HETATM   16  C   UNL     1     -11.494  11.296  68.523  1.00  0.00    -0.372 A  
HETATM   17  C   UNL     1     -10.828  10.290  69.224  1.00  0.00    -0.238 A  
HETATM   18  C   UNL     1      -8.723  11.119  68.334  1.00  0.00    -0.157 A  
HETATM   19  C   UNL     1      -9.433  10.220  69.142  1.00  0.00    -0.225 A  
BRANCH  17  20
HETATM   20  N   UNL     1     -11.495   9.324  70.009  1.00  0.00    -0.437 N  
HETATM   21  H   UNL     1     -11.266   8.345  69.834  1.00  0.00     0.000 HD 
HETATM   22  C   UNL     1     -12.427   9.583  70.990  1.00  0.00    -0.267 C  
HETATM   23  O   UNL     1     -12.891  10.663  71.318  1.00  0.00    -0.370 OA 
BRANCH  22  24
HETATM   24  C   UNL     1     -12.902   8.375  71.732  1.00  0.00    -0.371 C  
HETATM   25  C   UNL     1     -14.192   8.536  72.532  1.00  0.00    -0.322 C  
HETATM   26  C   UNL     1     -14.194   7.680  71.307  1.00  0.00    -0.427 C  
BRANCH  24  27
HETATM   27  C   UNL     1     -11.794   7.527  72.261  1.00  0.00    -0.289 C  
HETATM   28  O   UNL     1     -10.931   8.051  72.954  1.00  0.00    -0.378 OA 
HETATM   29  N   UNL     1     -11.864   6.196  71.898  1.00  0.00    -0.298 N  
HETATM   30  H   UNL     1     -12.601   5.907  71.254  1.00  0.00     0.000 HD 
BRANCH  29  31
HETATM   31  C   UNL     1     -10.970   5.220  72.371  1.00  0.00    -0.212 A  
HETATM   32  C   UNL     1      -9.697   5.055  71.809  1.00  0.00    -0.218 A  
HETATM   33  C   UNL     1      -8.860   4.032  72.253  1.00  0.00    -0.126 A  
HETATM   34  C   UNL     1      -9.311   3.164  73.238  1.00  0.00    -0.089 A  
HETATM   35  C   UNL     1     -10.559   3.337  73.828  1.00  0.00    -0.274 A  
HETATM   36  F   UNL     1      -8.535   2.142  73.622  1.00  0.00    -0.058 F  
HETATM   37  C   UNL     1     -11.378   4.393  73.420  1.00  0.00    -0.353 A  
ENDBRANCH  29  31
ENDBRANCH  24  27
ENDBRANCH  22  24
ENDBRANCH  17  20
ENDBRANCH  13  14
ENDBRANCH   8  13
BRANCH  10  38
HETATM   38  O   UNL     1     -11.610  16.358  64.382  1.00  0.00    -0.659 OA 
HETATM   39  C   UNL     1     -12.259  15.091  64.402  1.00  0.00    -0.337 C  
ENDBRANCH  10  38
ENDBRANCH   2   3
TORSDOF 8
ENDMDL
MODEL        5
REMARK 921   NORMALIZED FREE ENERGY PREDICTED BY IDOCK:   -7.00 KCAL/MOL
REMARK 922        TOTAL FREE ENERGY PREDICTED BY IDOCK:  -11.75 KCAL/MOL
REMARK 923 INTER-LIGAND FREE ENERGY PREDICTED BY IDOCK:  -10.30 KCAL/MOL
REMARK 924 INTRA-LIGAND FREE ENERGY PREDICTED BY IDOCK:   -1.45 KCAL/MOL
REMARK 927      BINDING AFFINITY PREDICTED BY RF-SCORE:    0.00 PKD
ROOT
HETATM    1  C   UNL     1     -11.360   1.532  73.637  1.00  0.00    -0.182 C  
HETATM    2  O   UNL     1     -10.528   1.767  72.507  1.00  0.00    -0.150 OA 
ENDROOT
BRANCH   2   3
HETATM    3  C   UNL     1     -10.276   3.072  72.174  1.00  0.00    -0.075 A  
HETATM    4  C   UNL     1     -10.712   4.154  72.948  1.00  0.00    -0.230 A  
HETATM    5  C   UNL     1     -10.499   5.472  72.579  1.00  0.00    -0.216 A  
HETATM    6  C   UNL     1      -9.770   5.743  71.409  1.00  0.00    -0.203 A  
HETATM    7  C   UNL     1      -9.277   4.660  70.647  1.00  0.00    -0.197 A  
HETATM    8  C   UNL     1      -9.606   7.101  71.062  1.00  0.00    -0.158 A  
HETATM    9  C   UNL     1     -10.143   8.103  71.867  1.00  0.00    -0.285 A  
HETATM   10  C   UNL     1      -9.566   3.335  70.995  1.00  0.00    -0.164 A  
HETATM   11  N   UNL     1     -11.023   6.433  73.354  1.00  0.00    -0.208 NA 
HETATM   12  C   UNL     1     -10.848   7.717  72.986  1.00  0.00    -0.389 A  
BRANCH   8  13
HETATM   13  O   UNL     1      -8.833   7.374  69.954  1.00  0.00    -0.140 OA 
BRANCH  13  14
HETATM   14  C   UNL     1      -9.261   8.271  69.005  1.00  0.00    -0.147 A  
HETATM   15  C   UNL     1      -8.604   9.499  69.007  1.00  0.00    -0.133 A  
HETATM   16  C   UNL     1      -8.901  10.460  68.039  1.00  0.00    -0.130 A  
HETATM   17  C   UNL     1      -9.857  10.205  67.055  1.00  0.00    -0.191 A  
HETATM   18  C   UNL     1     -10.211   8.004  68.023  1.00  0.00    -0.260 A  
HETATM   19  C   UNL     1     -10.528   8.978  67.067  1.00  0.00    -0.316 A  
BRANCH  17  20
HETATM   20  N   UNL     1     -10.179  11.126  66.034  1.00  0.00    -0.242 N  
HETATM   21  H   UNL     1      -9.556  11.161  65.227  1.00  0.00     0.000 HD 
HETATM   22  C   UNL     1     -11.258  11.984  66.028  1.00  0.00    -0.335 C  
HETATM   23  O   UNL     1     -12.086  12.153  66.908  1.00  0.00    -0.600 OA 
BRANCH  22  24
HETATM   24  C   UNL     1     -11.412  12.783  64.774  1.00  0.00    -0.356 C  
HETATM   25  C   UNL     1     -10.672  12.263  63.544  1.00  0.00    -0.497 C  
HETATM   26  C   UNL     1     -12.165  12.194  63.584  1.00  0.00    -0.663 C  
BRANCH  24  27
HETATM   27  C   UNL     1     -11.524  14.252  65.015  1.00  0.00    -0.364 C  
HETATM   28  O   UNL     1     -12.361  14.889  64.388  1.00  0.00    -0.490 OA 
HETATM   29  N   UNL     1     -10.640  14.750  65.952  1.00  0.00    -0.300 N  
HETATM   30  H   UNL     1      -9.944  14.117  66.348  1.00  0.00     0.000 HD 
BRANCH  29  31
HETATM   31  C   UNL     1     -10.652  16.087  66.388  1.00  0.00    -0.284 A  
HETATM   32  C   UNL     1     -10.542  17.154  65.488  1.00  0.00    -0.160 A  
HETATM   33  C   UNL     1     -10.484  18.467  65.956  1.00  0.00    -0.400 A  
HETATM   34  C   UNL     1     -10.511  18.702  67.324  1.00  0.00    -0.423 A  
HETATM   35  C   UNL     1     -10.654  17.654  68.227  1.00  0.00    -0.342 A  
HETATM   36  F   UNL     1     -10.393  19.956  67.779  1.00  0.00    -0.482 F  
HETATM   37  C   UNL     1     -10.763  16.343  67.757  1.00  0.00    -0.328 A  
ENDBRANCH  29  31
ENDBRANCH  24  27
ENDBRANCH  22  24
ENDBRANCH  17  20
ENDBRANCH  13  14
ENDBRANCH   8  13
BRANCH  10  38
HETATM   38  O   UNL     1      -9.055   2.407  70.124  1.00  0.00    -0.088 OA 
HETATM   39  C   UNL     1      -9.385   2.597  68.752  1.00  0.00    -0.165 C  
ENDBRANCH  10  38
ENDBRANCH   2   3
TORSDOF 8
ENDMDL
MODEL        6
REMARK 921   NORMALIZED FREE ENERGY PREDICTED BY IDOCK:   -6.93 KCAL/MOL
REMARK 922        TOTAL FREE ENERGY PREDICTED BY IDOCK:  -11.64 KCAL/MOL
REMARK 923 INTER-LIGAND FREE ENERGY PREDICTED BY IDOCK:  -10.05 KCAL/MOL
REMARK 924 INTRA-LIGAND FREE ENERGY PREDICTED BY IDOCK:   -1.59 KCAL/MOL
REMARK 927      BINDING AFFINITY PREDICTED BY RF-SCORE:    0.00 PKD
ROOT
HETATM    1  C   UNL     1     -10.803  19.132  67.042  1.00  0.00    -0.385 C  
HETATM    2  O   UNL     1     -10.100  18.586  65.932  1.00  0.00    -0.532 OA 
ENDROOT
BRANCH   2   3
HETATM    3  C   UNL     1     -10.221  17.239  65.714  1.00  0.00    -0.198 A  
HETATM    4  C   UNL     1     -11.167  16.690  64.839  1.00  0.00    -0.065 A  
HETATM    5  C   UNL     1     -11.319  15.324  64.663  1.00  0.00    -0.358 A  
HETATM    6  C   UNL     1     -10.458  14.449  65.346  1.00  0.00    -0.391 A  
HETATM    7  C   UNL     1      -9.463  14.991  66.189  1.00  0.00    -0.347 A  
HETATM    8  C   UNL     1     -10.673  13.067  65.154  1.00  0.00    -0.306 A  
HETATM    9  C   UNL     1     -11.691  12.623  64.314  1.00  0.00    -0.446 A  
HETATM   10  C   UNL     1      -9.372  16.371  66.413  1.00  0.00    -0.292 A  
HETATM   11  N   UNL     1     -12.305  14.901  63.857  1.00  0.00    -0.711 NA 
HETATM   12  C   UNL     1     -12.480  13.575  63.705  1.00  0.00    -0.207 A  
BRANCH   8  13
HETATM   13  O   UNL     1      -9.787  12.206  65.765  1.00  0.00    -0.243 OA 
BRANCH  13  14
HETATM   14  C   UNL     1     -10.193  11.409  66.808  1.00  0.00    -0.223 A  
HETATM   15  C   UNL     1     -10.665  12.090  67.928  1.00  0.00    -0.243 A  
HETATM   16  C   UNL     1     -11.177  11.385  69.019  1.00  0.00    -0.319 A  
HETATM   17  C   UNL     1     -11.227   9.991  69.004  1.00  0.00    -0.133 A  
HETATM   18  C   UNL     1     -10.246  10.019  66.781  1.00  0.00    -0.295 A  
HETATM   19  C   UNL     1     -10.735   9.310  67.885  1.00  0.00    -0.248 A  
BRANCH  17  20
HETATM   20  N   UNL     1     -11.760   9.226  70.065  1.00  0.00    -0.456 N  
HETATM   21  H   UNL     1     -12.746   8.974  70.005  1.00  0.00     0.000 HD 
HETATM   22  C   UNL     1     -11.068   8.789  71.174  1.00  0.00    -0.276 C  
HETATM   23  O   UNL     1      -9.910   9.025  71.477  1.00  0.00    -0.296 OA 
BRANCH  22  24
HETATM   24  C   UNL     1     -11.856   7.913  72.094  1.00  0.00    -0.384 C  
HETATM   25  C   UNL     1     -13.128   8.519  72.681  1.00  0.00    -0.203 C  
HETATM   26  C   UNL     1     -13.239   7.418  71.676  1.00  0.00    -0.416 C  
BRANCH  24  27
HETATM   27  C   UNL     1     -11.009   7.003  72.921  1.00  0.00    -0.302 C  
HETATM   28  O   UNL     1     -10.736   7.334  74.068  1.00  0.00    -0.288 OA 
HETATM   29  N   UNL     1     -10.610   5.847  72.279  1.00  0.00    -0.208 N  
HETATM   30  H   UNL     1     -10.851   5.732  71.293  1.00  0.00     0.000 HD 
BRANCH  29  31
HETATM   31  C   UNL     1      -9.890   4.822  72.915  1.00  0.00    -0.151 A  
HETATM   32  C   UNL     1      -8.489   4.806  72.927  1.00  0.00    -0.111 A  
HETATM   33  C   UNL     1      -7.803   3.738  73.505  1.00  0.00    -0.079 A  
HETATM   34  C   UNL     1      -8.522   2.680  74.044  1.00  0.00    -0.071 A  
HETATM   35  C   UNL     1      -9.912   2.699  74.068  1.00  0.00    -0.154 A  
HETATM   36  F   UNL     1      -7.866   1.624  74.542  1.00  0.00    -0.031 F  
HETATM   37  C   UNL     1     -10.601   3.791  73.535  1.00  0.00    -0.281 A  
ENDBRANCH  29  31
ENDBRANCH  24  27
ENDBRANCH  22  24
ENDBRANCH  17  20
ENDBRANCH  13  14
ENDBRANCH   8  13
BRANCH  10  38
HETATM   38  O   UNL     1      -8.386  16.727  67.297  1.00  0.00    -0.170 OA 
HETATM   39  C   UNL     1      -8.629  16.400  68.661  1.00  0.00    -0.237 C  
ENDBRANCH  10  38
ENDBRANCH   2   3
TORSDOF 8
ENDMDL
MODEL        7
REMARK 921   NORMALIZED FREE ENERGY PREDICTED BY IDOCK:   -6.92 KCAL/MOL
REMARK 922        TOTAL FREE ENERGY PREDICTED BY IDOCK:  -11.63 KCAL/MOL
REMARK 923 INTER-LIGAND FREE ENERGY PREDICTED BY IDOCK:  -10.32 KCAL/MOL
REMARK 924 INTRA-LIGAND FREE ENERGY PREDICTED BY IDOCK:   -1.30 KCAL/MOL
REMARK 927      BINDING AFFINITY PREDICTED BY RF-SCORE:    0.00 PKD
ROOT
HETATM    1  C   UNL     1     -12.289  15.389  74.269  1.00  0.00    -0.664 C  
HETATM    2  O   UNL     1     -12.904  16.097  73.198  1.00  0.00    -0.478 OA 
ENDROOT
BRANCH   2   3
HETATM    3  C   UNL     1     -12.586  15.707  71.924  1.00  0.00    -0.438 A  
HETATM    4  C   UNL     1     -11.659  16.390  71.127  1.00  0.00    -0.250 A  
HETATM    5  C   UNL     1     -11.380  16.021  69.821  1.00  0.00    -0.331 A  
HETATM    6  C   UNL     1     -12.008  14.885  69.284  1.00  0.00    -0.326 A  
HETATM    7  C   UNL     1     -12.904  14.155  70.096  1.00  0.00    -0.107 A  
HETATM    8  C   UNL     1     -11.711  14.569  67.941  1.00  0.00    -0.351 A  
HETATM    9  C   UNL     1     -10.826  15.358  67.211  1.00  0.00    -0.316 A  
HETATM   10  C   UNL     1     -13.231  14.584  71.388  1.00  0.00    -0.355 A  
HETATM   11  N   UNL     1     -10.531  16.788  69.120  1.00  0.00    -0.327 NA 
HETATM   12  C   UNL     1     -10.277  16.455  67.840  1.00  0.00    -0.268 A  
BRANCH   8  13
HETATM   13  O   UNL     1     -12.270  13.416  67.432  1.00  0.00    -0.326 OA 
BRANCH  13  14
HETATM   14  C   UNL     1     -11.527  12.265  67.327  1.00  0.00    -0.357 A  
HETATM   15  C   UNL     1     -11.569  11.427  68.439  1.00  0.00    -0.385 A  
HETATM   16  C   UNL     1     -10.916  10.193  68.418  1.00  0.00    -0.293 A  
HETATM   17  C   UNL     1     -10.214   9.780  67.284  1.00  0.00    -0.232 A  
HETATM   18  C   UNL     1     -10.836  11.859  66.189  1.00  0.00    -0.334 A  
HETATM   19  C   UNL     1     -10.159  10.633  66.176  1.00  0.00    -0.306 A  
BRANCH  17  20
HETATM   20  N   UNL     1      -9.558   8.533  67.194  1.00  0.00    -0.166 N  
HETATM   21  H   UNL     1      -8.539   8.541  67.225  1.00  0.00     0.000 HD 
HETATM   22  C   UNL     1     -10.171   7.305  67.067  1.00  0.00    -0.278 C  
HETATM   23  O   UNL     1     -11.362   7.070  66.947  1.00  0.00    -0.199 OA 
BRANCH  22  24
HETATM   24  C   UNL     1      -9.237   6.137  67.091  1.00  0.00    -0.120 C  
HETATM   25  C   UNL     1      -9.215   5.262  65.841  1.00  0.00    -0.166 C  
HETATM   26  C   UNL     1      -8.027   6.111  66.160  1.00  0.00    -0.108 C  
BRANCH  24  27
HETATM   27  C   UNL     1      -9.093   5.519  68.442  1.00  0.00    -0.111 C  
HETATM   28  O   UNL     1      -8.006   5.059  68.766  1.00  0.00    -0.080 OA 
HETATM   29  N   UNL     1     -10.244   5.531  69.206  1.00  0.00    -0.221 N  
HETATM   30  H   UNL     1     -11.103   5.883  68.782  1.00  0.00     0.000 HD 
BRANCH  29  31
HETATM   31  C   UNL     1     -10.289   5.084  70.538  1.00  0.00    -0.215 A  
HETATM   32  C   UNL     1      -9.782   3.833  70.910  1.00  0.00    -0.248 A  
HETATM   33  C   UNL     1      -9.906   3.387  72.226  1.00  0.00    -0.231 A  
HETATM   34  C   UNL     1     -10.559   4.185  73.155  1.00  0.00    -0.184 A  
HETATM   35  C   UNL     1     -11.037   5.443  72.806  1.00  0.00    -0.349 A  
HETATM   36  F   UNL     1     -10.735   3.733  74.403  1.00  0.00    -0.236 F  
HETATM   37  C   UNL     1     -10.869   5.912  71.501  1.00  0.00    -0.325 A  
ENDBRANCH  29  31
ENDBRANCH  24  27
ENDBRANCH  22  24
ENDBRANCH  17  20
ENDBRANCH  13  14
ENDBRANCH   8  13
BRANCH  10  38
HETATM   38  O   UNL     1     -14.153  13.791  72.022  1.00  0.00    -0.469 OA 
HETATM   39  C   UNL     1     -13.742  12.454  72.287  1.00  0.00    -0.172 C  
ENDBRANCH  10  38
ENDBRANCH   2   3
TORSDOF 8
ENDMDL
MODEL        8
REMARK 921   NORMALIZED FREE ENERGY PREDICTED BY IDOCK:   -6.89 KCAL/MOL
REMARK 922        TOTAL FREE ENERGY PREDICTED BY IDOCK:  -11.58 KCAL/MOL
REMARK 923 INTER-LIGAND FREE ENERGY PREDICTED BY IDOCK:  -10.10 KCAL/MOL
REMARK 924 INTRA-LIGAND FREE ENERGY PREDICTED BY IDOCK:   -1.48 KCAL/MOL
REMARK 927      BINDING AFFINITY PREDICTED BY RF-SCORE:    0.00 PKD
ROOT
HETATM    1  C   UNL     1     -10.557  18.917  65.798  1.00  0.00    -0.296 C  
HETATM    2  O   UNL     1      -9.981  17.616  65.783  1.00  0.00    -0.544 OA 
ENDROOT
BRANCH   2   3
HETATM    3  C   UNL     1     -10.495  16.692  66.655  1.00  0.00    -0.258 A  
HETATM    4  C   UNL     1     -10.669  16.948  68.021  1.00  0.00    -0.364 A  
HETATM    5  C   UNL     1     -11.141  15.992  68.906  1.00  0.00    -0.331 A  
HETATM    6  C   UNL     1     -11.512  14.730  68.413  1.00  0.00    -0.336 A  
HETATM    7  C   UNL     1     -11.392  14.477  67.028  1.00  0.00    -0.359 A  
HETATM    8  C   UNL     1     -11.959  13.783  69.360  1.00  0.00    -0.347 A  
HETATM    9  C   UNL     1     -12.028  14.118  70.711  1.00  0.00    -0.377 A  
HETATM   10  C   UNL     1     -10.844  15.429  66.160  1.00  0.00    -0.313 A  
HETATM   11  N   UNL     1     -11.200  16.317  70.207  1.00  0.00    -0.374 NA 
HETATM   12  C   UNL     1     -11.628  15.384  71.079  1.00  0.00    -0.367 A  
BRANCH   8  13
HETATM   13  O   UNL     1     -12.390  12.568  68.874  1.00  0.00    -0.052 OA 
BRANCH  13  14
HETATM   14  C   UNL     1     -12.095  11.403  69.540  1.00  0.00    -0.302 A  
HETATM   15  C   UNL     1     -10.919  10.772  69.144  1.00  0.00    -0.293 A  
HETATM   16  C   UNL     1     -10.477   9.624  69.803  1.00  0.00    -0.263 A  
HETATM   17  C   UNL     1     -11.204   9.092  70.869  1.00  0.00    -0.295 A  
HETATM   18  C   UNL     1     -12.824  10.886  70.607  1.00  0.00    -0.340 A  
HETATM   19  C   UNL     1     -12.395   9.718  71.253  1.00  0.00    -0.465 A  
BRANCH  17  20
HETATM   20  N   UNL     1     -10.793   7.951  71.592  1.00  0.00    -0.228 N  
HETATM   21  H   UNL     1     -11.305   7.085  71.423  1.00  0.00     0.000 HD 
HETATM   22  C   UNL     1      -9.762   7.900  72.505  1.00  0.00    -0.227 C  
HETATM   23  O   UNL     1      -9.065   8.820  72.901  1.00  0.00    -0.311 OA 
BRANCH  22  24
HETATM   24  C   UNL     1      -9.480   6.537  73.051  1.00  0.00    -0.152 C  
HETATM   25  C   UNL     1      -8.242   6.405  73.935  1.00  0.00    -0.111 C  
HETATM   26  C   UNL     1      -9.598   6.279  74.551  1.00  0.00    -0.277 C  
BRANCH  24  27
HETATM   27  C   UNL     1      -9.858   5.433  72.120  1.00  0.00    -0.169 C  
HETATM   28  O   UNL     1     -10.933   4.871  72.279  1.00  0.00    -0.155 OA 
HETATM   29  N   UNL     1      -8.918   5.156  71.146  1.00  0.00    -0.136 N  
HETATM   30  H   UNL     1      -8.029   5.656  71.173  1.00  0.00     0.000 HD 
BRANCH  29  31
HETATM   31  C   UNL     1      -9.127   4.219  70.119  1.00  0.00    -0.109 A  
HETATM   32  C   UNL     1      -9.056   2.840  70.357  1.00  0.00    -0.185 A  
HETATM   33  C   UNL     1      -9.197   1.937  69.304  1.00  0.00    -0.185 A  
HETATM   34  C   UNL     1      -9.384   2.419  68.015  1.00  0.00    -0.202 A  
HETATM   35  C   UNL     1      -9.490   3.784  67.770  1.00  0.00    -0.231 A  
HETATM   36  F   UNL     1      -9.456   1.556  66.993  1.00  0.00    -0.114 F  
HETATM   37  C   UNL     1      -9.399   4.688  68.831  1.00  0.00    -0.200 A  
ENDBRANCH  29  31
ENDBRANCH  24  27
ENDBRANCH  22  24
ENDBRANCH  17  20
ENDBRANCH  13  14
ENDBRANCH   8  13
BRANCH  10  38
HETATM   38  O   UNL     1     -10.752  15.007  64.858  1.00  0.00    -0.400 OA 
HETATM   39  C   UNL     1     -10.613  13.602  64.671  1.00  0.00    -0.430 C  
ENDBRANCH  10  38
ENDBRANCH   2   3
TORSDOF 8
ENDMDL
MODEL        9
REMARK 921   NORMALIZED FREE ENERGY PREDICTED BY IDOCK:   -6.88 KCAL/MOL
REMARK 922        TOTAL FREE ENERGY PREDICTED BY IDOCK:  -11.57 KCAL/MOL
REMARK 923 INTER-LIGAND FREE ENERGY PREDICTED BY IDOCK:  -10.37 KCAL/MOL
REMARK 924 INTRA-LIGAND FREE ENERGY PREDICTED BY IDOCK:   -1.20 KCAL/MOL
REMARK 927      BINDING AFFINITY PREDICTED BY RF-SCORE:    0.00 PKD
ROOT
HETATM    1  C   UNL     1      -9.300   2.164  68.691  1.00  0.00    -0.175 C  
HETATM    2  O   UNL     1      -9.163   3.491  68.197  1.00  0.00    -0.144 OA 
ENDROOT
BRANCH   2   3
HETATM    3  C   UNL     1      -9.329   4.514  69.093  1.00  0.00    -0.149 A  
HETATM    4  C   UNL     1      -9.966   4.349  70.329  1.00  0.00    -0.248 A  
HETATM    5  C   UNL     1     -10.177   5.399  71.208  1.00  0.00    -0.223 A  
HETATM    6  C   UNL     1      -9.688   6.673  70.878  1.00  0.00    -0.190 A  
HETATM    7  C   UNL     1      -8.995   6.842  69.659  1.00  0.00    -0.144 A  
HETATM    8  C   UNL     1      -9.954   7.714  71.795  1.00  0.00    -0.172 A  
HETATM    9  C   UNL     1     -10.661   7.455  72.966  1.00  0.00    -0.413 A  
HETATM   10  C   UNL     1      -8.856   5.788  68.748  1.00  0.00    -0.110 A  
HETATM   11  N   UNL     1     -10.864   5.146  72.333  1.00  0.00    -0.221 NA 
HETATM   12  C   UNL     1     -11.101   6.167  73.179  1.00  0.00    -0.185 A  
BRANCH   8  13
HETATM   13  O   UNL     1      -9.416   8.950  71.509  1.00  0.00    -0.251 OA 
BRANCH  13  14
HETATM   14  C   UNL     1      -9.919   9.712  70.483  1.00  0.00    -0.254 A  
HETATM   15  C   UNL     1      -8.972  10.208  69.590  1.00  0.00    -0.190 A  
HETATM   16  C   UNL     1      -9.372  10.930  68.464  1.00  0.00    -0.181 A  
HETATM   17  C   UNL     1     -10.725  11.163  68.214  1.00  0.00    -0.196 A  
HETATM   18  C   UNL     1     -11.272   9.932  70.237  1.00  0.00    -0.364 A  
HETATM   19  C   UNL     1     -11.673  10.678  69.122  1.00  0.00    -0.324 A  
BRANCH  17  20
HETATM   20  N   UNL     1     -11.191  11.861  67.078  1.00  0.00    -0.304 N  
HETATM   21  H   UNL     1     -11.757  12.693  67.244  1.00  0.00     0.000 HD 
HETATM   22  C   UNL     1     -10.951  11.519  65.765  1.00  0.00    -0.246 C  
HETATM   23  O   UNL     1     -10.359  10.540  65.340  1.00  0.00    -0.278 OA 
BRANCH  22  24
HETATM   24  C   UNL     1     -11.484  12.490  64.761  1.00  0.00    -0.369 C  
HETATM   25  C   UNL     1     -10.967  12.341  63.333  1.00  0.00    -0.467 C  
HETATM   26  C   UNL     1     -12.391  12.000  63.634  1.00  0.00    -0.648 C  
BRANCH  24  27
HETATM   27  C   UNL     1     -11.744  13.848  65.326  1.00  0.00    -0.340 C  
HETATM   28  O   UNL     1     -12.900  14.179  65.555  1.00  0.00    -0.592 OA 
HETATM   29  N   UNL     1     -10.611  14.609  65.536  1.00  0.00    -0.331 N  
HETATM   30  H   UNL     1      -9.711  14.235  65.231  1.00  0.00     0.000 HD 
BRANCH  29  31
HETATM   31  C   UNL     1     -10.636  15.875  66.147  1.00  0.00    -0.305 A  
HETATM   32  C   UNL     1     -10.575  17.055  65.396  1.00  0.00    -0.147 A  
HETATM   33  C   UNL     1     -10.529  18.294  66.035  1.00  0.00    -0.380 A  
HETATM   34  C   UNL     1     -10.520  18.343  67.423  1.00  0.00    -0.415 A  
HETATM   35  C   UNL     1     -10.614  17.181  68.180  1.00  0.00    -0.380 A  
HETATM   36  F   UNL     1     -10.413  19.527  68.039  1.00  0.00    -0.462 F  
HETATM   37  C   UNL     1     -10.710  15.942  67.541  1.00  0.00    -0.318 A  
ENDBRANCH  29  31
ENDBRANCH  24  27
ENDBRANCH  22  24
ENDBRANCH  17  20
ENDBRANCH  13  14
ENDBRANCH   8  13
BRANCH  10  38
HETATM   38  O   UNL     1      -8.202   6.132  67.593  1.00  0.00    -0.112 OA 
HETATM   39  C   UNL     1      -9.015   6.682  66.561  1.00  0.00    -0.145 C  
ENDBRANCH  10  38
ENDBRANCH   2   3
TORSDOF 8
ENDMDL
MODEL       10
REMARK 921   NORMALIZED FREE ENERGY PREDICTED BY IDOCK:   -6.87 KCAL/MOL
REMARK 922        TOTAL FREE ENERGY PREDICTED BY IDOCK:  -11.55 KCAL/MOL
REMARK 923 INTER-LIGAND FREE ENERGY PREDICTED BY IDOCK:  -10.11 KCAL/MOL
REMARK 924 INTRA-LIGAND FREE ENERGY PREDICTED BY IDOCK:   -1.44 KCAL/MOL
REMARK 927      BINDING AFFINITY PREDICTED BY RF-SCORE:    0.00 PKD
ROOT
HETATM    1  C   UNL     1     -12.584  16.128  74.111  1.00  0.00    -0.542 C  
HETATM    2  O   UNL     1     -12.262  14.849  73.577  1.00  0.00    -0.395 OA 
ENDROOT
BRANCH   2   3
HETATM    3  C   UNL     1     -12.117  14.755  72.218  1.00  0.00    -0.271 A  
HETATM    4  C   UNL     1     -11.329  15.642  71.472  1.00  0.00    -0.454 A  
HETATM    5  C   UNL     1     -11.229  15.573  70.092  1.00  0.00    -0.318 A  
HETATM    6  C   UNL     1     -11.898  14.544  69.410  1.00  0.00    -0.367 A  
HETATM    7  C   UNL     1     -12.652  13.610  70.155  1.00  0.00    -0.215 A  
HETATM    8  C   UNL     1     -11.786  14.536  68.003  1.00  0.00    -0.342 A  
HETATM    9  C   UNL     1     -11.032  15.510  67.351  1.00  0.00    -0.306 A  
HETATM   10  C   UNL     1     -12.803  13.738  71.541  1.00  0.00    -0.362 A  
HETATM   11  N   UNL     1     -10.506  16.517  69.469  1.00  0.00    -0.308 NA 
HETATM   12  C   UNL     1     -10.428  16.477  68.125  1.00  0.00    -0.313 A  
BRANCH   8  13
HETATM   13  O   UNL     1     -12.382  13.488  67.334  1.00  0.00    -0.278 OA 
BRANCH  13  14
HETATM   14  C   UNL     1     -11.619  12.536  66.704  1.00  0.00    -0.380 A  
HETATM   15  C   UNL     1     -11.042  11.585  67.542  1.00  0.00    -0.329 A  
HETATM   16  C   UNL     1     -10.309  10.524  67.007  1.00  0.00    -0.289 A  
HETATM   17  C   UNL     1     -10.145  10.398  65.627  1.00  0.00    -0.269 A  
HETATM   18  C   UNL     1     -11.468  12.415  65.325  1.00  0.00    -0.389 A  
HETATM   19  C   UNL     1     -10.711  11.365  64.789  1.00  0.00    -0.362 A  
BRANCH  17  20
HETATM   20  N   UNL     1      -9.440   9.332  65.027  1.00  0.00    -0.453 N  
HETATM   21  H   UNL     1      -9.934   8.444  64.931  1.00  0.00     0.000 HD 
HETATM   22  C   UNL     1      -8.145   9.381  64.559  1.00  0.00    -0.136 C  
HETATM   23  O   UNL     1      -7.357  10.310  64.627  1.00  0.00    -0.138 OA 
BRANCH  22  24
HETATM   24  C   UNL     1      -7.680   8.132  63.881  1.00  0.00    -0.138 C  
HETATM   25  C   UNL     1      -8.152   7.924  62.445  1.00  0.00    -0.161 C  
HETATM   26  C   UNL     1      -6.710   8.219  62.705  1.00  0.00    -0.087 C  
BRANCH  24  27
HETATM   27  C   UNL     1      -7.555   6.965  64.805  1.00  0.00    -0.108 C  
HETATM   28  O   UNL     1      -6.482   6.764  65.358  1.00  0.00    -0.044 OA 
HETATM   29  N   UNL     1      -8.705   6.212  64.938  1.00  0.00    -0.357 N  
HETATM   30  H   UNL     1      -9.512   6.451  64.360  1.00  0.00     0.000 HD 
BRANCH  29  31
HETATM   31  C   UNL     1      -8.820   5.132  65.831  1.00  0.00    -0.142 A  
HETATM   32  C   UNL     1      -8.579   3.814  65.424  1.00  0.00    -0.114 A  
HETATM   33  C   UNL     1      -8.770   2.757  66.314  1.00  0.00    -0.131 A  
HETATM   34  C   UNL     1      -9.226   3.024  67.598  1.00  0.00    -0.197 A  
HETATM   35  C   UNL     1      -9.437   4.331  68.025  1.00  0.00    -0.212 A  
HETATM   36  F   UNL     1      -9.471   2.007  68.435  1.00  0.00    -0.195 F  
HETATM   37  C   UNL     1      -9.197   5.393  67.150  1.00  0.00    -0.111 A  
ENDBRANCH  29  31
ENDBRANCH  24  27
ENDBRANCH  22  24
ENDBRANCH  17  20
ENDBRANCH  13  14
ENDBRANCH   8  13
BRANCH  10  38
HETATM   38  O   UNL     1     -13.606  12.780  72.104  1.00  0.00    -0.521 OA 
HETATM   39  C   UNL     1     -13.220  11.430  71.866  1.00  0.00    -0.380 C  
ENDBRANCH  10  38
ENDBRANCH   2   3
TORSDOF 8
ENDMDL
MODEL       11
REMARK 921   NORMALIZED FREE ENERGY PREDICTED BY IDOCK:   -6.85 KCAL/MOL
REMARK 922        TOTAL FREE ENERGY PREDICTED BY IDOCK:  -11.52 KCAL/MOL
REMARK 923 INTER-LIGAND FREE ENERGY PREDICTED BY IDOCK:  -10.06 KCAL/MOL
REMARK 924 INTRA-LIGAND FREE ENERGY PREDICTED BY IDOCK:   -1.46 KCAL/MOL
REMARK 927      BINDING AFFINITY PREDICTED BY RF-SCORE:    0.00 PKD
ROOT
HETATM    1  C   UNL     1     -10.406  20.281  67.728  1.00  0.00    -0.268 C  
HETATM    2  O   UNL     1      -9.493  19.710  66.798  1.00  0.00    -0.326 OA 
ENDROOT
BRANCH   2   3
HETATM    3  C   UNL     1      -9.677  18.394  66.465  1.00  0.00    -0.348 A  
HETATM    4  C   UNL     1     -10.580  17.977  65.479  1.00  0.00     0.007 A  
HETATM    5  C   UNL     1     -10.800  16.641  65.183  1.00  0.00    -0.186 A  
HETATM    6  C   UNL     1     -10.052  15.662  65.858  1.00  0.00    -0.378 A  
HETATM    7  C   UNL     1      -9.099  16.072  66.816  1.00  0.00    -0.271 A  
HETATM    8  C   UNL     1     -10.335  14.315  65.540  1.00  0.00    -0.355 A  
HETATM    9  C   UNL     1     -11.306  14.005  64.591  1.00  0.00    -0.378 A  
HETATM   10  C   UNL     1      -8.943  17.421  67.156  1.00  0.00    -0.240 A  
HETATM   11  N   UNL     1     -11.741  16.347  64.273  1.00  0.00    -0.832 NA 
HETATM   12  C   UNL     1     -11.983  15.050  64.001  1.00  0.00    -0.058 A  
BRANCH   8  13
HETATM   13  O   UNL     1      -9.556  13.353  66.147  1.00  0.00    -0.268 OA 
BRANCH  13  14
HETATM   14  C   UNL     1     -10.122  12.419  66.981  1.00  0.00    -0.214 A  
HETATM   15  C   UNL     1     -10.633  12.920  68.176  1.00  0.00    -0.249 A  
HETATM   16  C   UNL     1     -11.300  12.078  69.066  1.00  0.00    -0.331 A  
HETATM   17  C   UNL     1     -11.468  10.724  68.774  1.00  0.00    -0.295 A  
HETATM   18  C   UNL     1     -10.291  11.072  66.676  1.00  0.00    -0.288 A  
HETATM   19  C   UNL     1     -10.938  10.220  67.581  1.00  0.00    -0.356 A  
BRANCH  17  20
HETATM   20  N   UNL     1     -12.158   9.830  69.622  1.00  0.00    -0.323 N  
HETATM   21  H   UNL     1     -13.030   9.436  69.269  1.00  0.00     0.000 HD 
HETATM   22  C   UNL     1     -11.761   9.442  70.883  1.00  0.00    -0.308 C  
HETATM   23  O   UNL     1     -10.796   9.833  71.519  1.00  0.00    -0.262 OA 
BRANCH  22  24
HETATM   24  C   UNL     1     -12.633   8.409  71.520  1.00  0.00    -0.334 C  
HETATM   25  C   UNL     1     -13.532   8.888  72.657  1.00  0.00    -0.386 C  
HETATM   26  C   UNL     1     -14.150   8.486  71.356  1.00  0.00    -0.360 C  
BRANCH  24  27
HETATM   27  C   UNL     1     -12.005   7.055  71.581  1.00  0.00    -0.329 C  
HETATM   28  O   UNL     1     -12.483   6.219  72.337  1.00  0.00    -0.164 OA 
HETATM   29  N   UNL     1     -10.915   6.889  70.749  1.00  0.00    -0.248 N  
HETATM   30  H   UNL     1     -10.579   7.697  70.224  1.00  0.00     0.000 HD 
BRANCH  29  31
HETATM   31  C   UNL     1     -10.246   5.663  70.591  1.00  0.00    -0.227 A  
HETATM   32  C   UNL     1     -10.158   5.030  69.345  1.00  0.00    -0.288 A  
HETATM   33  C   UNL     1      -9.550   3.780  69.233  1.00  0.00    -0.209 A  
HETATM   34  C   UNL     1      -9.057   3.159  70.373  1.00  0.00    -0.122 A  
HETATM   35  C   UNL     1      -9.108   3.792  71.610  1.00  0.00    -0.169 A  
HETATM   36  F   UNL     1      -8.530   1.932  70.279  1.00  0.00    -0.054 F  
HETATM   37  C   UNL     1      -9.671   5.066  71.715  1.00  0.00    -0.218 A  
ENDBRANCH  29  31
ENDBRANCH  24  27
ENDBRANCH  22  24
ENDBRANCH  17  20
ENDBRANCH  13  14
ENDBRANCH   8  13
BRANCH  10  38
HETATM   38  O   UNL     1      -8.012  17.643  68.138  1.00  0.00    -0.238 OA 
HETATM   39  C   UNL     1      -6.685  17.897  67.689  1.00  0.00    -0.185 C  
ENDBRANCH  10  38
ENDBRANCH   2   3
TORSDOF 8
ENDMDL
MODEL       12
REMARK 921   NORMALIZED FREE ENERGY PREDICTED BY IDOCK:   -6.71 KCAL/MOL
REMARK 922        TOTAL FREE ENERGY PREDICTED BY IDOCK:  -11.32 KCAL/MOL
REMARK 923 INTER-LIGAND FREE ENERGY PREDICTED BY IDOCK:   -9.98 KCAL/MOL
REMARK 924 INTRA-LIGAND FREE ENERGY PREDICTED BY IDOCK:   -1.34 KCAL/MOL
REMARK 927      BINDING AFFINITY PREDICTED BY RF-SCORE:    0.00 PKD
ROOT
HETATM    1  C   UNL     1     -11.282   5.832  72.543  1.00  0.00    -0.297 C  
HETATM    2  O   UNL     1     -10.047   5.241  72.153  1.00  0.00    -0.178 OA 
ENDROOT
BRANCH   2   3
HETATM    3  C   UNL     1      -9.620   5.468  70.871  1.00  0.00    -0.170 A  
HETATM    4  C   UNL     1     -10.002   4.668  69.787  1.00  0.00    -0.295 A  
HETATM    5  C   UNL     1      -9.526   4.871  68.503  1.00  0.00    -0.143 A  
HETATM    6  C   UNL     1      -8.666   5.955  68.258  1.00  0.00    -0.112 A  
HETATM    7  C   UNL     1      -8.316   6.803  69.332  1.00  0.00    -0.132 A  
HETATM    8  C   UNL     1      -8.187   6.101  66.938  1.00  0.00    -0.106 A  
HETATM    9  C   UNL     1      -8.574   5.204  65.945  1.00  0.00    -0.128 A  
HETATM   10  C   UNL     1      -8.746   6.539  70.638  1.00  0.00    -0.144 A  
HETATM   11  N   UNL     1      -9.897   4.001  67.551  1.00  0.00    -0.122 NA 
HETATM   12  C   UNL     1      -9.415   4.172  66.305  1.00  0.00    -0.186 A  
BRANCH   8  13
HETATM   13  O   UNL     1      -7.400   7.202  66.677  1.00  0.00    -0.080 OA 
BRANCH  13  14
HETATM   14  C   UNL     1      -7.949   8.461  66.639  1.00  0.00    -0.097 A  
HETATM   15  C   UNL     1      -9.101   8.584  65.866  1.00  0.00    -0.237 A  
HETATM   16  C   UNL     1      -9.790   9.797  65.815  1.00  0.00    -0.360 A  
HETATM   17  C   UNL     1      -9.338  10.902  66.538  1.00  0.00    -0.173 A  
HETATM   18  C   UNL     1      -7.494   9.555  67.369  1.00  0.00    -0.091 A  
HETATM   19  C   UNL     1      -8.170  10.780  67.298  1.00  0.00    -0.121 A  
BRANCH  17  20
HETATM   20  N   UNL     1     -10.009  12.145  66.548  1.00  0.00    -0.209 N  
HETATM   21  H   UNL     1      -9.528  12.935  66.117  1.00  0.00     0.000 HD 
HETATM   22  C   UNL     1     -11.254  12.388  67.086  1.00  0.00    -0.298 C  
HETATM   23  O   UNL     1     -11.971  11.613  67.698  1.00  0.00    -0.618 OA 
BRANCH  22  24
HETATM   24  C   UNL     1     -11.765  13.776  66.871  1.00  0.00    -0.424 C  
HETATM   25  C   UNL     1     -11.450  14.412  65.520  1.00  0.00    -0.340 C  
HETATM   26  C   UNL     1     -12.860  14.032  65.838  1.00  0.00    -0.354 C  
BRANCH  24  27
HETATM   27  C   UNL     1     -11.765  14.609  68.110  1.00  0.00    -0.330 C  
HETATM   28  O   UNL     1     -11.270  15.728  68.067  1.00  0.00    -0.342 OA 
HETATM   29  N   UNL     1     -12.344  14.005  69.209  1.00  0.00    -0.472 N  
HETATM   30  H   UNL     1     -12.654  13.036  69.124  1.00  0.00     0.000 HD 
BRANCH  29  31
HETATM   31  C   UNL     1     -12.526  14.658  70.441  1.00  0.00    -0.352 A  
HETATM   32  C   UNL     1     -11.444  14.977  71.270  1.00  0.00    -0.359 A  
HETATM   33  C   UNL     1     -11.662  15.561  72.518  1.00  0.00    -0.569 A  
HETATM   34  C   UNL     1     -12.964  15.799  72.939  1.00  0.00    -0.500 A  
HETATM   35  C   UNL     1     -14.045  15.518  72.111  1.00  0.00    -0.621 A  
HETATM   36  F   UNL     1     -13.180  16.301  74.161  1.00  0.00    -0.476 F  
HETATM   37  C   UNL     1     -13.825  14.980  70.840  1.00  0.00    -0.269 A  
ENDBRANCH  29  31
ENDBRANCH  24  27
ENDBRANCH  22  24
ENDBRANCH  17  20
ENDBRANCH  13  14
ENDBRANCH   8  13
BRANCH  10  38
HETATM   38  O   UNL     1      -8.277   7.429  71.569  1.00  0.00    -0.102 OA 
HETATM   39  C   UNL     1      -8.404   8.806  71.229  1.00  0.00    -0.176 C  
ENDBRANCH  10  38
ENDBRANCH   2   3
TORSDOF 8
ENDMDL
MODEL       13
REMARK 921   NORMALIZED FREE ENERGY PREDICTED BY IDOCK:   -6.71 KCAL/MOL
REMARK 922        TOTAL FREE ENERGY PREDICTED BY IDOCK:  -11.32 KCAL/MOL
REMARK 923 INTER-LIGAND FREE ENERGY PREDICTED BY IDOCK:   -9.81 KCAL/MOL
REMARK 924 INTRA-LIGAND FREE ENERGY PREDICTED BY IDOCK:   -1.51 KCAL/MOL
REMARK 927      BINDING AFFINITY PREDICTED BY RF-SCORE:    0.00 PKD
ROOT
HETATM    1  C   UNL     1     -10.647  19.085  67.435  1.00  0.00    -0.474 C  
HETATM    2  O   UNL     1     -10.419  18.002  68.330  1.00  0.00    -0.366 OA 
ENDROOT
BRANCH   2   3
HETATM    3  C   UNL     1     -10.724  16.744  67.883  1.00  0.00    -0.347 A  
HETATM    4  C   UNL     1     -10.445  16.309  66.581  1.00  0.00    -0.290 A  
HETATM    5  C   UNL     1     -10.803  15.053  66.119  1.00  0.00    -0.329 A  
HETATM    6  C   UNL     1     -11.424  14.154  67.001  1.00  0.00    -0.370 A  
HETATM    7  C   UNL     1     -11.661  14.560  68.333  1.00  0.00    -0.367 A  
HETATM    8  C   UNL     1     -11.794  12.898  66.473  1.00  0.00    -0.407 A  
HETATM    9  C   UNL     1     -11.533  12.591  65.140  1.00  0.00    -0.369 A  
HETATM   10  C   UNL     1     -11.361  15.858  68.762  1.00  0.00    -0.378 A  
HETATM   11  N   UNL     1     -10.555  14.764  64.832  1.00  0.00    -0.428 NA 
HETATM   12  C   UNL     1     -10.928  13.557  64.366  1.00  0.00    -0.384 A  
BRANCH   8  13
HETATM   13  O   UNL     1     -12.339  11.986  67.352  1.00  0.00    -0.340 OA 
BRANCH  13  14
HETATM   14  C   UNL     1     -11.531  11.235  68.171  1.00  0.00    -0.306 A  
HETATM   15  C   UNL     1     -11.905  11.207  69.512  1.00  0.00    -0.423 A  
HETATM   16  C   UNL     1     -11.205  10.414  70.424  1.00  0.00    -0.399 A  
HETATM   17  C   UNL     1     -10.124   9.637  70.006  1.00  0.00    -0.252 A  
HETATM   18  C   UNL     1     -10.459  10.457  67.743  1.00  0.00    -0.268 A  
HETATM   19  C   UNL     1      -9.740   9.681  68.661  1.00  0.00    -0.162 A  
BRANCH  17  20
HETATM   20  N   UNL     1      -9.397   8.795  70.876  1.00  0.00    -0.194 N  
HETATM   21  H   UNL     1      -9.891   7.992  71.265  1.00  0.00     0.000 HD 
HETATM   22  C   UNL     1      -8.080   8.959  71.247  1.00  0.00    -0.139 C  
HETATM   23  O   UNL     1      -7.326   9.873  70.955  1.00  0.00    -0.328 OA 
BRANCH  22  24
HETATM   24  C   UNL     1      -7.533   7.863  72.104  1.00  0.00    -0.096 C  
HETATM   25  C   UNL     1      -6.013   7.782  72.212  1.00  0.00    -0.040 C  
HETATM   26  C   UNL     1      -6.809   8.202  73.405  1.00  0.00    -0.138 C  
BRANCH  24  27
HETATM   27  C   UNL     1      -8.349   6.613  72.064  1.00  0.00    -0.106 C  
HETATM   28  O   UNL     1      -8.574   6.091  70.979  1.00  0.00    -0.129 OA 
HETATM   29  N   UNL     1      -8.778   6.166  73.299  1.00  0.00    -0.124 N  
HETATM   30  H   UNL     1      -8.578   6.740  74.118  1.00  0.00     0.000 HD 
BRANCH  29  31
HETATM   31  C   UNL     1      -9.475   4.959  73.482  1.00  0.00    -0.132 A  
HETATM   32  C   UNL     1     -10.851   4.862  73.239  1.00  0.00    -0.355 A  
HETATM   33  C   UNL     1     -11.528   3.671  73.498  1.00  0.00    -0.159 A  
HETATM   34  C   UNL     1     -10.830   2.592  74.022  1.00  0.00    -0.177 A  
HETATM   35  C   UNL     1      -9.457   2.665  74.236  1.00  0.00    -0.110 A  
HETATM   36  F   UNL     1     -11.488   1.467  74.331  1.00  0.00    -0.174 F  
HETATM   37  C   UNL     1      -8.769   3.841  73.930  1.00  0.00    -0.089 A  
ENDBRANCH  29  31
ENDBRANCH  24  27
ENDBRANCH  22  24
ENDBRANCH  17  20
ENDBRANCH  13  14
ENDBRANCH   8  13
BRANCH  10  38
HETATM   38  O   UNL     1     -11.700  16.105  70.068  1.00  0.00    -0.307 OA 
HETATM   39  C   UNL     1     -12.415  15.067  70.729  1.00  0.00    -0.352 C  
ENDBRANCH  10  38
ENDBRANCH   2   3
TORSDOF 8
ENDMDL
MODEL       14
REMARK 921   NORMALIZED FREE ENERGY PREDICTED BY IDOCK:   -6.71 KCAL/MOL
REMARK 922        TOTAL FREE ENERGY PREDICTED BY IDOCK:  -11.32 KCAL/MOL
REMARK 923 INTER-LIGAND FREE ENERGY PREDICTED BY IDOCK:  -10.96 KCAL/MOL
REMARK 924 INTRA-LIGAND FREE ENERGY PREDICTED BY IDOCK:   -0.35 KCAL/MOL
REMARK 927      BINDING AFFINITY PREDICTED BY RF-SCORE:    0.00 PKD
ROOT
HETATM    1  C   UNL     1      -6.932   1.904  71.319  1.00  0.00    -0.031 C  
HETATM    2  O   UNL     1      -7.541   2.843  72.199  1.00  0.00    -0.050 OA 
ENDROOT
BRANCH   2   3
HETATM    3  C   UNL     1      -8.518   3.649  71.676  1.00  0.00    -0.084 A  
HETATM    4  C   UNL     1      -8.662   3.879  70.302  1.00  0.00    -0.123 A  
HETATM    5  C   UNL     1      -9.620   4.736  69.784  1.00  0.00    -0.179 A  
HETATM    6  C   UNL     1     -10.521   5.362  70.661  1.00  0.00    -0.329 A  
HETATM    7  C   UNL     1     -10.421   5.096  72.045  1.00  0.00    -0.278 A  
HETATM    8  C   UNL     1     -11.458   6.247  70.085  1.00  0.00    -0.382 A  
HETATM    9  C   UNL     1     -11.470   6.460  68.709  1.00  0.00    -0.087 A  
HETATM   10  C   UNL     1      -9.401   4.286  72.558  1.00  0.00    -0.120 A  
HETATM   11  N   UNL     1      -9.624   4.943  68.458  1.00  0.00    -0.143 NA 
HETATM   12  C   UNL     1     -10.531   5.798  67.948  1.00  0.00    -0.228 A  
BRANCH   8  13
HETATM   13  O   UNL     1     -12.389   6.809  70.932  1.00  0.00    -0.381 OA 
BRANCH  13  14
HETATM   14  C   UNL     1     -12.416   8.167  71.139  1.00  0.00    -0.182 A  
HETATM   15  C   UNL     1     -11.338   8.871  70.608  1.00  0.00    -0.299 A  
HETATM   16  C   UNL     1     -11.296  10.264  70.688  1.00  0.00    -0.431 A  
HETATM   17  C   UNL     1     -12.333  10.972  71.298  1.00  0.00    -0.321 A  
HETATM   18  C   UNL     1     -13.459   8.864  71.742  1.00  0.00    -0.447 A  
HETATM   19  C   UNL     1     -13.406  10.261  71.846  1.00  0.00    -0.487 A  
BRANCH  17  20
HETATM   20  N   UNL     1     -12.360  12.382  71.384  1.00  0.00    -0.190 N  
HETATM   21  H   UNL     1     -11.599  12.889  70.931  1.00  0.00     0.000 HD 
HETATM   22  C   UNL     1     -13.321  13.135  72.023  1.00  0.00    -0.493 C  
HETATM   23  O   UNL     1     -14.273  12.739  72.675  1.00  0.00    -0.420 OA 
BRANCH  22  24
HETATM   24  C   UNL     1     -13.154  14.613  71.874  1.00  0.00    -0.414 C  
HETATM   25  C   UNL     1     -14.409  15.459  72.069  1.00  0.00    -0.653 C  
HETATM   26  C   UNL     1     -13.318  15.524  73.089  1.00  0.00    -0.632 C  
BRANCH  24  27
HETATM   27  C   UNL     1     -12.144  14.997  70.844  1.00  0.00    -0.324 C  
HETATM   28  O   UNL     1     -10.999  15.237  71.203  1.00  0.00    -0.325 OA 
HETATM   29  N   UNL     1     -12.630  15.043  69.552  1.00  0.00    -0.595 N  
HETATM   30  H   UNL     1     -13.628  14.889  69.403  1.00  0.00     0.000 HD 
BRANCH  29  31
HETATM   31  C   UNL     1     -11.817  15.290  68.432  1.00  0.00    -0.260 A  
HETATM   32  C   UNL     1     -11.082  16.476  68.304  1.00  0.00    -0.321 A  
HETATM   33  C   UNL     1     -10.341  16.724  67.149  1.00  0.00    -0.297 A  
HETATM   34  C   UNL     1     -10.360  15.796  66.117  1.00  0.00    -0.320 A  
HETATM   35  C   UNL     1     -11.058  14.599  66.245  1.00  0.00    -0.336 A  
HETATM   36  F   UNL     1      -9.701  16.059  64.982  1.00  0.00    -0.140 F  
HETATM   37  C   UNL     1     -11.760  14.327  67.421  1.00  0.00    -0.422 A  
ENDBRANCH  29  31
ENDBRANCH  24  27
ENDBRANCH  22  24
ENDBRANCH  17  20
ENDBRANCH  13  14
ENDBRANCH   8  13
BRANCH  10  38
HETATM   38  O   UNL     1      -9.417   4.171  73.925  1.00  0.00    -0.098 OA 
HETATM   39  C   UNL     1     -10.134   3.056  74.444  1.00  0.00    -0.141 C  
ENDBRANCH  10  38
ENDBRANCH   2   3
TORSDOF 8
ENDMDL
MODEL       15
REMARK 921   NORMALIZED FREE ENERGY PREDICTED BY IDOCK:   -6.66 KCAL/MOL
REMARK 922        TOTAL FREE ENERGY PREDICTED BY IDOCK:  -11.24 KCAL/MOL
REMARK 923 INTER-LIGAND FREE ENERGY PREDICTED BY IDOCK:  -10.02 KCAL/MOL
REMARK 924 INTRA-LIGAND FREE ENERGY PREDICTED BY IDOCK:   -1.22 KCAL/MOL
REMARK 927      BINDING AFFINITY PREDICTED BY RF-SCORE:    0.00 PKD
ROOT
HETATM    1  C   UNL     1     -14.405   7.504  71.320  1.00  0.00    -0.287 C  
HETATM    2  O   UNL     1     -13.195   7.286  72.039  1.00  0.00    -0.241 OA 
ENDROOT
BRANCH   2   3
HETATM    3  C   UNL     1     -12.026   7.324  71.326  1.00  0.00    -0.324 A  
HETATM    4  C   UNL     1     -11.520   6.217  70.633  1.00  0.00    -0.397 A  
HETATM    5  C   UNL     1     -10.311   6.247  69.957  1.00  0.00    -0.199 A  
HETATM    6  C   UNL     1      -9.583   7.447  69.914  1.00  0.00    -0.163 A  
HETATM    7  C   UNL     1     -10.109   8.587  70.562  1.00  0.00    -0.218 A  
HETATM    8  C   UNL     1      -8.345   7.416  69.237  1.00  0.00    -0.132 A  
HETATM    9  C   UNL     1      -7.899   6.240  68.640  1.00  0.00    -0.102 A  
HETATM   10  C   UNL     1     -11.295   8.519  71.304  1.00  0.00    -0.271 A  
HETATM   11  N   UNL     1      -9.882   5.109  69.389  1.00  0.00    -0.180 NA 
HETATM   12  C   UNL     1      -8.694   5.120  68.756  1.00  0.00    -0.086 A  
BRANCH   8  13
HETATM   13  O   UNL     1      -7.661   8.608  69.131  1.00  0.00    -0.085 OA 
BRANCH  13  14
HETATM   14  C   UNL     1      -8.159   9.636  68.368  1.00  0.00    -0.104 A  
HETATM   15  C   UNL     1      -8.783   9.250  67.184  1.00  0.00    -0.134 A  
HETATM   16  C   UNL     1      -9.395  10.201  66.366  1.00  0.00    -0.209 A  
HETATM   17  C   UNL     1      -9.395  11.550  66.721  1.00  0.00    -0.181 A  
HETATM   18  C   UNL     1      -8.160  10.979  68.735  1.00  0.00    -0.145 A  
HETATM   19  C   UNL     1      -8.752  11.937  67.902  1.00  0.00    -0.167 A  
BRANCH  17  20
HETATM   20  N   UNL     1     -10.023  12.552  65.949  1.00  0.00    -0.256 N  
HETATM   21  H   UNL     1      -9.698  12.670  64.990  1.00  0.00     0.000 HD 
HETATM   22  C   UNL     1     -11.034  13.386  66.375  1.00  0.00    -0.289 C  
HETATM   23  O   UNL     1     -11.527  13.460  67.488  1.00  0.00    -0.289 OA 
BRANCH  22  24
HETATM   24  C   UNL     1     -11.581  14.291  65.318  1.00  0.00    -0.348 C  
HETATM   25  C   UNL     1     -11.928  13.640  63.982  1.00  0.00    -0.478 C  
HETATM   26  C   UNL     1     -13.030  14.138  64.860  1.00  0.00    -0.026 C  
BRANCH  24  27
HETATM   27  C   UNL     1     -11.001  15.666  65.353  1.00  0.00    -0.333 C  
HETATM   28  O   UNL     1     -11.062  16.357  64.344  1.00  0.00    -0.825 OA 
HETATM   29  N   UNL     1     -10.436  16.021  66.562  1.00  0.00    -0.302 N  
HETATM   30  H   UNL     1     -10.388  15.318  67.301  1.00  0.00     0.000 HD 
BRANCH  29  31
HETATM   31  C   UNL     1      -9.923  17.303  66.826  1.00  0.00    -0.301 A  
HETATM   32  C   UNL     1     -10.731  18.325  67.340  1.00  0.00    -0.377 A  
HETATM   33  C   UNL     1     -10.211  19.606  67.525  1.00  0.00    -0.562 A  
HETATM   34  C   UNL     1      -8.894  19.863  67.170  1.00  0.00    -0.330 A  
HETATM   35  C   UNL     1      -8.072  18.849  66.690  1.00  0.00    -0.290 A  
HETATM   36  F   UNL     1      -8.410  21.106  67.287  1.00  0.00    -0.351 F  
HETATM   37  C   UNL     1      -8.577  17.553  66.553  1.00  0.00    -0.293 A  
ENDBRANCH  29  31
ENDBRANCH  24  27
ENDBRANCH  22  24
ENDBRANCH  17  20
ENDBRANCH  13  14
ENDBRANCH   8  13
BRANCH  10  38
HETATM   38  O   UNL     1     -11.640   9.700  71.911  1.00  0.00    -0.339 OA 
HETATM   39  C   UNL     1     -12.286  10.658  71.080  1.00  0.00    -0.403 C  
ENDBRANCH  10  38
ENDBRANCH   2   3
TORSDOF 8
ENDMDL
MODEL       16
REMARK 921   NORMALIZED FREE ENERGY PREDICTED BY IDOCK:   -6.62 KCAL/MOL
REMARK 922        TOTAL FREE ENERGY PREDICTED BY IDOCK:  -11.19 KCAL/MOL
REMARK 923 INTER-LIGAND FREE ENERGY PREDICTED BY IDOCK:   -9.59 KCAL/MOL
REMARK 924 INTRA-LIGAND FREE ENERGY PREDICTED BY IDOCK:   -1.60 KCAL/MOL
REMARK 927      BINDING AFFINITY PREDICTED BY RF-SCORE:    0.00 PKD
ROOT
HETATM    1  C   UNL     1     -10.504   4.545  74.561  1.00  0.00    -0.253 C  
HETATM    2  O   UNL     1     -11.121   5.273  73.505  1.00  0.00    -0.302 OA 
ENDROOT
BRANCH   2   3
HETATM    3  C   UNL     1     -10.428   5.378  72.327  1.00  0.00    -0.219 A  
HETATM    4  C   UNL     1     -10.332   4.331  71.403  1.00  0.00    -0.031 A  
HETATM    5  C   UNL     1      -9.587   4.426  70.239  1.00  0.00    -0.193 A  
HETATM    6  C   UNL     1      -8.942   5.638  69.940  1.00  0.00    -0.142 A  
HETATM    7  C   UNL     1      -9.076   6.720  70.837  1.00  0.00    -0.153 A  
HETATM    8  C   UNL     1      -8.173   5.673  68.756  1.00  0.00    -0.103 A  
HETATM    9  C   UNL     1      -8.086   4.548  67.940  1.00  0.00    -0.092 A  
HETATM   10  C   UNL     1      -9.771   6.583  72.045  1.00  0.00    -0.149 A  
HETATM   11  N   UNL     1      -9.501   3.338  69.458  1.00  0.00    -0.162 NA 
HETATM   12  C   UNL     1      -8.754   3.412  68.340  1.00  0.00    -0.102 A  
BRANCH   8  13
HETATM   13  O   UNL     1      -7.596   6.880  68.422  1.00  0.00    -0.105 OA 
BRANCH  13  14
HETATM   14  C   UNL     1      -8.312   7.832  67.739  1.00  0.00    -0.125 A  
HETATM   15  C   UNL     1      -7.801   9.126  67.809  1.00  0.00    -0.100 A  
HETATM   16  C   UNL     1      -8.400  10.162  67.091  1.00  0.00    -0.125 A  
HETATM   17  C   UNL     1      -9.517   9.919  66.291  1.00  0.00    -0.193 A  
HETATM   18  C   UNL     1      -9.421   7.578  66.937  1.00  0.00    -0.219 A  
HETATM   19  C   UNL     1     -10.039   8.622  66.236  1.00  0.00    -0.215 A  
BRANCH  17  20
HETATM   20  N   UNL     1     -10.148  10.920  65.520  1.00  0.00    -0.254 N  
HETATM   21  H   UNL     1      -9.757  11.110  64.597  1.00  0.00     0.000 HD 
HETATM   22  C   UNL     1     -11.243  11.664  65.901  1.00  0.00    -0.238 C  
HETATM   23  O   UNL     1     -11.825  11.648  66.973  1.00  0.00    -0.591 OA 
BRANCH  22  24
HETATM   24  C   UNL     1     -11.764  12.589  64.848  1.00  0.00    -0.409 C  
HETATM   25  C   UNL     1     -11.324  12.301  63.415  1.00  0.00    -0.508 C  
HETATM   26  C   UNL     1     -12.750  12.074  63.802  1.00  0.00    -0.516 C  
BRANCH  24  27
HETATM   27  C   UNL     1     -11.915  13.999  65.316  1.00  0.00    -0.379 C  
HETATM   28  O   UNL     1     -13.000  14.551  65.180  1.00  0.00    -0.543 OA 
HETATM   29  N   UNL     1     -10.774  14.546  65.870  1.00  0.00    -0.295 N  
HETATM   30  H   UNL     1      -9.915  13.996  65.854  1.00  0.00     0.000 HD 
BRANCH  29  31
HETATM   31  C   UNL     1     -10.739  15.824  66.454  1.00  0.00    -0.277 A  
HETATM   32  C   UNL     1     -10.396  16.962  65.712  1.00  0.00    -0.298 A  
HETATM   33  C   UNL     1     -10.299  18.206  66.335  1.00  0.00    -0.404 A  
HETATM   34  C   UNL     1     -10.522  18.300  67.703  1.00  0.00    -0.411 A  
HETATM   35  C   UNL     1     -10.896  17.184  68.444  1.00  0.00    -0.309 A  
HETATM   36  F   UNL     1     -10.368  19.481  68.315  1.00  0.00    -0.458 F  
HETATM   37  C   UNL     1     -11.042  15.947  67.812  1.00  0.00    -0.288 A  
ENDBRANCH  29  31
ENDBRANCH  24  27
ENDBRANCH  22  24
ENDBRANCH  17  20
ENDBRANCH  13  14
ENDBRANCH   8  13
BRANCH  10  38
HETATM   38  O   UNL     1      -9.764   7.712  72.823  1.00  0.00    -0.168 OA 
HETATM   39  C   UNL     1      -8.584   7.929  73.590  1.00  0.00    -0.258 C  
ENDBRANCH  10  38
ENDBRANCH   2   3
TORSDOF 8
ENDMDL
MODEL       17
REMARK 921   NORMALIZED FREE ENERGY PREDICTED BY IDOCK:   -6.62 KCAL/MOL
REMARK 922        TOTAL FREE ENERGY PREDICTED BY IDOCK:  -11.19 KCAL/MOL
REMARK 923 INTER-LIGAND FREE ENERGY PREDICTED BY IDOCK:   -9.82 KCAL/MOL
REMARK 924 INTRA-LIGAND FREE ENERGY PREDICTED BY IDOCK:   -1.37 KCAL/MOL
REMARK 927      BINDING AFFINITY PREDICTED BY RF-SCORE:    0.00 PKD
ROOT
HETATM    1  C   UNL     1      -9.850   4.611  74.501  1.00  0.00    -0.182 C  
HETATM    2  O   UNL     1     -10.518   5.231  73.408  1.00  0.00    -0.193 OA 
ENDROOT
BRANCH   2   3
HETATM    3  C   UNL     1      -9.789   5.442  72.266  1.00  0.00    -0.163 A  
HETATM    4  C   UNL     1      -8.415   5.182  72.180  1.00  0.00    -0.125 A  
HETATM    5  C   UNL     1      -7.674   5.446  71.040  1.00  0.00    -0.098 A  
HETATM    6  C   UNL     1      -8.329   5.945  69.902  1.00  0.00    -0.121 A  
HETATM    7  C   UNL     1      -9.724   6.161  69.958  1.00  0.00    -0.195 A  
HETATM    8  C   UNL     1      -7.524   6.224  68.776  1.00  0.00    -0.088 A  
HETATM    9  C   UNL     1      -6.151   5.996  68.819  1.00  0.00    -0.031 A  
HETATM   10  C   UNL     1     -10.445   5.959  71.141  1.00  0.00    -0.233 A  
HETATM   11  N   UNL     1      -6.351   5.229  71.088  1.00  0.00    -0.029 NA 
HETATM   12  C   UNL     1      -5.617   5.513  69.995  1.00  0.00    -0.008 A  
BRANCH   8  13
HETATM   13  O   UNL     1      -8.171   6.648  67.635  1.00  0.00    -0.120 OA 
BRANCH  13  14
HETATM   14  C   UNL     1      -8.562   7.957  67.498  1.00  0.00    -0.122 A  
HETATM   15  C   UNL     1      -9.610   8.174  66.606  1.00  0.00    -0.295 A  
HETATM   16  C   UNL     1     -10.145   9.454  66.444  1.00  0.00    -0.332 A  
HETATM   17  C   UNL     1      -9.640  10.533  67.171  1.00  0.00    -0.168 A  
HETATM   18  C   UNL     1      -8.058   9.025  68.234  1.00  0.00    -0.109 A  
HETATM   19  C   UNL     1      -8.576  10.314  68.052  1.00  0.00    -0.118 A  
BRANCH  17  20
HETATM   20  N   UNL     1     -10.159  11.842  67.070  1.00  0.00    -0.204 N  
HETATM   21  H   UNL     1      -9.545  12.555  66.676  1.00  0.00     0.000 HD 
HETATM   22  C   UNL     1     -11.419  12.245  67.454  1.00  0.00    -0.352 C  
HETATM   23  O   UNL     1     -12.285  11.580  68.000  1.00  0.00    -0.582 OA 
BRANCH  22  24
HETATM   24  C   UNL     1     -11.739  13.672  67.144  1.00  0.00    -0.418 C  
HETATM   25  C   UNL     1     -11.113  14.246  65.876  1.00  0.00    -0.310 C  
HETATM   26  C   UNL     1     -12.589  14.013  65.922  1.00  0.00    -0.484 C  
BRANCH  24  27
HETATM   27  C   UNL     1     -11.888  14.526  68.359  1.00  0.00    -0.316 C  
HETATM   28  O   UNL     1     -11.691  15.730  68.260  1.00  0.00    -0.345 OA 
HETATM   29  N   UNL     1     -12.244  13.841  69.504  1.00  0.00    -0.325 N  
HETATM   30  H   UNL     1     -12.305  12.823  69.461  1.00  0.00     0.000 HD 
BRANCH  29  31
HETATM   31  C   UNL     1     -12.525  14.476  70.726  1.00  0.00    -0.351 A  
HETATM   32  C   UNL     1     -13.839  14.734  71.135  1.00  0.00    -0.388 A  
HETATM   33  C   UNL     1     -14.084  15.429  72.319  1.00  0.00    -0.660 A  
HETATM   34  C   UNL     1     -13.012  15.884  73.074  1.00  0.00    -0.530 A  
HETATM   35  C   UNL     1     -11.702  15.605  72.697  1.00  0.00    -0.555 A  
HETATM   36  F   UNL     1     -13.242  16.606  74.178  1.00  0.00    -0.324 F  
HETATM   37  C   UNL     1     -11.456  14.865  71.538  1.00  0.00    -0.307 A  
ENDBRANCH  29  31
ENDBRANCH  24  27
ENDBRANCH  22  24
ENDBRANCH  17  20
ENDBRANCH  13  14
ENDBRANCH   8  13
BRANCH  10  38
HETATM   38  O   UNL     1     -11.778   6.261  71.039  1.00  0.00    -0.319 OA 
HETATM   39  C   UNL     1     -12.136   7.601  71.364  1.00  0.00    -0.316 C  
ENDBRANCH  10  38
ENDBRANCH   2   3
TORSDOF 8
ENDMDL
MODEL       18
REMARK 921   NORMALIZED FREE ENERGY PREDICTED BY IDOCK:   -6.62 KCAL/MOL
REMARK 922        TOTAL FREE ENERGY PREDICTED BY IDOCK:  -11.19 KCAL/MOL
REMARK 923 INTER-LIGAND FREE ENERGY PREDICTED BY IDOCK:   -9.68 KCAL/MOL
REMARK 924 INTRA-LIGAND FREE ENERGY PREDICTED BY IDOCK:   -1.50 KCAL/MOL
REMARK 927      BINDING AFFINITY PREDICTED BY RF-SCORE:    0.00 PKD
ROOT
HETATM    1  C   UNL     1      -9.128   1.792  71.160  1.00  0.00    -0.079 C  
HETATM    2  O   UNL     1      -9.300   2.690  70.069  1.00  0.00    -0.128 OA 
ENDROOT
BRANCH   2   3
HETATM    3  C   UNL     1      -9.348   4.028  70.359  1.00  0.00    -0.160 A  
HETATM    4  C   UNL     1     -10.179   4.563  71.351  1.00  0.00    -0.183 A  
HETATM    5  C   UNL     1     -10.261   5.923  71.604  1.00  0.00    -0.202 A  
HETATM    6  C   UNL     1      -9.442   6.802  70.878  1.00  0.00    -0.159 A  
HETATM    7  C   UNL     1      -8.559   6.270  69.912  1.00  0.00    -0.134 A  
HETATM    8  C   UNL     1      -9.584   8.180  71.154  1.00  0.00    -0.160 A  
HETATM    9  C   UNL     1     -10.495   8.614  72.114  1.00  0.00    -0.411 A  
HETATM   10  C   UNL     1      -8.542   4.902  69.617  1.00  0.00    -0.083 A  
HETATM   11  N   UNL     1     -11.144   6.337  72.526  1.00  0.00    -0.259 NA 
HETATM   12  C   UNL     1     -11.253   7.659  72.757  1.00  0.00    -0.377 A  
BRANCH   8  13
HETATM   13  O   UNL     1      -8.733   9.041  70.495  1.00  0.00    -0.166 OA 
BRANCH  13  14
HETATM   14  C   UNL     1      -9.219   9.927  69.564  1.00  0.00    -0.223 A  
HETATM   15  C   UNL     1      -8.343  10.947  69.200  1.00  0.00    -0.077 A  
HETATM   16  C   UNL     1      -8.697  11.860  68.206  1.00  0.00    -0.170 A  
HETATM   17  C   UNL     1      -9.930  11.765  67.559  1.00  0.00    -0.192 A  
HETATM   18  C   UNL     1     -10.447   9.818  68.919  1.00  0.00    -0.233 A  
HETATM   19  C   UNL     1     -10.815  10.749  67.939  1.00  0.00    -0.313 A  
BRANCH  17  20
HETATM   20  N   UNL     1     -10.331  12.641  66.527  1.00  0.00    -0.239 N  
HETATM   21  H   UNL     1     -10.039  12.405  65.578  1.00  0.00     0.000 HD 
HETATM   22  C   UNL     1     -11.081  13.787  66.684  1.00  0.00    -0.311 C  
HETATM   23  O   UNL     1     -11.479  14.286  67.724  1.00  0.00    -0.294 OA 
BRANCH  22  24
HETATM   24  C   UNL     1     -11.443  14.474  65.407  1.00  0.00    -0.348 C  
HETATM   25  C   UNL     1     -11.506  13.597  64.160  1.00  0.00    -0.359 C  
HETATM   26  C   UNL     1     -12.771  14.159  64.723  1.00  0.00    -0.221 C  
BRANCH  24  27
HETATM   27  C   UNL     1     -10.923  15.871  65.315  1.00  0.00    -0.324 C  
HETATM   28  O   UNL     1     -11.187  16.533  64.320  1.00  0.00    -0.992 OA 
HETATM   29  N   UNL     1     -10.174  16.278  66.402  1.00  0.00    -0.300 N  
HETATM   30  H   UNL     1      -9.971  15.597  67.134  1.00  0.00     0.000 HD 
BRANCH  29  31
HETATM   31  C   UNL     1      -9.678  17.585  66.549  1.00  0.00    -0.295 A  
HETATM   32  C   UNL     1      -8.355  17.910  66.225  1.00  0.00    -0.230 A  
HETATM   33  C   UNL     1      -7.871  19.199  66.449  1.00  0.00    -0.296 A  
HETATM   34  C   UNL     1      -8.708  20.149  67.019  1.00  0.00    -0.337 A  
HETATM   35  C   UNL     1     -10.033  19.849  67.314  1.00  0.00    -0.556 A  
HETATM   36  F   UNL     1      -8.228  21.369  67.294  1.00  0.00    -0.262 F  
HETATM   37  C   UNL     1     -10.533  18.573  67.044  1.00  0.00    -0.440 A  
ENDBRANCH  29  31
ENDBRANCH  24  27
ENDBRANCH  22  24
ENDBRANCH  17  20
ENDBRANCH  13  14
ENDBRANCH   8  13
BRANCH  10  38
HETATM   38  O   UNL     1      -7.665   4.558  68.621  1.00  0.00    -0.070 OA 
HETATM   39  C   UNL     1      -8.104   4.815  67.291  1.00  0.00    -0.102 C  
ENDBRANCH  10  38
ENDBRANCH   2   3
TORSDOF 8
ENDMDL
MODEL       19
REMARK 921   NORMALIZED FREE ENERGY PREDICTED BY IDOCK:   -6.59 KCAL/MOL
REMARK 922        TOTAL FREE ENERGY PREDICTED BY IDOCK:  -11.14 KCAL/MOL
REMARK 923 INTER-LIGAND FREE ENERGY PREDICTED BY IDOCK:   -9.68 KCAL/MOL
REMARK 924 INTRA-LIGAND FREE ENERGY PREDICTED BY IDOCK:   -1.45 KCAL/MOL
REMARK 927      BINDING AFFINITY PREDICTED BY RF-SCORE:    0.00 PKD
ROOT
HETATM    1  C   UNL     1      -8.942   2.730  72.014  1.00  0.00    -0.084 C  
HETATM    2  O   UNL     1      -8.956   4.150  71.928  1.00  0.00    -0.114 OA 
ENDROOT
BRANCH   2   3
HETATM    3  C   UNL     1      -9.043   4.702  70.677  1.00  0.00    -0.128 A  
HETATM    4  C   UNL     1      -8.062   4.519  69.694  1.00  0.00    -0.060 A  
HETATM    5  C   UNL     1      -8.131   5.122  68.448  1.00  0.00    -0.086 A  
HETATM    6  C   UNL     1      -9.251   5.907  68.132  1.00  0.00    -0.116 A  
HETATM    7  C   UNL     1     -10.274   6.056  69.095  1.00  0.00    -0.258 A  
HETATM    8  C   UNL     1      -9.258   6.522  66.861  1.00  0.00    -0.140 A  
HETATM    9  C   UNL     1      -8.195   6.332  65.981  1.00  0.00    -0.125 A  
HETATM   10  C   UNL     1     -10.154   5.501  70.375  1.00  0.00    -0.230 A  
HETATM   11  N   UNL     1      -7.101   4.940  67.606  1.00  0.00    -0.061 NA 
HETATM   12  C   UNL     1      -7.144   5.548  66.405  1.00  0.00    -0.069 A  
BRANCH   8  13
HETATM   13  O   UNL     1     -10.387   7.236  66.518  1.00  0.00    -0.179 OA 
BRANCH  13  14
HETATM   14  C   UNL     1     -10.370   8.610  66.513  1.00  0.00    -0.166 A  
HETATM   15  C   UNL     1     -10.862   9.215  67.667  1.00  0.00    -0.160 A  
HETATM   16  C   UNL     1     -10.823  10.603  67.808  1.00  0.00    -0.338 A  
HETATM   17  C   UNL     1     -10.290  11.405  66.798  1.00  0.00    -0.234 A  
HETATM   18  C   UNL     1      -9.830   9.400  65.503  1.00  0.00    -0.231 A  
HETATM   19  C   UNL     1      -9.814  10.795  65.632  1.00  0.00    -0.299 A  
BRANCH  17  20
HETATM   20  N   UNL     1     -10.198  12.811  66.896  1.00  0.00    -0.234 N  
HETATM   21  H   UNL     1      -9.309  13.197  67.214  1.00  0.00     0.000 HD 
HETATM   22  C   UNL     1     -11.200  13.710  66.601  1.00  0.00    -0.313 C  
HETATM   23  O   UNL     1     -12.349  13.469  66.267  1.00  0.00    -0.417 OA 
BRANCH  22  24
HETATM   24  C   UNL     1     -10.798  15.146  66.700  1.00  0.00    -0.318 C  
HETATM   25  C   UNL     1      -9.496  15.534  66.006  1.00  0.00    -0.387 C  
HETATM   26  C   UNL     1     -10.794  16.024  65.451  1.00  0.00    -0.340 C  
BRANCH  24  27
HETATM   27  C   UNL     1     -11.173  15.780  67.999  1.00  0.00    -0.338 C  
HETATM   28  O   UNL     1     -11.032  16.990  68.126  1.00  0.00    -0.367 OA 
HETATM   29  N   UNL     1     -11.653  14.901  68.950  1.00  0.00    -0.299 N  
HETATM   30  H   UNL     1     -11.649  13.904  68.735  1.00  0.00     0.000 HD 
BRANCH  29  31
HETATM   31  C   UNL     1     -12.147  15.314  70.200  1.00  0.00    -0.358 A  
HETATM   32  C   UNL     1     -11.303  15.842  71.185  1.00  0.00    -0.435 A  
HETATM   33  C   UNL     1     -11.810  16.176  72.441  1.00  0.00    -0.637 A  
HETATM   34  C   UNL     1     -13.154  15.955  72.712  1.00  0.00    -0.491 A  
HETATM   35  C   UNL     1     -14.009  15.462  71.732  1.00  0.00    -0.626 A  
HETATM   36  F   UNL     1     -13.631  16.215  73.936  1.00  0.00    -0.442 F  
HETATM   37  C   UNL     1     -13.513  15.175  70.458  1.00  0.00    -0.122 A  
ENDBRANCH  29  31
ENDBRANCH  24  27
ENDBRANCH  22  24
ENDBRANCH  17  20
ENDBRANCH  13  14
ENDBRANCH   8  13
BRANCH  10  38
HETATM   38  O   UNL     1     -11.209   5.780  71.204  1.00  0.00    -0.241 OA 
HETATM   39  C   UNL     1     -11.135   7.016  71.907  1.00  0.00    -0.242 C  
ENDBRANCH  10  38
ENDBRANCH   2   3
TORSDOF 8
ENDMDL
MODEL       20
REMARK 921   NORMALIZED FREE ENERGY PREDICTED BY IDOCK:   -6.57 KCAL/MOL
REMARK 922        TOTAL FREE ENERGY PREDICTED BY IDOCK:  -11.11 KCAL/MOL
REMARK 923 INTER-LIGAND FREE ENERGY PREDICTED BY IDOCK:   -9.71 KCAL/MOL
REMARK 924 INTRA-LIGAND FREE ENERGY PREDICTED BY IDOCK:   -1.39 KCAL/MOL
REMARK 927      BINDING AFFINITY PREDICTED BY RF-SCORE:    0.00 PKD
ROOT
HETATM    1  C   UNL     1     -11.369   4.880  73.168  1.00  0.00    -0.315 C  
HETATM    2  O   UNL     1     -11.720   5.932  72.276  1.00  0.00    -0.307 OA 
ENDROOT
BRANCH   2   3
HETATM    3  C   UNL     1     -10.840   6.216  71.265  1.00  0.00    -0.266 A  
HETATM    4  C   UNL     1     -10.461   5.278  70.297  1.00  0.00    -0.332 A  
HETATM    5  C   UNL     1      -9.531   5.556  69.309  1.00  0.00    -0.129 A  
HETATM    6  C   UNL     1      -8.980   6.846  69.235  1.00  0.00    -0.137 A  
HETATM    7  C   UNL     1      -9.394   7.819  70.172  1.00  0.00    -0.153 A  
HETATM    8  C   UNL     1      -8.016   7.070  68.228  1.00  0.00    -0.123 A  
HETATM    9  C   UNL     1      -7.657   6.043  67.358  1.00  0.00    -0.093 A  
HETATM   10  C   UNL     1     -10.279   7.499  71.210  1.00  0.00    -0.188 A  
HETATM   11  N   UNL     1      -9.184   4.563  68.476  1.00  0.00    -0.124 NA 
HETATM   12  C   UNL     1      -8.257   4.815  67.532  1.00  0.00    -0.105 A  
BRANCH   8  13
HETATM   13  O   UNL     1      -7.524   8.352  68.107  1.00  0.00    -0.093 OA 
BRANCH  13  14
HETATM   14  C   UNL     1      -8.268   9.331  67.494  1.00  0.00    -0.114 A  
HETATM   15  C   UNL     1      -7.825  10.634  67.705  1.00  0.00    -0.108 A  
HETATM   16  C   UNL     1      -8.455  11.706  67.070  1.00  0.00    -0.168 A  
HETATM   17  C   UNL     1      -9.535  11.488  66.212  1.00  0.00    -0.217 A  
HETATM   18  C   UNL     1      -9.339   9.103  66.634  1.00  0.00    -0.228 A  
HETATM   19  C   UNL     1      -9.988  10.180  66.016  1.00  0.00    -0.322 A  
BRANCH  17  20
HETATM   20  N   UNL     1     -10.193  12.529  65.520  1.00  0.00    -0.273 N  
HETATM   21  H   UNL     1     -10.079  12.556  64.506  1.00  0.00     0.000 HD 
HETATM   22  C   UNL     1     -10.974  13.511  66.089  1.00  0.00    -0.284 C  
HETATM   23  O   UNL     1     -11.192  13.704  67.274  1.00  0.00    -0.292 OA 
BRANCH  22  24
HETATM   24  C   UNL     1     -11.630  14.430  65.109  1.00  0.00    -0.361 C  
HETATM   25  C   UNL     1     -12.153  13.791  63.826  1.00  0.00    -0.385 C  
HETATM   26  C   UNL     1     -13.127  14.309  64.835  1.00  0.00     0.242 C  
BRANCH  24  27
HETATM   27  C   UNL     1     -11.021  15.793  65.073  1.00  0.00    -0.417 C  
HETATM   28  O   UNL     1     -11.244  16.512  64.107  1.00  0.00    -1.004 OA 
HETATM   29  N   UNL     1     -10.244  16.105  66.171  1.00  0.00    -0.318 N  
HETATM   30  H   UNL     1     -10.083  15.382  66.873  1.00  0.00     0.000 HD 
BRANCH  29  31
HETATM   31  C   UNL     1      -9.664  17.370  66.370  1.00  0.00    -0.290 A  
HETATM   32  C   UNL     1      -8.294  17.589  66.174  1.00  0.00    -0.200 A  
HETATM   33  C   UNL     1      -7.735  18.837  66.448  1.00  0.00    -0.289 A  
HETATM   34  C   UNL     1      -8.545  19.851  66.941  1.00  0.00    -0.332 A  
HETATM   35  C   UNL     1      -9.912  19.657  67.109  1.00  0.00    -0.507 A  
HETATM   36  F   UNL     1      -8.001  21.031  67.265  1.00  0.00    -0.385 F  
HETATM   37  C   UNL     1     -10.482  18.423  66.787  1.00  0.00    -0.415 A  
ENDBRANCH  29  31
ENDBRANCH  24  27
ENDBRANCH  22  24
ENDBRANCH  17  20
ENDBRANCH  13  14
ENDBRANCH   8  13
BRANCH  10  38
HETATM   38  O   UNL     1     -10.538   8.543  72.060  1.00  0.00    -0.284 OA 
HETATM   39  C   UNL     1     -11.541   9.458  71.631  1.00  0.00    -0.396 C  
ENDBRANCH  10  38
ENDBRANCH   2   3
TORSDOF 8
ENDMDL
MODEL       21
REMARK 921   NORMALIZED FREE ENERGY PREDICTED BY IDOCK:   -6.55 KCAL/MOL
REMARK 922        TOTAL FREE ENERGY PREDICTED BY IDOCK:  -11.09 KCAL/MOL
REMARK 923 INTER-LIGAND FREE ENERGY PREDICTED BY IDOCK:   -9.59 KCAL/MOL
REMARK 924 INTRA-LIGAND FREE ENERGY PREDICTED BY IDOCK:   -1.50 KCAL/MOL
REMARK 927      BINDING AFFINITY PREDICTED BY RF-SCORE:    0.00 PKD
ROOT
HETATM    1  C   UNL     1     -10.058   5.927  74.546  1.00  0.00    -0.300 C  
HETATM    2  O   UNL     1     -10.492   6.922  73.626  1.00  0.00    -0.317 OA 
ENDROOT
BRANCH   2   3
HETATM    3  C   UNL     1      -9.578   7.365  72.705  1.00  0.00    -0.165 A  
HETATM    4  C   UNL     1      -8.343   7.920  73.063  1.00  0.00    -0.218 A  
HETATM    5  C   UNL     1      -7.447   8.413  72.129  1.00  0.00    -0.112 A  
HETATM    6  C   UNL     1      -7.758   8.309  70.763  1.00  0.00    -0.079 A  
HETATM    7  C   UNL     1      -8.977   7.702  70.387  1.00  0.00    -0.152 A  
HETATM    8  C   UNL     1      -6.824   8.852  69.855  1.00  0.00    -0.046 A  
HETATM    9  C   UNL     1      -5.654   9.448  70.320  1.00  0.00    -0.032 A  
HETATM   10  C   UNL     1      -9.904   7.276  71.345  1.00  0.00    -0.186 A  
HETATM   11  N   UNL     1      -6.324   8.992  72.582  1.00  0.00    -0.295 NA 
HETATM   12  C   UNL     1      -5.461   9.502  71.683  1.00  0.00    -0.073 A  
BRANCH   8  13
HETATM   13  O   UNL     1      -7.091   8.690  68.512  1.00  0.00    -0.070 OA 
BRANCH  13  14
HETATM   14  C   UNL     1      -7.691   9.694  67.792  1.00  0.00    -0.094 A  
HETATM   15  C   UNL     1      -8.883   9.343  67.162  1.00  0.00    -0.138 A  
HETATM   16  C   UNL     1      -9.622  10.302  66.466  1.00  0.00    -0.228 A  
HETATM   17  C   UNL     1      -9.181  11.624  66.393  1.00  0.00    -0.212 A  
HETATM   18  C   UNL     1      -7.247  11.011  67.732  1.00  0.00    -0.091 A  
HETATM   19  C   UNL     1      -7.975  11.968  67.012  1.00  0.00    -0.150 A  
BRANCH  17  20
HETATM   20  N   UNL     1      -9.900  12.642  65.729  1.00  0.00    -0.343 N  
HETATM   21  H   UNL     1      -9.855  12.653  64.710  1.00  0.00     0.000 HD 
HETATM   22  C   UNL     1     -10.657  13.623  66.332  1.00  0.00    -0.284 C  
HETATM   23  O   UNL     1     -10.798  13.834  67.526  1.00  0.00    -0.261 OA 
BRANCH  22  24
HETATM   24  C   UNL     1     -11.391  14.515  65.384  1.00  0.00    -0.341 C  
HETATM   25  C   UNL     1     -11.936  13.857  64.119  1.00  0.00    -0.464 C  
HETATM   26  C   UNL     1     -12.891  14.328  65.168  1.00  0.00    -0.259 C  
BRANCH  24  27
HETATM   27  C   UNL     1     -10.845  15.904  65.330  1.00  0.00    -0.349 C  
HETATM   28  O   UNL     1     -11.100  16.599  64.355  1.00  0.00    -0.985 OA 
HETATM   29  N   UNL     1     -10.085  16.265  66.425  1.00  0.00    -0.289 N  
HETATM   30  H   UNL     1      -9.892  15.559  67.136  1.00  0.00     0.000 HD 
BRANCH  29  31
HETATM   31  C   UNL     1      -9.564  17.558  66.608  1.00  0.00    -0.282 A  
HETATM   32  C   UNL     1      -8.247  17.876  66.252  1.00  0.00    -0.246 A  
HETATM   33  C   UNL     1      -7.736  19.148  66.511  1.00  0.00    -0.276 A  
HETATM   34  C   UNL     1      -8.537  20.086  67.148  1.00  0.00    -0.335 A  
HETATM   35  C   UNL     1      -9.857  19.793  67.476  1.00  0.00    -0.516 A  
HETATM   36  F   UNL     1      -8.030  21.286  67.455  1.00  0.00    -0.358 F  
HETATM   37  C   UNL     1     -10.386  18.537  67.171  1.00  0.00    -0.433 A  
ENDBRANCH  29  31
ENDBRANCH  24  27
ENDBRANCH  22  24
ENDBRANCH  17  20
ENDBRANCH  13  14
ENDBRANCH   8  13
BRANCH  10  38
HETATM   38  O   UNL     1     -11.056   6.756  70.813  1.00  0.00    -0.247 OA 
HETATM   39  C   UNL     1     -10.895   5.976  69.632  1.00  0.00    -0.369 C  
ENDBRANCH  10  38
ENDBRANCH   2   3
TORSDOF 8
ENDMDL
MODEL       22
REMARK 921   NORMALIZED FREE ENERGY PREDICTED BY IDOCK:   -6.53 KCAL/MOL
REMARK 922        TOTAL FREE ENERGY PREDICTED BY IDOCK:  -11.05 KCAL/MOL
REMARK 923 INTER-LIGAND FREE ENERGY PREDICTED BY IDOCK:   -9.51 KCAL/MOL
REMARK 924 INTRA-LIGAND FREE ENERGY PREDICTED BY IDOCK:   -1.54 KCAL/MOL
REMARK 927      BINDING AFFINITY PREDICTED BY RF-SCORE:    0.00 PKD
ROOT
HETATM    1  C   UNL     1      -5.759   2.676  70.748  1.00  0.00    -0.013 C  
HETATM    2  O   UNL     1      -7.032   2.613  71.380  1.00  0.00    -0.030 OA 
ENDROOT
BRANCH   2   3
HETATM    3  C   UNL     1      -7.704   3.795  71.556  1.00  0.00    -0.060 A  
HETATM    4  C   UNL     1      -7.201   4.850  72.328  1.00  0.00    -0.081 A  
HETATM    5  C   UNL     1      -7.908   6.021  72.544  1.00  0.00    -0.104 A  
HETATM    6  C   UNL     1      -9.157   6.188  71.924  1.00  0.00    -0.140 A  
HETATM    7  C   UNL     1      -9.652   5.154  71.099  1.00  0.00    -0.224 A  
HETATM    8  C   UNL     1      -9.849   7.387  72.200  1.00  0.00    -0.172 A  
HETATM    9  C   UNL     1      -9.289   8.345  73.042  1.00  0.00    -0.249 A  
HETATM   10  C   UNL     1      -8.958   3.946  70.951  1.00  0.00    -0.097 A  
HETATM   11  N   UNL     1      -7.367   6.939  73.361  1.00  0.00    -0.078 NA 
HETATM   12  C   UNL     1      -8.061   8.068  73.602  1.00  0.00    -0.208 A  
BRANCH   8  13
HETATM   13  O   UNL     1     -11.043   7.586  71.539  1.00  0.00    -0.233 OA 
BRANCH  13  14
HETATM   14  C   UNL     1     -11.120   8.462  70.484  1.00  0.00    -0.252 A  
HETATM   15  C   UNL     1     -11.809   9.645  70.742  1.00  0.00    -0.378 A  
HETATM   16  C   UNL     1     -11.886  10.644  69.770  1.00  0.00    -0.377 A  
HETATM   17  C   UNL     1     -11.273  10.475  68.528  1.00  0.00    -0.274 A  
HETATM   18  C   UNL     1     -10.499   8.287  69.251  1.00  0.00    -0.218 A  
HETATM   19  C   UNL     1     -10.598   9.278  68.265  1.00  0.00    -0.237 A  
BRANCH  17  20
HETATM   20  N   UNL     1     -11.293  11.461  67.516  1.00  0.00    -0.296 N  
HETATM   21  H   UNL     1     -11.806  11.240  66.663  1.00  0.00     0.000 HD 
HETATM   22  C   UNL     1     -10.681  12.694  67.578  1.00  0.00    -0.225 C  
HETATM   23  O   UNL     1      -9.971  13.136  68.466  1.00  0.00    -0.232 OA 
BRANCH  22  24
HETATM   24  C   UNL     1     -10.945  13.579  66.403  1.00  0.00    -0.297 C  
HETATM   25  C   UNL     1     -11.079  12.886  65.049  1.00  0.00    -0.320 C  
HETATM   26  C   UNL     1     -12.287  13.503  65.678  1.00  0.00    -0.522 C  
BRANCH  24  27
HETATM   27  C   UNL     1     -10.278  14.911  66.499  1.00  0.00    -0.275 C  
HETATM   28  O   UNL     1      -9.170  15.053  65.997  1.00  0.00    -0.293 OA 
HETATM   29  N   UNL     1     -11.009  15.873  67.169  1.00  0.00    -0.267 N  
HETATM   30  H   UNL     1     -11.891  15.598  67.602  1.00  0.00     0.000 HD 
BRANCH  29  31
HETATM   31  C   UNL     1     -10.597  17.212  67.284  1.00  0.00    -0.270 A  
HETATM   32  C   UNL     1     -10.292  17.783  68.526  1.00  0.00    -0.366 A  
HETATM   33  C   UNL     1      -9.956  19.134  68.616  1.00  0.00    -0.486 A  
HETATM   34  C   UNL     1      -9.951  19.911  67.465  1.00  0.00    -0.417 A  
HETATM   35  C   UNL     1     -10.220  19.349  66.221  1.00  0.00    -0.566 A  
HETATM   36  F   UNL     1      -9.691  21.222  67.556  1.00  0.00    -0.588 F  
HETATM   37  C   UNL     1     -10.507  17.985  66.124  1.00  0.00    -0.336 A  
ENDBRANCH  29  31
ENDBRANCH  24  27
ENDBRANCH  22  24
ENDBRANCH  17  20
ENDBRANCH  13  14
ENDBRANCH   8  13
BRANCH  10  38
HETATM   38  O   UNL     1      -9.599   3.030  70.157  1.00  0.00    -0.161 OA 
HETATM   39  C   UNL     1      -9.306   3.104  68.766  1.00  0.00    -0.165 C  
ENDBRANCH  10  38
ENDBRANCH   2   3
TORSDOF 8
ENDMDL
MODEL       23
REMARK 921   NORMALIZED FREE ENERGY PREDICTED BY IDOCK:   -6.49 KCAL/MOL
REMARK 922        TOTAL FREE ENERGY PREDICTED BY IDOCK:  -10.99 KCAL/MOL
REMARK 923 INTER-LIGAND FREE ENERGY PREDICTED BY IDOCK:   -9.88 KCAL/MOL
REMARK 924 INTRA-LIGAND FREE ENERGY PREDICTED BY IDOCK:   -1.12 KCAL/MOL
REMARK 927      BINDING AFFINITY PREDICTED BY RF-SCORE:    0.00 PKD
ROOT
HETATM    1  C   UNL     1     -12.373  16.297  74.414  1.00  0.00    -0.481 C  
HETATM    2  O   UNL     1     -12.809  15.127  73.730  1.00  0.00    -0.520 OA 
ENDROOT
BRANCH   2   3
HETATM    3  C   UNL     1     -12.473  15.012  72.407  1.00  0.00    -0.346 A  
HETATM    4  C   UNL     1     -11.754  15.995  71.715  1.00  0.00    -0.593 A  
HETATM    5  C   UNL     1     -11.463  15.897  70.364  1.00  0.00    -0.378 A  
HETATM    6  C   UNL     1     -11.855  14.744  69.664  1.00  0.00    -0.362 A  
HETATM    7  C   UNL     1     -12.533  13.720  70.363  1.00  0.00    -0.384 A  
HETATM    8  C   UNL     1     -11.559  14.706  68.284  1.00  0.00    -0.326 A  
HETATM    9  C   UNL     1     -10.900  15.772  67.676  1.00  0.00    -0.310 A  
HETATM   10  C   UNL     1     -12.884  13.868  71.710  1.00  0.00    -0.335 A  
HETATM   11  N   UNL     1     -10.833  16.929  69.782  1.00  0.00    -0.183 NA 
HETATM   12  C   UNL     1     -10.574  16.856  68.462  1.00  0.00    -0.367 A  
BRANCH   8  13
HETATM   13  O   UNL     1     -11.878  13.548  67.608  1.00  0.00    -0.340 OA 
BRANCH  13  14
HETATM   14  C   UNL     1     -11.242  12.367  67.905  1.00  0.00    -0.266 A  
HETATM   15  C   UNL     1      -9.856  12.389  67.772  1.00  0.00    -0.203 A  
HETATM   16  C   UNL     1      -9.095  11.271  68.121  1.00  0.00    -0.166 A  
HETATM   17  C   UNL     1      -9.711  10.117  68.608  1.00  0.00    -0.163 A  
HETATM   18  C   UNL     1     -11.864  11.224  68.397  1.00  0.00    -0.331 A  
HETATM   19  C   UNL     1     -11.105  10.093  68.723  1.00  0.00    -0.250 A  
BRANCH  17  20
HETATM   20  N   UNL     1      -8.993   8.967  69.004  1.00  0.00    -0.138 N  
HETATM   21  H   UNL     1      -9.164   8.110  68.478  1.00  0.00     0.000 HD 
HETATM   22  C   UNL     1      -8.081   8.898  70.035  1.00  0.00    -0.116 C  
HETATM   23  O   UNL     1      -7.774   9.776  70.824  1.00  0.00    -0.308 OA 
BRANCH  22  24
HETATM   24  C   UNL     1      -7.395   7.577  70.172  1.00  0.00    -0.077 C  
HETATM   25  C   UNL     1      -6.210   7.329  69.243  1.00  0.00    -0.035 C  
HETATM   26  C   UNL     1      -5.966   7.513  70.706  1.00  0.00    -0.034 C  
BRANCH  24  27
HETATM   27  C   UNL     1      -8.322   6.458  70.519  1.00  0.00    -0.129 C  
HETATM   28  O   UNL     1      -8.812   5.798  69.612  1.00  0.00    -0.120 OA 
HETATM   29  N   UNL     1      -8.533   6.285  71.873  1.00  0.00    -0.124 N  
HETATM   30  H   UNL     1      -8.115   6.956  72.518  1.00  0.00     0.000 HD 
BRANCH  29  31
HETATM   31  C   UNL     1      -9.294   5.230  72.405  1.00  0.00    -0.140 A  
HETATM   32  C   UNL     1      -8.887   3.896  72.282  1.00  0.00    -0.126 A  
HETATM   33  C   UNL     1      -9.699   2.866  72.758  1.00  0.00    -0.182 A  
HETATM   34  C   UNL     1     -10.925   3.177  73.331  1.00  0.00    -0.200 A  
HETATM   35  C   UNL     1     -11.326   4.499  73.489  1.00  0.00    -0.355 A  
HETATM   36  F   UNL     1     -11.734   2.188  73.731  1.00  0.00    -0.291 F  
HETATM   37  C   UNL     1     -10.491   5.533  73.059  1.00  0.00    -0.244 A  
ENDBRANCH  29  31
ENDBRANCH  24  27
ENDBRANCH  22  24
ENDBRANCH  17  20
ENDBRANCH  13  14
ENDBRANCH   8  13
BRANCH  10  38
HETATM   38  O   UNL     1     -13.582  12.805  72.223  1.00  0.00    -0.556 OA 
HETATM   39  C   UNL     1     -13.145  11.517  71.804  1.00  0.00    -0.398 C  
ENDBRANCH  10  38
ENDBRANCH   2   3
TORSDOF 8
ENDMDL
MODEL       24
REMARK 921   NORMALIZED FREE ENERGY PREDICTED BY IDOCK:   -6.48 KCAL/MOL
REMARK 922        TOTAL FREE ENERGY PREDICTED BY IDOCK:  -10.98 KCAL/MOL
REMARK 923 INTER-LIGAND FREE ENERGY PREDICTED BY IDOCK:   -9.59 KCAL/MOL
REMARK 924 INTRA-LIGAND FREE ENERGY PREDICTED BY IDOCK:   -1.39 KCAL/MOL
REMARK 927      BINDING AFFINITY PREDICTED BY RF-SCORE:    0.00 PKD
ROOT
HETATM    1  C   UNL     1     -10.089   3.517  74.439  1.00  0.00    -0.162 C  
HETATM    2  O   UNL     1     -10.718   4.712  73.989  1.00  0.00    -0.264 OA 
ENDROOT
BRANCH   2   3
HETATM    3  C   UNL     1     -10.276   5.245  72.806  1.00  0.00    -0.188 A  
HETATM    4  C   UNL     1     -10.266   4.528  71.603  1.00  0.00    -0.214 A  
HETATM    5  C   UNL     1      -9.770   5.055  70.422  1.00  0.00    -0.209 A  
HETATM    6  C   UNL     1      -9.306   6.381  70.409  1.00  0.00    -0.169 A  
HETATM    7  C   UNL     1      -9.362   7.134  71.603  1.00  0.00    -0.158 A  
HETATM    8  C   UNL     1      -8.786   6.860  69.188  1.00  0.00    -0.135 A  
HETATM    9  C   UNL     1      -8.755   6.038  68.064  1.00  0.00    -0.112 A  
HETATM   10  C   UNL     1      -9.797   6.562  72.805  1.00  0.00    -0.169 A  
HETATM   11  N   UNL     1      -9.738   4.257  69.344  1.00  0.00    -0.200 NA 
HETATM   12  C   UNL     1      -9.229   4.751  68.199  1.00  0.00    -0.124 A  
BRANCH   8  13
HETATM   13  O   UNL     1      -8.395   8.182  69.151  1.00  0.00    -0.127 OA 
BRANCH  13  14
HETATM   14  C   UNL     1      -9.119   9.106  68.438  1.00  0.00    -0.132 A  
HETATM   15  C   UNL     1      -9.427  10.278  69.124  1.00  0.00    -0.225 A  
HETATM   16  C   UNL     1     -10.092  11.321  68.476  1.00  0.00    -0.210 A  
HETATM   17  C   UNL     1     -10.456  11.207  67.133  1.00  0.00    -0.231 A  
HETATM   18  C   UNL     1      -9.470   8.985  67.096  1.00  0.00    -0.196 A  
HETATM   19  C   UNL     1     -10.161  10.021  66.453  1.00  0.00    -0.307 A  
BRANCH  17  20
HETATM   20  N   UNL     1     -11.104  12.238  66.418  1.00  0.00    -0.287 N  
HETATM   21  H   UNL     1     -12.120  12.188  66.351  1.00  0.00     0.000 HD 
HETATM   22  C   UNL     1     -10.487  13.306  65.803  1.00  0.00    -0.284 C  
HETATM   23  O   UNL     1      -9.291  13.527  65.705  1.00  0.00    -0.033 OA 
BRANCH  22  24
HETATM   24  C   UNL     1     -11.424  14.302  65.199  1.00  0.00    -0.351 C  
HETATM   25  C   UNL     1     -12.266  13.814  64.023  1.00  0.00    -0.429 C  
HETATM   26  C   UNL     1     -12.933  14.105  65.329  1.00  0.00    -0.268 C  
BRANCH  24  27
HETATM   27  C   UNL     1     -10.898  15.699  65.215  1.00  0.00    -0.406 C  
HETATM   28  O   UNL     1     -11.078  16.407  64.232  1.00  0.00    -0.845 OA 
HETATM   29  N   UNL     1     -10.241  16.053  66.377  1.00  0.00    -0.291 N  
HETATM   30  H   UNL     1     -10.099  15.338  67.091  1.00  0.00     0.000 HD 
BRANCH  29  31
HETATM   31  C   UNL     1      -9.758  17.350  66.625  1.00  0.00    -0.290 A  
HETATM   32  C   UNL     1      -8.469  17.740  66.239  1.00  0.00    -0.225 A  
HETATM   33  C   UNL     1      -7.993  19.010  66.562  1.00  0.00    -0.294 A  
HETATM   34  C   UNL     1      -8.799  19.874  67.291  1.00  0.00    -0.334 A  
HETATM   35  C   UNL     1     -10.093  19.511  67.651  1.00  0.00    -0.526 A  
HETATM   36  F   UNL     1      -8.321  21.070  67.657  1.00  0.00    -0.279 F  
HETATM   37  C   UNL     1     -10.589  18.258  67.285  1.00  0.00    -0.406 A  
ENDBRANCH  29  31
ENDBRANCH  24  27
ENDBRANCH  22  24
ENDBRANCH  17  20
ENDBRANCH  13  14
ENDBRANCH   8  13
BRANCH  10  38
HETATM   38  O   UNL     1      -9.742   7.413  73.878  1.00  0.00    -0.281 OA 
HETATM   39  C   UNL     1      -8.468   7.991  74.146  1.00  0.00    -0.233 C  
ENDBRANCH  10  38
ENDBRANCH   2   3
TORSDOF 8
ENDMDL
MODEL       25
REMARK 921   NORMALIZED FREE ENERGY PREDICTED BY IDOCK:   -6.46 KCAL/MOL
REMARK 922        TOTAL FREE ENERGY PREDICTED BY IDOCK:  -10.95 KCAL/MOL
REMARK 923 INTER-LIGAND FREE ENERGY PREDICTED BY IDOCK:   -9.75 KCAL/MOL
REMARK 924 INTRA-LIGAND FREE ENERGY PREDICTED BY IDOCK:   -1.19 KCAL/MOL
REMARK 927      BINDING AFFINITY PREDICTED BY RF-SCORE:    0.00 PKD
ROOT
HETATM    1  C   UNL     1      -7.259   3.252  73.633  1.00  0.00    -0.050 C  
HETATM    2  O   UNL     1      -7.714   4.438  74.275  1.00  0.00    -0.082 OA 
ENDROOT
BRANCH   2   3
HETATM    3  C   UNL     1      -8.038   5.501  73.474  1.00  0.00    -0.113 A  
HETATM    4  C   UNL     1      -7.082   6.244  72.771  1.00  0.00    -0.076 A  
HETATM    5  C   UNL     1      -7.411   7.350  72.003  1.00  0.00    -0.080 A  
HETATM    6  C   UNL     1      -8.762   7.714  71.877  1.00  0.00    -0.138 A  
HETATM    7  C   UNL     1      -9.741   6.940  72.537  1.00  0.00    -0.169 A  
HETATM    8  C   UNL     1      -9.041   8.865  71.107  1.00  0.00    -0.249 A  
HETATM    9  C   UNL     1      -8.006   9.577  70.506  1.00  0.00    -0.188 A  
HETATM   10  C   UNL     1      -9.385   5.871  73.368  1.00  0.00    -0.134 A  
HETATM   11  N   UNL     1      -6.410   8.036  71.431  1.00  0.00    -0.035 NA 
HETATM   12  C   UNL     1      -6.718   9.131  70.708  1.00  0.00    -0.082 A  
BRANCH   8  13
HETATM   13  O   UNL     1     -10.369   9.186  70.922  1.00  0.00    -0.233 OA 
BRANCH  13  14
HETATM   14  C   UNL     1     -10.758   9.964  69.859  1.00  0.00    -0.280 A  
HETATM   15  C   UNL     1     -11.376  11.166  70.196  1.00  0.00    -0.295 A  
HETATM   16  C   UNL     1     -11.744  12.074  69.202  1.00  0.00    -0.389 A  
HETATM   17  C   UNL     1     -11.498  11.793  67.857  1.00  0.00    -0.317 A  
HETATM   18  C   UNL     1     -10.501   9.678  68.521  1.00  0.00    -0.241 A  
HETATM   19  C   UNL     1     -10.894  10.577  67.521  1.00  0.00    -0.357 A  
BRANCH  17  20
HETATM   20  N   UNL     1     -11.822  12.684  66.810  1.00  0.00    -0.397 N  
HETATM   21  H   UNL     1     -12.807  12.765  66.557  1.00  0.00     0.000 HD 
HETATM   22  C   UNL     1     -10.928  13.455  66.099  1.00  0.00    -0.276 C  
HETATM   23  O   UNL     1      -9.712  13.469  66.190  1.00  0.00    -0.284 OA 
BRANCH  22  24
HETATM   24  C   UNL     1     -11.556  14.383  65.109  1.00  0.00    -0.361 C  
HETATM   25  C   UNL     1     -11.941  13.777  63.762  1.00  0.00    -0.365 C  
HETATM   26  C   UNL     1     -13.018  14.195  64.710  1.00  0.00     0.083 C  
BRANCH  24  27
HETATM   27  C   UNL     1     -11.024  15.776  65.180  1.00  0.00    -0.382 C  
HETATM   28  O   UNL     1     -11.210  16.526  64.229  1.00  0.00    -0.992 OA 
HETATM   29  N   UNL     1     -10.357  16.078  66.351  1.00  0.00    -0.296 N  
HETATM   30  H   UNL     1     -10.212  15.333  67.033  1.00  0.00     0.000 HD 
BRANCH  29  31
HETATM   31  C   UNL     1      -9.867  17.362  66.649  1.00  0.00    -0.297 A  
HETATM   32  C   UNL     1     -10.687  18.348  67.212  1.00  0.00    -0.389 A  
HETATM   33  C   UNL     1     -10.192  19.634  67.430  1.00  0.00    -0.561 A  
HETATM   34  C   UNL     1      -8.887  19.931  67.061  1.00  0.00    -0.335 A  
HETATM   35  C   UNL     1      -8.052  18.952  66.533  1.00  0.00    -0.298 A  
HETATM   36  F   UNL     1      -8.428  21.180  67.211  1.00  0.00    -0.357 F  
HETATM   37  C   UNL     1      -8.531  17.651  66.360  1.00  0.00    -0.279 A  
ENDBRANCH  29  31
ENDBRANCH  24  27
ENDBRANCH  22  24
ENDBRANCH  17  20
ENDBRANCH  13  14
ENDBRANCH   8  13
BRANCH  10  38
HETATM   38  O   UNL     1     -10.452   5.256  73.972  1.00  0.00    -0.243 OA 
HETATM   39  C   UNL     1     -11.609   5.084  73.160  1.00  0.00    -0.216 C  
ENDBRANCH  10  38
ENDBRANCH   2   3
TORSDOF 8
ENDMDL
MODEL       26
REMARK 921   NORMALIZED FREE ENERGY PREDICTED BY IDOCK:   -6.45 KCAL/MOL
REMARK 922        TOTAL FREE ENERGY PREDICTED BY IDOCK:  -10.93 KCAL/MOL
REMARK 923 INTER-LIGAND FREE ENERGY PREDICTED BY IDOCK:   -9.24 KCAL/MOL
REMARK 924 INTRA-LIGAND FREE ENERGY PREDICTED BY IDOCK:   -1.69 KCAL/MOL
REMARK 927      BINDING AFFINITY PREDICTED BY RF-SCORE:    0.00 PKD
ROOT
HETATM    1  C   UNL     1      -6.771  20.136  68.449  1.00  0.00    -0.302 C  
HETATM    2  O   UNL     1      -7.927  20.073  67.621  1.00  0.00    -0.290 OA 
ENDROOT
BRANCH   2   3
HETATM    3  C   UNL     1      -8.583  18.871  67.551  1.00  0.00    -0.275 A  
HETATM    4  C   UNL     1      -9.478  18.432  68.535  1.00  0.00    -0.355 A  
HETATM    5  C   UNL     1     -10.097  17.194  68.483  1.00  0.00    -0.329 A  
HETATM    6  C   UNL     1      -9.866  16.362  67.376  1.00  0.00    -0.244 A  
HETATM    7  C   UNL     1      -9.008  16.815  66.349  1.00  0.00    -0.325 A  
HETATM    8  C   UNL     1     -10.499  15.100  67.386  1.00  0.00    -0.264 A  
HETATM    9  C   UNL     1     -11.316  14.731  68.452  1.00  0.00    -0.317 A  
HETATM   10  C   UNL     1      -8.332  18.037  66.453  1.00  0.00    -0.246 A  
HETATM   11  N   UNL     1     -10.879  16.841  69.515  1.00  0.00    -0.293 NA 
HETATM   12  C   UNL     1     -11.461  15.627  69.489  1.00  0.00    -0.344 A  
BRANCH   8  13
HETATM   13  O   UNL     1     -10.332  14.308  66.270  1.00  0.00    -0.280 OA 
BRANCH  13  14
HETATM   14  C   UNL     1     -10.112  12.958  66.397  1.00  0.00    -0.269 A  
HETATM   15  C   UNL     1      -8.872  12.603  66.922  1.00  0.00    -0.201 A  
HETATM   16  C   UNL     1      -8.567  11.264  67.170  1.00  0.00    -0.147 A  
HETATM   17  C   UNL     1      -9.498  10.261  66.898  1.00  0.00    -0.169 A  
HETATM   18  C   UNL     1     -11.051  11.966  66.130  1.00  0.00    -0.374 A  
HETATM   19  C   UNL     1     -10.736  10.619  66.354  1.00  0.00    -0.198 A  
BRANCH  17  20
HETATM   20  N   UNL     1      -9.257   8.893  67.154  1.00  0.00    -0.136 N  
HETATM   21  H   UNL     1      -9.485   8.548  68.087  1.00  0.00     0.000 HD 
HETATM   22  C   UNL     1      -8.742   7.981  66.258  1.00  0.00    -0.153 C  
HETATM   23  O   UNL     1      -8.347   8.186  65.122  1.00  0.00    -0.148 OA 
BRANCH  22  24
HETATM   24  C   UNL     1      -8.682   6.576  66.765  1.00  0.00    -0.123 C  
HETATM   25  C   UNL     1      -9.228   5.496  65.835  1.00  0.00    -0.158 C  
HETATM   26  C   UNL     1      -7.757   5.563  66.094  1.00  0.00    -0.095 C  
BRANCH  24  27
HETATM   27  C   UNL     1      -8.885   6.466  68.240  1.00  0.00    -0.115 C  
HETATM   28  O   UNL     1      -8.072   6.997  68.987  1.00  0.00    -0.118 OA 
HETATM   29  N   UNL     1     -10.006   5.752  68.615  1.00  0.00    -0.144 N  
HETATM   30  H   UNL     1     -10.559   5.300  67.887  1.00  0.00     0.000 HD 
BRANCH  29  31
HETATM   31  C   UNL     1     -10.422   5.617  69.951  1.00  0.00    -0.308 A  
HETATM   32  C   UNL     1     -11.368   6.481  70.517  1.00  0.00    -0.426 A  
HETATM   33  C   UNL     1     -11.709   6.367  71.864  1.00  0.00    -0.378 A  
HETATM   34  C   UNL     1     -11.081   5.405  72.644  1.00  0.00    -0.278 A  
HETATM   35  C   UNL     1     -10.165   4.519  72.088  1.00  0.00    -0.256 A  
HETATM   36  F   UNL     1     -11.359   5.334  73.953  1.00  0.00    -0.289 F  
HETATM   37  C   UNL     1      -9.861   4.600  70.727  1.00  0.00    -0.284 A  
ENDBRANCH  29  31
ENDBRANCH  24  27
ENDBRANCH  22  24
ENDBRANCH  17  20
ENDBRANCH  13  14
ENDBRANCH   8  13
BRANCH  10  38
HETATM   38  O   UNL     1      -7.501  18.305  65.396  1.00  0.00    -0.502 OA 
HETATM   39  C   UNL     1      -6.133  17.955  65.580  1.00  0.00    -0.104 C  
ENDBRANCH  10  38
ENDBRANCH   2   3
TORSDOF 8
ENDMDL
MODEL       27
REMARK 921   NORMALIZED FREE ENERGY PREDICTED BY IDOCK:   -6.31 KCAL/MOL
REMARK 922        TOTAL FREE ENERGY PREDICTED BY IDOCK:  -10.73 KCAL/MOL
REMARK 923 INTER-LIGAND FREE ENERGY PREDICTED BY IDOCK:   -9.19 KCAL/MOL
REMARK 924 INTRA-LIGAND FREE ENERGY PREDICTED BY IDOCK:   -1.55 KCAL/MOL
REMARK 927      BINDING AFFINITY PREDICTED BY RF-SCORE:    0.00 PKD
ROOT
HETATM    1  C   UNL     1      -6.070   3.021  69.630  1.00  0.00    -0.024 C  
HETATM    2  O   UNL     1      -7.364   2.886  70.207  1.00  0.00    -0.040 OA 
ENDROOT
BRANCH   2   3
HETATM    3  C   UNL     1      -8.036   4.039  70.516  1.00  0.00    -0.054 A  
HETATM    4  C   UNL     1      -7.613   4.923  71.517  1.00  0.00    -0.084 A  
HETATM    5  C   UNL     1      -8.325   6.061  71.860  1.00  0.00    -0.115 A  
HETATM    6  C   UNL     1      -9.492   6.376  71.144  1.00  0.00    -0.177 A  
HETATM    7  C   UNL     1      -9.900   5.523  70.096  1.00  0.00    -0.261 A  
HETATM    8  C   UNL     1     -10.195   7.530  71.552  1.00  0.00    -0.188 A  
HETATM    9  C   UNL     1      -9.725   8.304  72.610  1.00  0.00    -0.357 A  
HETATM   10  C   UNL     1      -9.210   4.338  69.811  1.00  0.00    -0.137 A  
HETATM   11  N   UNL     1      -7.871   6.800  72.884  1.00  0.00    -0.098 NA 
HETATM   12  C   UNL     1      -8.574   7.890  73.245  1.00  0.00    -0.218 A  
BRANCH   8  13
HETATM   13  O   UNL     1     -11.301   7.884  70.809  1.00  0.00    -0.273 OA 
BRANCH  13  14
HETATM   14  C   UNL     1     -11.261   8.970  69.968  1.00  0.00    -0.128 A  
HETATM   15  C   UNL     1     -12.011  10.069  70.381  1.00  0.00    -0.318 A  
HETATM   16  C   UNL     1     -11.984  11.257  69.648  1.00  0.00    -0.423 A  
HETATM   17  C   UNL     1     -11.207  11.362  68.494  1.00  0.00    -0.250 A  
HETATM   18  C   UNL     1     -10.476   9.068  68.823  1.00  0.00    -0.230 A  
HETATM   19  C   UNL     1     -10.469  10.251  68.073  1.00  0.00    -0.234 A  
BRANCH  17  20
HETATM   20  N   UNL     1     -11.118  12.546  67.728  1.00  0.00    -0.236 N  
HETATM   21  H   UNL     1     -10.559  13.307  68.114  1.00  0.00     0.000 HD 
HETATM   22  C   UNL     1     -11.717  12.766  66.507  1.00  0.00    -0.400 C  
HETATM   23  O   UNL     1     -12.471  12.025  65.897  1.00  0.00    -0.337 OA 
BRANCH  22  24
HETATM   24  C   UNL     1     -11.375  14.076  65.873  1.00  0.00    -0.317 C  
HETATM   25  C   UNL     1     -10.693  14.010  64.509  1.00  0.00    -0.355 C  
HETATM   26  C   UNL     1     -12.096  14.517  64.601  1.00  0.00    -0.486 C  
BRANCH  24  27
HETATM   27  C   UNL     1     -10.985  15.129  66.856  1.00  0.00    -0.323 C  
HETATM   28  O   UNL     1     -11.541  15.151  67.947  1.00  0.00    -0.333 OA 
HETATM   29  N   UNL     1     -10.005  15.996  66.412  1.00  0.00    -0.277 N  
HETATM   30  H   UNL     1      -9.679  15.907  65.449  1.00  0.00     0.000 HD 
BRANCH  29  31
HETATM   31  C   UNL     1      -9.436  16.994  67.221  1.00  0.00    -0.240 A  
HETATM   32  C   UNL     1     -10.040  18.248  67.375  1.00  0.00    -0.364 A  
HETATM   33  C   UNL     1      -9.414  19.242  68.127  1.00  0.00    -0.410 A  
HETATM   34  C   UNL     1      -8.176  18.984  68.699  1.00  0.00    -0.364 A  
HETATM   35  C   UNL     1      -7.581  17.732  68.582  1.00  0.00    -0.276 A  
HETATM   36  F   UNL     1      -7.543  19.957  69.369  1.00  0.00    -0.346 F  
HETATM   37  C   UNL     1      -8.230  16.720  67.872  1.00  0.00    -0.189 A  
ENDBRANCH  29  31
ENDBRANCH  24  27
ENDBRANCH  22  24
ENDBRANCH  17  20
ENDBRANCH  13  14
ENDBRANCH   8  13
BRANCH  10  38
HETATM   38  O   UNL     1      -9.766   3.599  68.798  1.00  0.00    -0.133 OA 
HETATM   39  C   UNL     1      -9.371   3.962  67.479  1.00  0.00    -0.191 C  
ENDBRANCH  10  38
ENDBRANCH   2   3
TORSDOF 8
ENDMDL
MODEL       28
REMARK 921   NORMALIZED FREE ENERGY PREDICTED BY IDOCK:   -6.26 KCAL/MOL
REMARK 922        TOTAL FREE ENERGY PREDICTED BY IDOCK:  -10.66 KCAL/MOL
REMARK 923 INTER-LIGAND FREE ENERGY PREDICTED BY IDOCK:   -9.58 KCAL/MOL
REMARK 924 INTRA-LIGAND FREE ENERGY PREDICTED BY IDOCK:   -1.07 KCAL/MOL
REMARK 927      BINDING AFFINITY PREDICTED BY RF-SCORE:    0.00 PKD
ROOT
HETATM    1  C   UNL     1      -9.002  19.772  65.832  1.00  0.00    -0.130 C  
HETATM    2  O   UNL     1      -8.459  18.649  66.518  1.00  0.00    -0.278 OA 
ENDROOT
BRANCH   2   3
HETATM    3  C   UNL     1      -9.276  17.562  66.687  1.00  0.00    -0.262 A  
HETATM    4  C   UNL     1      -9.612  16.691  65.642  1.00  0.00    -0.013 A  
HETATM    5  C   UNL     1     -10.480  15.625  65.808  1.00  0.00    -0.366 A  
HETATM    6  C   UNL     1     -11.007  15.366  67.084  1.00  0.00    -0.317 A  
HETATM    7  C   UNL     1     -10.633  16.204  68.158  1.00  0.00    -0.290 A  
HETATM    8  C   UNL     1     -11.908  14.285  67.193  1.00  0.00    -0.425 A  
HETATM    9  C   UNL     1     -12.232  13.523  66.074  1.00  0.00    -0.493 A  
HETATM   10  C   UNL     1      -9.813  17.322  67.958  1.00  0.00    -0.284 A  
HETATM   11  N   UNL     1     -10.793  14.897  64.725  1.00  0.00    -0.392 NA 
HETATM   12  C   UNL     1     -11.660  13.877  64.870  1.00  0.00    -0.359 A  
BRANCH   8  13
HETATM   13  O   UNL     1     -12.373  13.984  68.456  1.00  0.00    -0.265 OA 
BRANCH  13  14
HETATM   14  C   UNL     1     -12.020  12.807  69.069  1.00  0.00    -0.242 A  
HETATM   15  C   UNL     1     -12.463  12.663  70.382  1.00  0.00    -0.219 A  
HETATM   16  C   UNL     1     -12.232  11.476  71.079  1.00  0.00    -0.368 A  
HETATM   17  C   UNL     1     -11.557  10.416  70.473  1.00  0.00    -0.344 A  
HETATM   18  C   UNL     1     -11.354  11.752  68.452  1.00  0.00    -0.328 A  
HETATM   19  C   UNL     1     -11.098  10.570  69.160  1.00  0.00    -0.302 A  
BRANCH  17  20
HETATM   20  N   UNL     1     -11.319   9.182  71.117  1.00  0.00    -0.294 N  
HETATM   21  H   UNL     1     -12.122   8.568  71.254  1.00  0.00     0.000 HD 
HETATM   22  C   UNL     1     -10.101   8.732  71.579  1.00  0.00    -0.301 C  
HETATM   23  O   UNL     1      -9.033   9.322  71.577  1.00  0.00    -0.316 OA 
BRANCH  22  24
HETATM   24  C   UNL     1     -10.120   7.345  72.136  1.00  0.00    -0.223 C  
HETATM   25  C   UNL     1      -9.142   7.058  73.272  1.00  0.00    -0.164 C  
HETATM   26  C   UNL     1     -10.608   7.103  73.562  1.00  0.00    -0.416 C  
BRANCH  24  27
HETATM   27  C   UNL     1     -10.407   6.297  71.112  1.00  0.00    -0.209 C  
HETATM   28  O   UNL     1     -11.574   6.024  70.860  1.00  0.00    -0.258 OA 
HETATM   29  N   UNL     1      -9.286   5.728  70.541  1.00  0.00    -0.146 N  
HETATM   30  H   UNL     1      -8.369   5.999  70.897  1.00  0.00     0.000 HD 
BRANCH  29  31
HETATM   31  C   UNL     1      -9.345   4.794  69.492  1.00  0.00    -0.133 A  
HETATM   32  C   UNL     1      -9.239   3.417  69.728  1.00  0.00    -0.220 A  
HETATM   33  C   UNL     1      -9.230   2.519  68.660  1.00  0.00    -0.239 A  
HETATM   34  C   UNL     1      -9.300   3.006  67.362  1.00  0.00    -0.175 A  
HETATM   35  C   UNL     1      -9.439   4.368  67.116  1.00  0.00    -0.193 A  
HETATM   36  F   UNL     1      -9.228   2.152  66.333  1.00  0.00    -0.131 F  
HETATM   37  C   UNL     1      -9.500   5.264  68.186  1.00  0.00    -0.151 A  
ENDBRANCH  29  31
ENDBRANCH  24  27
ENDBRANCH  22  24
ENDBRANCH  17  20
ENDBRANCH  13  14
ENDBRANCH   8  13
BRANCH  10  38
HETATM   38  O   UNL     1      -9.588  18.057  69.093  1.00  0.00    -0.188 OA 
HETATM   39  C   UNL     1     -10.191  19.346  69.127  1.00  0.00    -0.149 C  
ENDBRANCH  10  38
ENDBRANCH   2   3
TORSDOF 8
ENDMDL
MODEL       29
REMARK 921   NORMALIZED FREE ENERGY PREDICTED BY IDOCK:   -6.24 KCAL/MOL
REMARK 922        TOTAL FREE ENERGY PREDICTED BY IDOCK:  -10.63 KCAL/MOL
REMARK 923 INTER-LIGAND FREE ENERGY PREDICTED BY IDOCK:   -9.12 KCAL/MOL
REMARK 924 INTRA-LIGAND FREE ENERGY PREDICTED BY IDOCK:   -1.52 KCAL/MOL
REMARK 927      BINDING AFFINITY PREDICTED BY RF-SCORE:    0.00 PKD
ROOT
HETATM    1  C   UNL     1     -12.230  14.810  69.893  1.00  0.00    -0.311 C  
HETATM    2  O   UNL     1     -11.643  15.374  68.726  1.00  0.00    -0.332 OA 
ENDROOT
BRANCH   2   3
HETATM    3  C   UNL     1     -11.376  14.524  67.685  1.00  0.00    -0.337 A  
HETATM    4  C   UNL     1     -12.274  14.301  66.634  1.00  0.00    -0.411 A  
HETATM    5  C   UNL     1     -12.020  13.401  65.611  1.00  0.00    -0.401 A  
HETATM    6  C   UNL     1     -10.791  12.721  65.592  1.00  0.00    -0.300 A  
HETATM    7  C   UNL     1      -9.853  12.978  66.617  1.00  0.00    -0.252 A  
HETATM    8  C   UNL     1     -10.593  11.795  64.545  1.00  0.00    -0.313 A  
HETATM    9  C   UNL     1     -11.583  11.594  63.586  1.00  0.00    -0.435 A  
HETATM   10  C   UNL     1     -10.157  13.834  67.683  1.00  0.00    -0.242 A  
HETATM   11  N   UNL     1     -12.979  13.207  64.693  1.00  0.00    -0.713 NA 
HETATM   12  C   UNL     1     -12.753  12.311  63.713  1.00  0.00    -0.405 A  
BRANCH   8  13
HETATM   13  O   UNL     1      -9.362  11.177  64.481  1.00  0.00    -0.212 OA 
BRANCH  13  14
HETATM   14  C   UNL     1      -9.186   9.914  64.994  1.00  0.00    -0.240 A  
HETATM   15  C   UNL     1      -8.136   9.188  64.438  1.00  0.00    -0.145 A  
HETATM   16  C   UNL     1      -7.813   7.923  64.933  1.00  0.00    -0.126 A  
HETATM   17  C   UNL     1      -8.534   7.369  65.992  1.00  0.00    -0.148 A  
HETATM   18  C   UNL     1      -9.906   9.374  66.056  1.00  0.00    -0.366 A  
HETATM   19  C   UNL     1      -9.599   8.094  66.536  1.00  0.00    -0.303 A  
BRANCH  17  20
HETATM   20  N   UNL     1      -8.235   6.108  66.553  1.00  0.00    -0.109 N  
HETATM   21  H   UNL     1      -7.684   6.101  67.412  1.00  0.00     0.000 HD 
HETATM   22  C   UNL     1      -8.619   4.885  66.046  1.00  0.00    -0.119 C  
HETATM   23  O   UNL     1      -9.221   4.659  65.009  1.00  0.00    -0.153 OA 
BRANCH  22  24
HETATM   24  C   UNL     1      -8.247   3.713  66.896  1.00  0.00    -0.095 C  
HETATM   25  C   UNL     1      -8.647   2.339  66.367  1.00  0.00    -0.111 C  
HETATM   26  C   UNL     1      -7.201   2.716  66.403  1.00  0.00    -0.065 C  
BRANCH  24  27
HETATM   27  C   UNL     1      -8.306   3.999  68.361  1.00  0.00    -0.090 C  
HETATM   28  O   UNL     1      -7.258   4.193  68.965  1.00  0.00    -0.053 OA 
HETATM   29  N   UNL     1      -9.580   4.012  68.894  1.00  0.00    -0.166 N  
HETATM   30  H   UNL     1     -10.362   3.761  68.288  1.00  0.00     0.000 HD 
BRANCH  29  31
HETATM   31  C   UNL     1      -9.852   4.354  70.230  1.00  0.00    -0.214 A  
HETATM   32  C   UNL     1      -9.465   3.529  71.293  1.00  0.00    -0.229 A  
HETATM   33  C   UNL     1      -9.813   3.859  72.602  1.00  0.00    -0.208 A  
HETATM   34  C   UNL     1     -10.567   5.001  72.838  1.00  0.00    -0.228 A  
HETATM   35  C   UNL     1     -10.929   5.847  71.795  1.00  0.00    -0.327 A  
HETATM   36  F   UNL     1     -10.956   5.288  74.087  1.00  0.00    -0.309 F  
HETATM   37  C   UNL     1     -10.538   5.543  70.488  1.00  0.00    -0.339 A  
ENDBRANCH  29  31
ENDBRANCH  24  27
ENDBRANCH  22  24
ENDBRANCH  17  20
ENDBRANCH  13  14
ENDBRANCH   8  13
BRANCH  10  38
HETATM   38  O   UNL     1      -9.158  13.935  68.617  1.00  0.00    -0.172 OA 
HETATM   39  C   UNL     1      -7.975  14.603  68.190  1.00  0.00    -0.136 C  
ENDBRANCH  10  38
ENDBRANCH   2   3
TORSDOF 8
ENDMDL
MODEL       30
REMARK 921   NORMALIZED FREE ENERGY PREDICTED BY IDOCK:   -6.23 KCAL/MOL
REMARK 922        TOTAL FREE ENERGY PREDICTED BY IDOCK:  -10.62 KCAL/MOL
REMARK 923 INTER-LIGAND FREE ENERGY PREDICTED BY IDOCK:   -9.22 KCAL/MOL
REMARK 924 INTRA-LIGAND FREE ENERGY PREDICTED BY IDOCK:   -1.40 KCAL/MOL
REMARK 927      BINDING AFFINITY PREDICTED BY RF-SCORE:    0.00 PKD
ROOT
HETATM    1  C   UNL     1      -8.400   1.794  71.362  1.00  0.00    -0.047 C  
HETATM    2  O   UNL     1      -8.066   3.161  71.578  1.00  0.00    -0.058 OA 
ENDROOT
BRANCH   2   3
HETATM    3  C   UNL     1      -8.415   4.054  70.599  1.00  0.00    -0.070 A  
HETATM    4  C   UNL     1      -7.644   4.262  69.448  1.00  0.00    -0.054 A  
HETATM    5  C   UNL     1      -7.975   5.204  68.487  1.00  0.00    -0.086 A  
HETATM    6  C   UNL     1      -9.158   5.946  68.639  1.00  0.00    -0.115 A  
HETATM    7  C   UNL     1      -9.973   5.707  69.768  1.00  0.00    -0.264 A  
HETATM    8  C   UNL     1      -9.435   6.912  67.647  1.00  0.00    -0.123 A  
HETATM    9  C   UNL     1      -8.563   7.089  66.575  1.00  0.00    -0.130 A  
HETATM   10  C   UNL     1      -9.585   4.805  70.767  1.00  0.00    -0.179 A  
HETATM   11  N   UNL     1      -7.129   5.375  67.459  1.00  0.00    -0.066 NA 
HETATM   12  C   UNL     1      -7.427   6.310  66.537  1.00  0.00    -0.086 A  
BRANCH   8  13
HETATM   13  O   UNL     1     -10.628   7.593  67.753  1.00  0.00    -0.227 OA 
BRANCH  13  14
HETATM   14  C   UNL     1     -10.655   8.890  68.204  1.00  0.00    -0.157 A  
HETATM   15  C   UNL     1     -10.790   9.862  67.215  1.00  0.00    -0.268 A  
HETATM   16  C   UNL     1     -10.907  11.209  67.560  1.00  0.00    -0.303 A  
HETATM   17  C   UNL     1     -10.893  11.604  68.899  1.00  0.00    -0.220 A  
HETATM   18  C   UNL     1     -10.647   9.273  69.543  1.00  0.00    -0.236 A  
HETATM   19  C   UNL     1     -10.739  10.627  69.889  1.00  0.00    -0.260 A  
BRANCH  17  20
HETATM   20  N   UNL     1     -11.036  12.948  69.310  1.00  0.00    -0.424 N  
HETATM   21  H   UNL     1     -10.387  13.626  68.911  1.00  0.00     0.000 HD 
HETATM   22  C   UNL     1     -11.973  13.425  70.200  1.00  0.00    -0.326 C  
HETATM   23  O   UNL     1     -12.796  12.789  70.837  1.00  0.00    -0.225 OA 
BRANCH  22  24
HETATM   24  C   UNL     1     -11.961  14.909  70.380  1.00  0.00    -0.368 C  
HETATM   25  C   UNL     1     -13.124  15.506  71.168  1.00  0.00    -0.573 C  
HETATM   26  C   UNL     1     -11.756  15.506  71.771  1.00  0.00    -0.509 C  
BRANCH  24  27
HETATM   27  C   UNL     1     -11.391  15.646  69.213  1.00  0.00    -0.345 C  
HETATM   28  O   UNL     1     -11.778  15.356  68.088  1.00  0.00    -0.351 OA 
HETATM   29  N   UNL     1     -10.456  16.608  69.541  1.00  0.00    -0.304 N  
HETATM   30  H   UNL     1     -10.172  16.696  70.517  1.00  0.00     0.000 HD 
BRANCH  29  31
HETATM   31  C   UNL     1      -9.875  17.471  68.596  1.00  0.00    -0.338 A  
HETATM   32  C   UNL     1     -10.238  18.822  68.514  1.00  0.00    -0.397 A  
HETATM   33  C   UNL     1      -9.697  19.637  67.520  1.00  0.00    -0.469 A  
HETATM   34  C   UNL     1      -8.816  19.089  66.598  1.00  0.00    -0.318 A  
HETATM   35  C   UNL     1      -8.422  17.758  66.688  1.00  0.00    -0.283 A  
HETATM   36  F   UNL     1      -8.343  19.853  65.604  1.00  0.00    -0.340 F  
HETATM   37  C   UNL     1      -8.924  16.954  67.714  1.00  0.00    -0.225 A  
ENDBRANCH  29  31
ENDBRANCH  24  27
ENDBRANCH  22  24
ENDBRANCH  17  20
ENDBRANCH  13  14
ENDBRANCH   8  13
BRANCH  10  38
HETATM   38  O   UNL     1     -10.463   4.728  71.817  1.00  0.00    -0.186 OA 
HETATM   39  C   UNL     1     -11.201   5.913  72.096  1.00  0.00    -0.287 C  
ENDBRANCH  10  38
ENDBRANCH   2   3
TORSDOF 8
ENDMDL
MODEL       31
REMARK 921   NORMALIZED FREE ENERGY PREDICTED BY IDOCK:   -6.20 KCAL/MOL
REMARK 922        TOTAL FREE ENERGY PREDICTED BY IDOCK:  -10.57 KCAL/MOL
REMARK 923 INTER-LIGAND FREE ENERGY PREDICTED BY IDOCK:   -9.28 KCAL/MOL
REMARK 924 INTRA-LIGAND FREE ENERGY PREDICTED BY IDOCK:   -1.29 KCAL/MOL
REMARK 927      BINDING AFFINITY PREDICTED BY RF-SCORE:    0.00 PKD
ROOT
HETATM    1  C   UNL     1     -10.497  20.201  65.659  1.00  0.00    -0.218 C  
HETATM    2  O   UNL     1     -11.014  18.892  65.449  1.00  0.00    -0.493 OA 
ENDROOT
BRANCH   2   3
HETATM    3  C   UNL     1     -10.308  17.845  65.983  1.00  0.00    -0.318 A  
HETATM    4  C   UNL     1      -9.461  17.984  67.089  1.00  0.00    -0.264 A  
HETATM    5  C   UNL     1      -8.710  16.933  67.592  1.00  0.00    -0.209 A  
HETATM    6  C   UNL     1      -8.839  15.662  67.008  1.00  0.00    -0.250 A  
HETATM    7  C   UNL     1      -9.732  15.497  65.926  1.00  0.00    -0.392 A  
HETATM    8  C   UNL     1      -8.032  14.634  67.540  1.00  0.00    -0.190 A  
HETATM    9  C   UNL     1      -7.166  14.895  68.599  1.00  0.00    -0.117 A  
HETATM   10  C   UNL     1     -10.427  16.585  65.383  1.00  0.00    -0.269 A  
HETATM   11  N   UNL     1      -7.874  17.191  68.609  1.00  0.00    -0.256 NA 
HETATM   12  C   UNL     1      -7.117  16.183  69.085  1.00  0.00    -0.209 A  
BRANCH   8  13
HETATM   13  O   UNL     1      -8.206  13.370  67.018  1.00  0.00    -0.142 OA 
BRANCH  13  14
HETATM   14  C   UNL     1      -8.693  12.351  67.799  1.00  0.00    -0.176 A  
HETATM   15  C   UNL     1     -10.014  12.498  68.214  1.00  0.00    -0.229 A  
HETATM   16  C   UNL     1     -10.641  11.489  68.947  1.00  0.00    -0.236 A  
HETATM   17  C   UNL     1      -9.956  10.318  69.274  1.00  0.00    -0.227 A  
HETATM   18  C   UNL     1      -8.004  11.183  68.114  1.00  0.00    -0.125 A  
HETATM   19  C   UNL     1      -8.623  10.181  68.872  1.00  0.00    -0.141 A  
BRANCH  17  20
HETATM   20  N   UNL     1     -10.546   9.252  69.988  1.00  0.00    -0.216 N  
HETATM   21  H   UNL     1     -11.369   8.815  69.573  1.00  0.00     0.000 HD 
HETATM   22  C   UNL     1     -10.112   8.749  71.195  1.00  0.00    -0.247 C  
HETATM   23  O   UNL     1      -9.197   9.156  71.892  1.00  0.00    -0.354 OA 
BRANCH  22  24
HETATM   24  C   UNL     1     -10.867   7.552  71.679  1.00  0.00    -0.249 C  
HETATM   25  C   UNL     1     -10.723   7.215  73.161  1.00  0.00    -0.385 C  
HETATM   26  C   UNL     1     -12.031   7.729  72.651  1.00  0.00    -0.257 C  
BRANCH  24  27
HETATM   27  C   UNL     1     -10.961   6.459  70.667  1.00  0.00    -0.298 C  
HETATM   28  O   UNL     1     -11.936   6.423  69.928  1.00  0.00    -0.304 OA 
HETATM   29  N   UNL     1      -9.900   5.574  70.676  1.00  0.00    -0.182 N  
HETATM   30  H   UNL     1      -9.186   5.680  71.398  1.00  0.00     0.000 HD 
BRANCH  29  31
HETATM   31  C   UNL     1      -9.755   4.535  69.741  1.00  0.00    -0.215 A  
HETATM   32  C   UNL     1      -9.459   3.225  70.138  1.00  0.00    -0.233 A  
HETATM   33  C   UNL     1      -9.251   2.230  69.183  1.00  0.00    -0.194 A  
HETATM   34  C   UNL     1      -9.316   2.558  67.835  1.00  0.00    -0.191 A  
HETATM   35  C   UNL     1      -9.643   3.847  67.428  1.00  0.00    -0.218 A  
HETATM   36  F   UNL     1      -9.055   1.620  66.916  1.00  0.00    -0.125 F  
HETATM   37  C   UNL     1      -9.901   4.832  68.384  1.00  0.00    -0.187 A  
ENDBRANCH  29  31
ENDBRANCH  24  27
ENDBRANCH  22  24
ENDBRANCH  17  20
ENDBRANCH  13  14
ENDBRANCH   8  13
BRANCH  10  38
HETATM   38  O   UNL     1     -11.212  16.262  64.306  1.00  0.00    -0.770 OA 
HETATM   39  C   UNL     1     -11.640  14.905  64.236  1.00  0.00    -0.191 C  
ENDBRANCH  10  38
ENDBRANCH   2   3
TORSDOF 8
ENDMDL
MODEL       32
REMARK 921   NORMALIZED FREE ENERGY PREDICTED BY IDOCK:   -6.15 KCAL/MOL
REMARK 922        TOTAL FREE ENERGY PREDICTED BY IDOCK:  -10.50 KCAL/MOL
REMARK 923 INTER-LIGAND FREE ENERGY PREDICTED BY IDOCK:   -9.68 KCAL/MOL
REMARK 924 INTRA-LIGAND FREE ENERGY PREDICTED BY IDOCK:   -0.81 KCAL/MOL
REMARK 927      BINDING AFFINITY PREDICTED BY RF-SCORE:    0.00 PKD
ROOT
HETATM    1  C   UNL     1      -6.500   8.028  74.529  1.00  0.00    -0.111 C  
HETATM    2  O   UNL     1      -7.660   8.685  74.030  1.00  0.00    -0.386 OA 
ENDROOT
BRANCH   2   3
HETATM    3  C   UNL     1      -8.109   8.311  72.790  1.00  0.00    -0.146 A  
HETATM    4  C   UNL     1      -9.149   7.393  72.601  1.00  0.00    -0.181 A  
HETATM    5  C   UNL     1      -9.563   6.980  71.345  1.00  0.00    -0.162 A  
HETATM    6  C   UNL     1      -8.955   7.539  70.209  1.00  0.00    -0.147 A  
HETATM    7  C   UNL     1      -7.941   8.507  70.385  1.00  0.00    -0.099 A  
HETATM    8  C   UNL     1      -9.393   7.063  68.954  1.00  0.00    -0.139 A  
HETATM    9  C   UNL     1     -10.389   6.093  68.878  1.00  0.00    -0.258 A  
HETATM   10  C   UNL     1      -7.484   8.858  71.662  1.00  0.00    -0.015 A  
HETATM   11  N   UNL     1     -10.519   6.041  71.277  1.00  0.00    -0.222 NA 
HETATM   12  C   UNL     1     -10.906   5.610  70.061  1.00  0.00    -0.296 A  
BRANCH   8  13
HETATM   13  O   UNL     1      -8.850   7.659  67.836  1.00  0.00    -0.127 OA 
BRANCH  13  14
HETATM   14  C   UNL     1      -9.480   8.721  67.233  1.00  0.00    -0.158 A  
HETATM   15  C   UNL     1     -10.189   9.557  68.092  1.00  0.00    -0.231 A  
HETATM   16  C   UNL     1     -10.805  10.711  67.605  1.00  0.00    -0.346 A  
HETATM   17  C   UNL     1     -10.718  11.046  66.252  1.00  0.00    -0.212 A  
HETATM   18  C   UNL     1      -9.380   9.051  65.885  1.00  0.00    -0.306 A  
HETATM   19  C   UNL     1     -10.019  10.195  65.390  1.00  0.00    -0.377 A  
BRANCH  17  20
HETATM   20  N   UNL     1     -11.295  12.215  65.708  1.00  0.00    -0.344 N  
HETATM   21  H   UNL     1     -12.251  12.141  65.360  1.00  0.00     0.000 HD 
HETATM   22  C   UNL     1     -10.683  13.445  65.603  1.00  0.00    -0.277 C  
HETATM   23  O   UNL     1      -9.536  13.740  65.894  1.00  0.00    -0.177 OA 
BRANCH  22  24
HETATM   24  C   UNL     1     -11.561  14.533  65.073  1.00  0.00    -0.382 C  
HETATM   25  C   UNL     1     -12.460  14.166  63.896  1.00  0.00    -0.115 C  
HETATM   26  C   UNL     1     -13.077  14.433  65.231  1.00  0.00     0.052 C  
BRANCH  24  27
HETATM   27  C   UNL     1     -10.939  15.888  65.147  1.00  0.00    -0.377 C  
HETATM   28  O   UNL     1     -11.071  16.649  64.197  1.00  0.00    -1.005 OA 
HETATM   29  N   UNL     1     -10.256  16.145  66.320  1.00  0.00    -0.304 N  
HETATM   30  H   UNL     1     -10.163  15.391  67.002  1.00  0.00     0.000 HD 
BRANCH  29  31
HETATM   31  C   UNL     1      -9.684  17.393  66.621  1.00  0.00    -0.290 A  
HETATM   32  C   UNL     1     -10.472  18.502  66.954  1.00  0.00    -0.434 A  
HETATM   33  C   UNL     1      -9.880  19.744  67.177  1.00  0.00    -0.513 A  
HETATM   34  C   UNL     1      -8.504  19.876  67.042  1.00  0.00    -0.328 A  
HETATM   35  C   UNL     1      -7.707  18.776  66.745  1.00  0.00    -0.252 A  
HETATM   36  F   UNL     1      -7.939  21.080  67.194  1.00  0.00    -0.359 F  
HETATM   37  C   UNL     1      -8.294  17.520  66.570  1.00  0.00    -0.304 A  
ENDBRANCH  29  31
ENDBRANCH  24  27
ENDBRANCH  22  24
ENDBRANCH  17  20
ENDBRANCH  13  14
ENDBRANCH   8  13
BRANCH  10  38
HETATM   38  O   UNL     1      -6.462   9.772  71.655  1.00  0.00    -0.309 OA 
HETATM   39  C   UNL     1      -5.506   9.625  70.610  1.00  0.00    -0.049 C  
ENDBRANCH  10  38
ENDBRANCH   2   3
TORSDOF 8
ENDMDL
MODEL       33
REMARK 921   NORMALIZED FREE ENERGY PREDICTED BY IDOCK:   -6.14 KCAL/MOL
REMARK 922        TOTAL FREE ENERGY PREDICTED BY IDOCK:  -10.49 KCAL/MOL
REMARK 923 INTER-LIGAND FREE ENERGY PREDICTED BY IDOCK:   -8.83 KCAL/MOL
REMARK 924 INTRA-LIGAND FREE ENERGY PREDICTED BY IDOCK:   -1.66 KCAL/MOL
REMARK 927      BINDING AFFINITY PREDICTED BY RF-SCORE:    0.00 PKD
ROOT
HETATM    1  C   UNL     1     -10.845   3.819  74.232  1.00  0.00    -0.089 C  
HETATM    2  O   UNL     1     -10.372   5.136  73.971  1.00  0.00    -0.215 OA 
ENDROOT
BRANCH   2   3
HETATM    3  C   UNL     1      -9.802   5.366  72.746  1.00  0.00    -0.157 A  
HETATM    4  C   UNL     1      -8.432   5.210  72.502  1.00  0.00    -0.121 A  
HETATM    5  C   UNL     1      -7.854   5.495  71.275  1.00  0.00    -0.110 A  
HETATM    6  C   UNL     1      -8.676   5.906  70.213  1.00  0.00    -0.142 A  
HETATM    7  C   UNL     1     -10.068   6.014  70.431  1.00  0.00    -0.249 A  
HETATM    8  C   UNL     1      -8.034   6.210  68.993  1.00  0.00    -0.108 A  
HETATM    9  C   UNL     1      -6.652   6.089  68.876  1.00  0.00    -0.051 A  
HETATM   10  C   UNL     1     -10.625   5.795  71.697  1.00  0.00    -0.245 A  
HETATM   11  N   UNL     1      -6.521   5.382  71.169  1.00  0.00    -0.034 NA 
HETATM   12  C   UNL     1      -5.947   5.687  69.989  1.00  0.00    -0.025 A  
BRANCH   8  13
HETATM   13  O   UNL     1      -8.843   6.546  67.928  1.00  0.00    -0.116 OA 
BRANCH  13  14
HETATM   14  C   UNL     1      -9.037   7.862  67.585  1.00  0.00    -0.133 A  
HETATM   15  C   UNL     1      -9.530   8.075  66.300  1.00  0.00    -0.241 A  
HETATM   16  C   UNL     1      -9.840   9.366  65.868  1.00  0.00    -0.362 A  
HETATM   17  C   UNL     1      -9.664  10.460  66.715  1.00  0.00    -0.181 A  
HETATM   18  C   UNL     1      -8.865   8.946  68.440  1.00  0.00    -0.134 A  
HETATM   19  C   UNL     1      -9.152  10.244  67.999  1.00  0.00    -0.132 A  
BRANCH  17  20
HETATM   20  N   UNL     1      -9.987  11.784  66.344  1.00  0.00    -0.206 N  
HETATM   21  H   UNL     1      -9.265  12.320  65.861  1.00  0.00     0.000 HD 
HETATM   22  C   UNL     1     -11.188  12.419  66.576  1.00  0.00    -0.319 C  
HETATM   23  O   UNL     1     -12.155  11.994  67.186  1.00  0.00    -0.587 OA 
BRANCH  22  24
HETATM   24  C   UNL     1     -11.291  13.790  65.989  1.00  0.00    -0.319 C  
HETATM   25  C   UNL     1     -11.332  13.873  64.466  1.00  0.00    -0.381 C  
HETATM   26  C   UNL     1     -12.560  14.208  65.250  1.00  0.00    -0.460 C  
BRANCH  24  27
HETATM   27  C   UNL     1     -10.566  14.831  66.777  1.00  0.00    -0.302 C  
HETATM   28  O   UNL     1     -10.013  14.501  67.818  1.00  0.00    -0.222 OA 
HETATM   29  N   UNL     1     -10.601  16.097  66.226  1.00  0.00    -0.300 N  
HETATM   30  H   UNL     1     -11.163  16.245  65.387  1.00  0.00     0.000 HD 
BRANCH  29  31
HETATM   31  C   UNL     1      -9.901  17.191  66.765  1.00  0.00    -0.285 A  
HETATM   32  C   UNL     1     -10.513  18.093  67.644  1.00  0.00    -0.432 A  
HETATM   33  C   UNL     1      -9.814  19.208  68.106  1.00  0.00    -0.444 A  
HETATM   34  C   UNL     1      -8.517  19.428  67.664  1.00  0.00    -0.304 A  
HETATM   35  C   UNL     1      -7.887  18.523  66.817  1.00  0.00    -0.257 A  
HETATM   36  F   UNL     1      -7.866  20.531  68.055  1.00  0.00    -0.289 F  
HETATM   37  C   UNL     1      -8.568  17.378  66.394  1.00  0.00    -0.282 A  
ENDBRANCH  29  31
ENDBRANCH  24  27
ENDBRANCH  22  24
ENDBRANCH  17  20
ENDBRANCH  13  14
ENDBRANCH   8  13
BRANCH  10  38
HETATM   38  O   UNL     1     -11.981   5.991  71.748  1.00  0.00    -0.238 OA 
HETATM   39  C   UNL     1     -12.457   7.197  71.159  1.00  0.00    -0.359 C  
ENDBRANCH  10  38
ENDBRANCH   2   3
TORSDOF 8
ENDMDL
MODEL       34
REMARK 921   NORMALIZED FREE ENERGY PREDICTED BY IDOCK:   -6.14 KCAL/MOL
REMARK 922        TOTAL FREE ENERGY PREDICTED BY IDOCK:  -10.48 KCAL/MOL
REMARK 923 INTER-LIGAND FREE ENERGY PREDICTED BY IDOCK:   -8.86 KCAL/MOL
REMARK 924 INTRA-LIGAND FREE ENERGY PREDICTED BY IDOCK:   -1.62 KCAL/MOL
REMARK 927      BINDING AFFINITY PREDICTED BY RF-SCORE:    0.00 PKD
ROOT
HETATM    1  C   UNL     1      -8.902   1.680  66.680  1.00  0.00    -0.118 C  
HETATM    2  O   UNL     1      -7.868   2.571  67.083  1.00  0.00    -0.069 OA 
ENDROOT
BRANCH   2   3
HETATM    3  C   UNL     1      -8.244   3.705  67.755  1.00  0.00    -0.088 A  
HETATM    4  C   UNL     1      -9.172   3.697  68.804  1.00  0.00    -0.222 A  
HETATM    5  C   UNL     1      -9.587   4.854  69.444  1.00  0.00    -0.169 A  
HETATM    6  C   UNL     1      -9.019   6.082  69.068  1.00  0.00    -0.124 A  
HETATM    7  C   UNL     1      -8.042   6.097  68.048  1.00  0.00    -0.114 A  
HETATM    8  C   UNL     1      -9.497   7.233  69.731  1.00  0.00    -0.149 A  
HETATM    9  C   UNL     1     -10.477   7.122  70.715  1.00  0.00    -0.227 A  
HETATM   10  C   UNL     1      -7.689   4.930  67.361  1.00  0.00    -0.091 A  
HETATM   11  N   UNL     1     -10.535   4.743  70.387  1.00  0.00    -0.116 NA 
HETATM   12  C   UNL     1     -10.967   5.865  70.993  1.00  0.00    -0.266 A  
BRANCH   8  13
HETATM   13  O   UNL     1      -8.893   8.432  69.416  1.00  0.00    -0.139 OA 
BRANCH  13  14
HETATM   14  C   UNL     1      -9.547   9.362  68.644  1.00  0.00    -0.147 A  
HETATM   15  C   UNL     1      -9.974  10.502  69.320  1.00  0.00    -0.233 A  
HETATM   16  C   UNL     1     -10.580  11.550  68.625  1.00  0.00    -0.236 A  
HETATM   17  C   UNL     1     -10.765  11.472  67.243  1.00  0.00    -0.244 A  
HETATM   18  C   UNL     1      -9.720   9.278  67.265  1.00  0.00    -0.218 A  
HETATM   19  C   UNL     1     -10.351  10.318  66.570  1.00  0.00    -0.276 A  
BRANCH  17  20
HETATM   20  N   UNL     1     -11.345  12.511  66.483  1.00  0.00    -0.314 N  
HETATM   21  H   UNL     1     -12.359  12.492  66.367  1.00  0.00     0.000 HD 
HETATM   22  C   UNL     1     -10.667  13.549  65.882  1.00  0.00    -0.277 C  
HETATM   23  O   UNL     1      -9.461  13.732  65.838  1.00  0.00    -0.177 OA 
BRANCH  22  24
HETATM   24  C   UNL     1     -11.542  14.564  65.219  1.00  0.00    -0.359 C  
HETATM   25  C   UNL     1     -12.340  14.084  64.010  1.00  0.00    -0.341 C  
HETATM   26  C   UNL     1     -13.060  14.414  65.277  1.00  0.00     0.052 C  
BRANCH  24  27
HETATM   27  C   UNL     1     -10.974  15.945  65.242  1.00  0.00    -0.324 C  
HETATM   28  O   UNL     1     -11.126  16.660  64.259  1.00  0.00    -1.029 OA 
HETATM   29  N   UNL     1     -10.316  16.277  66.409  1.00  0.00    -0.306 N  
HETATM   30  H   UNL     1     -10.201  15.557  67.123  1.00  0.00     0.000 HD 
BRANCH  29  31
HETATM   31  C   UNL     1      -9.796  17.558  66.663  1.00  0.00    -0.306 A  
HETATM   32  C   UNL     1     -10.601  18.592  67.159  1.00  0.00    -0.468 A  
HETATM   33  C   UNL     1     -10.073  19.871  67.334  1.00  0.00    -0.567 A  
HETATM   34  C   UNL     1      -8.751  20.115  66.987  1.00  0.00    -0.337 A  
HETATM   35  C   UNL     1      -7.933  19.090  66.525  1.00  0.00    -0.294 A  
HETATM   36  F   UNL     1      -8.260  21.356  67.093  1.00  0.00    -0.214 F  
HETATM   37  C   UNL     1      -8.445  17.796  66.398  1.00  0.00    -0.270 A  
ENDBRANCH  29  31
ENDBRANCH  24  27
ENDBRANCH  22  24
ENDBRANCH  17  20
ENDBRANCH  13  14
ENDBRANCH   8  13
BRANCH  10  38
HETATM   38  O   UNL     1      -6.764   5.126  66.368  1.00  0.00    -0.054 OA 
HETATM   39  C   UNL     1      -5.928   6.270  66.517  1.00  0.00    -0.028 C  
ENDBRANCH  10  38
ENDBRANCH   2   3
TORSDOF 8
ENDMDL
MODEL       35
REMARK 921   NORMALIZED FREE ENERGY PREDICTED BY IDOCK:   -6.05 KCAL/MOL
REMARK 922        TOTAL FREE ENERGY PREDICTED BY IDOCK:  -10.35 KCAL/MOL
REMARK 923 INTER-LIGAND FREE ENERGY PREDICTED BY IDOCK:   -8.83 KCAL/MOL
REMARK 924 INTRA-LIGAND FREE ENERGY PREDICTED BY IDOCK:   -1.52 KCAL/MOL
REMARK 927      BINDING AFFINITY PREDICTED BY RF-SCORE:    0.00 PKD
ROOT
HETATM    1  C   UNL     1      -9.918   1.480  63.861  1.00  0.00    -0.113 C  
HETATM    2  O   UNL     1      -8.700   1.599  64.587  1.00  0.00    -0.090 OA 
ENDROOT
BRANCH   2   3
HETATM    3  C   UNL     1      -8.643   2.558  65.564  1.00  0.00    -0.113 A  
HETATM    4  C   UNL     1      -9.103   2.344  66.870  1.00  0.00    -0.129 A  
HETATM    5  C   UNL     1      -9.091   3.334  67.838  1.00  0.00    -0.169 A  
HETATM    6  C   UNL     1      -8.549   4.590  67.522  1.00  0.00    -0.105 A  
HETATM    7  C   UNL     1      -8.032   4.803  66.225  1.00  0.00    -0.103 A  
HETATM    8  C   UNL     1      -8.587   5.573  68.536  1.00  0.00    -0.102 A  
HETATM    9  C   UNL     1      -9.132   5.277  69.783  1.00  0.00    -0.150 A  
HETATM   10  C   UNL     1      -8.119   3.815  65.236  1.00  0.00    -0.097 A  
HETATM   11  N   UNL     1      -9.623   3.046  69.036  1.00  0.00    -0.090 NA 
HETATM   12  C   UNL     1      -9.645   4.012  69.975  1.00  0.00    -0.204 A  
BRANCH   8  13
HETATM   13  O   UNL     1      -7.993   6.784  68.254  1.00  0.00    -0.109 OA 
BRANCH  13  14
HETATM   14  C   UNL     1      -8.756   7.879  67.929  1.00  0.00    -0.124 A  
HETATM   15  C   UNL     1      -8.997   8.768  68.973  1.00  0.00    -0.137 A  
HETATM   16  C   UNL     1      -9.695   9.955  68.742  1.00  0.00    -0.164 A  
HETATM   17  C   UNL     1     -10.160  10.269  67.464  1.00  0.00    -0.198 A  
HETATM   18  C   UNL     1      -9.209   8.187  66.649  1.00  0.00    -0.225 A  
HETATM   19  C   UNL     1      -9.932   9.365  66.422  1.00  0.00    -0.346 A  
BRANCH  17  20
HETATM   20  N   UNL     1     -10.846  11.467  67.165  1.00  0.00    -0.253 N  
HETATM   21  H   UNL     1     -11.802  11.380  66.819  1.00  0.00     0.000 HD 
HETATM   22  C   UNL     1     -10.342  12.743  67.297  1.00  0.00    -0.232 C  
HETATM   23  O   UNL     1      -9.215  13.073  67.628  1.00  0.00    -0.183 OA 
BRANCH  22  24
HETATM   24  C   UNL     1     -11.321  13.833  67.000  1.00  0.00    -0.345 C  
HETATM   25  C   UNL     1     -11.206  14.491  65.628  1.00  0.00    -0.335 C  
HETATM   26  C   UNL     1     -12.388  13.627  65.928  1.00  0.00    -0.516 C  
BRANCH  24  27
HETATM   27  C   UNL     1     -11.680  14.651  68.196  1.00  0.00    -0.330 C  
HETATM   28  O   UNL     1     -11.907  15.845  68.046  1.00  0.00    -0.170 OA 
HETATM   29  N   UNL     1     -11.719  13.948  69.384  1.00  0.00    -0.294 N  
HETATM   30  H   UNL     1     -11.436  12.967  69.376  1.00  0.00     0.000 HD 
BRANCH  29  31
HETATM   31  C   UNL     1     -12.128  14.516  70.603  1.00  0.00    -0.322 A  
HETATM   32  C   UNL     1     -11.327  15.437  71.290  1.00  0.00    -0.441 A  
HETATM   33  C   UNL     1     -11.728  15.929  72.531  1.00  0.00    -0.564 A  
HETATM   34  C   UNL     1     -12.916  15.477  73.090  1.00  0.00    -0.521 A  
HETATM   35  C   UNL     1     -13.736  14.589  72.404  1.00  0.00    -0.583 A  
HETATM   36  F   UNL     1     -13.272  15.899  74.310  1.00  0.00    -0.457 F  
HETATM   37  C   UNL     1     -13.361  14.134  71.137  1.00  0.00    -0.330 A  
ENDBRANCH  29  31
ENDBRANCH  24  27
ENDBRANCH  22  24
ENDBRANCH  17  20
ENDBRANCH  13  14
ENDBRANCH   8  13
BRANCH  10  38
HETATM   38  O   UNL     1      -7.616   4.200  64.020  1.00  0.00    -0.069 OA 
HETATM   39  C   UNL     1      -8.542   4.823  63.135  1.00  0.00    -0.117 C  
ENDBRANCH  10  38
ENDBRANCH   2   3
TORSDOF 8
ENDMDL
MODEL       36
REMARK 921   NORMALIZED FREE ENERGY PREDICTED BY IDOCK:   -6.00 KCAL/MOL
REMARK 922        TOTAL FREE ENERGY PREDICTED BY IDOCK:  -10.28 KCAL/MOL
REMARK 923 INTER-LIGAND FREE ENERGY PREDICTED BY IDOCK:   -9.36 KCAL/MOL
REMARK 924 INTRA-LIGAND FREE ENERGY PREDICTED BY IDOCK:   -0.92 KCAL/MOL
REMARK 927      BINDING AFFINITY PREDICTED BY RF-SCORE:    0.00 PKD
ROOT
HETATM    1  C   UNL     1     -12.612  16.148  74.190  1.00  0.00    -0.542 C  
HETATM    2  O   UNL     1     -12.936  15.011  73.398  1.00  0.00    -0.498 OA 
ENDROOT
BRANCH   2   3
HETATM    3  C   UNL     1     -12.482  14.996  72.106  1.00  0.00    -0.344 A  
HETATM    4  C   UNL     1     -11.674  16.007  71.570  1.00  0.00    -0.554 A  
HETATM    5  C   UNL     1     -11.262  16.013  70.248  1.00  0.00    -0.389 A  
HETATM    6  C   UNL     1     -11.619  14.938  69.418  1.00  0.00    -0.337 A  
HETATM    7  C   UNL     1     -12.387  13.884  69.960  1.00  0.00    -0.378 A  
HETATM    8  C   UNL     1     -11.197  15.006  68.072  1.00  0.00    -0.316 A  
HETATM    9  C   UNL     1     -10.455  16.095  67.621  1.00  0.00    -0.292 A  
HETATM   10  C   UNL     1     -12.859  13.930  71.278  1.00  0.00    -0.360 A  
HETATM   11  N   UNL     1     -10.552  17.067  69.817  1.00  0.00    -0.145 NA 
HETATM   12  C   UNL     1     -10.172  17.096  68.525  1.00  0.00    -0.346 A  
BRANCH   8  13
HETATM   13  O   UNL     1     -11.484  13.921  67.271  1.00  0.00    -0.311 OA 
BRANCH  13  14
HETATM   14  C   UNL     1     -11.057  12.663  67.619  1.00  0.00    -0.263 A  
HETATM   15  C   UNL     1      -9.705  12.561  67.940  1.00  0.00    -0.205 A  
HETATM   16  C   UNL     1      -9.175  11.348  68.384  1.00  0.00    -0.183 A  
HETATM   17  C   UNL     1      -9.988  10.222  68.514  1.00  0.00    -0.164 A  
HETATM   18  C   UNL     1     -11.878  11.547  67.753  1.00  0.00    -0.228 A  
HETATM   19  C   UNL     1     -11.341  10.323  68.173  1.00  0.00    -0.233 A  
BRANCH  17  20
HETATM   20  N   UNL     1      -9.514   8.977  68.984  1.00  0.00    -0.154 N  
HETATM   21  H   UNL     1      -9.220   8.297  68.283  1.00  0.00     0.000 HD 
HETATM   22  C   UNL     1      -9.414   8.597  70.305  1.00  0.00    -0.167 C  
HETATM   23  O   UNL     1      -9.764   9.220  71.294  1.00  0.00    -0.282 OA 
BRANCH  22  24
HETATM   24  C   UNL     1      -8.787   7.257  70.521  1.00  0.00    -0.153 C  
HETATM   25  C   UNL     1      -7.744   7.169  71.633  1.00  0.00    -0.088 C  
HETATM   26  C   UNL     1      -9.062   6.487  71.811  1.00  0.00    -0.142 C  
BRANCH  24  27
HETATM   27  C   UNL     1      -8.609   6.473  69.263  1.00  0.00    -0.127 C  
HETATM   28  O   UNL     1      -7.525   6.508  68.696  1.00  0.00    -0.085 OA 
HETATM   29  N   UNL     1      -9.728   5.769  68.862  1.00  0.00    -0.130 N  
HETATM   30  H   UNL     1     -10.592   5.887  69.392  1.00  0.00     0.000 HD 
BRANCH  29  31
HETATM   31  C   UNL     1      -9.735   4.897  67.759  1.00  0.00    -0.157 A  
HETATM   32  C   UNL     1      -9.040   3.682  67.779  1.00  0.00    -0.193 A  
HETATM   33  C   UNL     1      -9.006   2.871  66.645  1.00  0.00    -0.168 A  
HETATM   34  C   UNL     1      -9.648   3.295  65.488  1.00  0.00    -0.052 A  
HETATM   35  C   UNL     1     -10.369   4.484  65.465  1.00  0.00    -0.254 A  
HETATM   36  F   UNL     1      -9.565   2.550  64.378  1.00  0.00    -0.136 F  
HETATM   37  C   UNL     1     -10.446   5.271  66.616  1.00  0.00    -0.345 A  
ENDBRANCH  29  31
ENDBRANCH  24  27
ENDBRANCH  22  24
ENDBRANCH  17  20
ENDBRANCH  13  14
ENDBRANCH   8  13
BRANCH  10  38
HETATM   38  O   UNL     1     -13.631  12.854  71.630  1.00  0.00    -0.264 OA 
HETATM   39  C   UNL     1     -12.953  11.604  71.709  1.00  0.00    -0.377 C  
ENDBRANCH  10  38
ENDBRANCH   2   3
TORSDOF 8
ENDMDL
MODEL       37
REMARK 921   NORMALIZED FREE ENERGY PREDICTED BY IDOCK:   -5.98 KCAL/MOL
REMARK 922        TOTAL FREE ENERGY PREDICTED BY IDOCK:  -10.25 KCAL/MOL
REMARK 923 INTER-LIGAND FREE ENERGY PREDICTED BY IDOCK:   -8.79 KCAL/MOL
REMARK 924 INTRA-LIGAND FREE ENERGY PREDICTED BY IDOCK:   -1.45 KCAL/MOL
REMARK 927      BINDING AFFINITY PREDICTED BY RF-SCORE:    0.00 PKD
ROOT
HETATM    1  C   UNL     1     -11.408   3.743  73.534  1.00  0.00    -0.148 C  
HETATM    2  O   UNL     1     -11.489   5.124  73.196  1.00  0.00    -0.323 OA 
ENDROOT
BRANCH   2   3
HETATM    3  C   UNL     1     -10.960   5.506  71.991  1.00  0.00    -0.214 A  
HETATM    4  C   UNL     1      -9.794   4.943  71.458  1.00  0.00    -0.247 A  
HETATM    5  C   UNL     1      -9.235   5.371  70.264  1.00  0.00    -0.148 A  
HETATM    6  C   UNL     1      -9.888   6.372  69.527  1.00  0.00    -0.176 A  
HETATM    7  C   UNL     1     -11.094   6.911  70.027  1.00  0.00    -0.344 A  
HETATM    8  C   UNL     1      -9.262   6.792  68.332  1.00  0.00    -0.123 A  
HETATM    9  C   UNL     1      -8.062   6.214  67.926  1.00  0.00    -0.114 A  
HETATM   10  C   UNL     1     -11.605   6.520  71.271  1.00  0.00    -0.327 A  
HETATM   11  N   UNL     1      -8.076   4.815  69.880  1.00  0.00    -0.068 NA 
HETATM   12  C   UNL     1      -7.509   5.247  68.737  1.00  0.00    -0.074 A  
BRANCH   8  13
HETATM   13  O   UNL     1      -9.934   7.724  67.569  1.00  0.00    -0.158 OA 
BRANCH  13  14
HETATM   14  C   UNL     1      -9.934   9.050  67.926  1.00  0.00    -0.178 A  
HETATM   15  C   UNL     1     -11.093   9.753  67.604  1.00  0.00    -0.118 A  
HETATM   16  C   UNL     1     -11.239  11.087  67.987  1.00  0.00    -0.372 A  
HETATM   17  C   UNL     1     -10.229  11.737  68.699  1.00  0.00    -0.201 A  
HETATM   18  C   UNL     1      -8.925   9.687  68.643  1.00  0.00    -0.129 A  
HETATM   19  C   UNL     1      -9.059  11.034  69.005  1.00  0.00    -0.076 A  
BRANCH  17  20
HETATM   20  N   UNL     1     -10.332  13.075  69.138  1.00  0.00    -0.430 N  
HETATM   21  H   UNL     1     -10.594  13.225  70.112  1.00  0.00     0.000 HD 
HETATM   22  C   UNL     1     -10.111  14.198  68.369  1.00  0.00    -0.238 C  
HETATM   23  O   UNL     1      -9.852  14.252  67.178  1.00  0.00    -0.243 OA 
BRANCH  22  24
HETATM   24  C   UNL     1     -10.195  15.490  69.115  1.00  0.00    -0.240 C  
HETATM   25  C   UNL     1     -11.599  16.016  69.402  1.00  0.00    -0.320 C  
HETATM   26  C   UNL     1     -10.761  15.515  70.534  1.00  0.00    -0.309 C  
BRANCH  24  27
HETATM   27  C   UNL     1      -9.092  16.441  68.786  1.00  0.00    -0.244 C  
HETATM   28  O   UNL     1      -8.023  16.327  69.372  1.00  0.00    -0.216 OA 
HETATM   29  N   UNL     1      -9.409  17.379  67.824  1.00  0.00    -0.252 N  
HETATM   30  H   UNL     1     -10.365  17.406  67.469  1.00  0.00     0.000 HD 
BRANCH  29  31
HETATM   31  C   UNL     1      -8.479  18.299  67.309  1.00  0.00    -0.250 A  
HETATM   32  C   UNL     1      -8.396  19.609  67.795  1.00  0.00    -0.346 A  
HETATM   33  C   UNL     1      -7.512  20.520  67.216  1.00  0.00    -0.384 A  
HETATM   34  C   UNL     1      -6.735  20.121  66.137  1.00  0.00    -0.239 A  
HETATM   35  C   UNL     1      -6.784  18.813  65.666  1.00  0.00    -0.311 A  
HETATM   36  F   UNL     1      -5.932  21.009  65.538  1.00  0.00    -0.250 F  
HETATM   37  C   UNL     1      -7.631  17.886  66.278  1.00  0.00    -0.315 A  
ENDBRANCH  29  31
ENDBRANCH  24  27
ENDBRANCH  22  24
ENDBRANCH  17  20
ENDBRANCH  13  14
ENDBRANCH   8  13
BRANCH  10  38
HETATM   38  O   UNL     1     -12.755   7.174  71.630  1.00  0.00    -0.352 OA 
HETATM   39  C   UNL     1     -12.580   8.347  72.418  1.00  0.00    -0.316 C  
ENDBRANCH  10  38
ENDBRANCH   2   3
TORSDOF 8
ENDMDL
MODEL       38
REMARK 921   NORMALIZED FREE ENERGY PREDICTED BY IDOCK:   -5.97 KCAL/MOL
REMARK 922        TOTAL FREE ENERGY PREDICTED BY IDOCK:  -10.24 KCAL/MOL
REMARK 923 INTER-LIGAND FREE ENERGY PREDICTED BY IDOCK:   -8.67 KCAL/MOL
REMARK 924 INTRA-LIGAND FREE ENERGY PREDICTED BY IDOCK:   -1.56 KCAL/MOL
REMARK 927      BINDING AFFINITY PREDICTED BY RF-SCORE:    0.00 PKD
ROOT
HETATM    1  C   UNL     1      -7.224  19.386  69.216  1.00  0.00    -0.301 C  
HETATM    2  O   UNL     1      -8.169  19.550  68.164  1.00  0.00    -0.302 OA 
ENDROOT
BRANCH   2   3
HETATM    3  C   UNL     1      -8.879  18.443  67.782  1.00  0.00    -0.278 A  
HETATM    4  C   UNL     1      -9.887  17.874  68.570  1.00  0.00    -0.367 A  
HETATM    5  C   UNL     1     -10.566  16.725  68.201  1.00  0.00    -0.350 A  
HETATM    6  C   UNL     1     -10.275  16.129  66.963  1.00  0.00    -0.285 A  
HETATM    7  C   UNL     1      -9.298  16.723  66.133  1.00  0.00    -0.288 A  
HETATM    8  C   UNL     1     -10.974  14.943  66.647  1.00  0.00    -0.325 A  
HETATM    9  C   UNL     1     -11.909  14.420  67.537  1.00  0.00    -0.418 A  
HETATM   10  C   UNL     1      -8.569  17.842  66.555  1.00  0.00    -0.255 A  
HETATM   11  N   UNL     1     -11.462  16.221  69.064  1.00  0.00    -0.308 NA 
HETATM   12  C   UNL     1     -12.105  15.086  68.727  1.00  0.00    -0.180 A  
BRANCH   8  13
HETATM   13  O   UNL     1     -10.743  14.394  65.404  1.00  0.00    -0.308 OA 
BRANCH  13  14
HETATM   14  C   UNL     1     -10.360  13.080  65.281  1.00  0.00    -0.304 A  
HETATM   15  C   UNL     1     -10.747  12.456  64.097  1.00  0.00    -0.414 A  
HETATM   16  C   UNL     1     -10.348  11.146  63.826  1.00  0.00    -0.447 A  
HETATM   17  C   UNL     1      -9.554  10.443  64.734  1.00  0.00    -0.293 A  
HETATM   18  C   UNL     1      -9.561  12.390  66.188  1.00  0.00    -0.238 A  
HETATM   19  C   UNL     1      -9.182  11.067  65.929  1.00  0.00    -0.220 A  
BRANCH  17  20
HETATM   20  N   UNL     1      -9.096   9.128  64.502  1.00  0.00    -0.429 N  
HETATM   21  H   UNL     1      -9.651   8.367  64.894  1.00  0.00     0.000 HD 
HETATM   22  C   UNL     1      -7.967   8.778  63.792  1.00  0.00    -0.157 C  
HETATM   23  O   UNL     1      -7.134   9.518  63.296  1.00  0.00    -0.098 OA 
BRANCH  22  24
HETATM   24  C   UNL     1      -7.772   7.306  63.619  1.00  0.00    -0.120 C  
HETATM   25  C   UNL     1      -8.437   6.673  62.400  1.00  0.00     0.075 C  
HETATM   26  C   UNL     1      -6.947   6.780  62.447  1.00  0.00    -0.048 C  
BRANCH  24  27
HETATM   27  C   UNL     1      -7.708   6.558  64.910  1.00  0.00    -0.105 C  
HETATM   28  O   UNL     1      -6.939   6.949  65.779  1.00  0.00    -0.061 OA 
HETATM   29  N   UNL     1      -8.553   5.468  64.985  1.00  0.00    -0.195 N  
HETATM   30  H   UNL     1      -9.090   5.212  64.156  1.00  0.00     0.000 HD 
BRANCH  29  31
HETATM   31  C   UNL     1      -8.710   4.694  66.148  1.00  0.00    -0.114 A  
HETATM   32  C   UNL     1      -7.974   3.520  66.354  1.00  0.00    -0.088 A  
HETATM   33  C   UNL     1      -8.203   2.735  67.484  1.00  0.00    -0.087 A  
HETATM   34  C   UNL     1      -9.184   3.117  68.389  1.00  0.00    -0.178 A  
HETATM   35  C   UNL     1      -9.898   4.297  68.214  1.00  0.00    -0.106 A  
HETATM   36  F   UNL     1      -9.450   2.333  69.442  1.00  0.00    -0.178 F  
HETATM   37  C   UNL     1      -9.635   5.110  67.109  1.00  0.00    -0.156 A  
ENDBRANCH  29  31
ENDBRANCH  24  27
ENDBRANCH  22  24
ENDBRANCH  17  20
ENDBRANCH  13  14
ENDBRANCH   8  13
BRANCH  10  38
HETATM   38  O   UNL     1      -7.626  18.264  65.653  1.00  0.00    -0.532 OA 
HETATM   39  C   UNL     1      -6.316  17.735  65.833  1.00  0.00    -0.218 C  
ENDBRANCH  10  38
ENDBRANCH   2   3
TORSDOF 8
ENDMDL
MODEL       39
REMARK 921   NORMALIZED FREE ENERGY PREDICTED BY IDOCK:   -5.94 KCAL/MOL
REMARK 922        TOTAL FREE ENERGY PREDICTED BY IDOCK:  -10.18 KCAL/MOL
REMARK 923 INTER-LIGAND FREE ENERGY PREDICTED BY IDOCK:   -8.58 KCAL/MOL
REMARK 924 INTRA-LIGAND FREE ENERGY PREDICTED BY IDOCK:   -1.60 KCAL/MOL
REMARK 927      BINDING AFFINITY PREDICTED BY RF-SCORE:    0.00 PKD
ROOT
HETATM    1  C   UNL     1     -11.011   2.951  73.885  1.00  0.00    -0.195 C  
HETATM    2  O   UNL     1      -9.983   3.812  73.410  1.00  0.00    -0.117 OA 
ENDROOT
BRANCH   2   3
HETATM    3  C   UNL     1     -10.124   4.321  72.146  1.00  0.00    -0.185 A  
HETATM    4  C   UNL     1      -9.767   3.609  70.994  1.00  0.00    -0.243 A  
HETATM    5  C   UNL     1      -9.864   4.148  69.721  1.00  0.00    -0.150 A  
HETATM    6  C   UNL     1     -10.392   5.440  69.567  1.00  0.00    -0.350 A  
HETATM    7  C   UNL     1     -10.807   6.148  70.716  1.00  0.00    -0.350 A  
HETATM    8  C   UNL     1     -10.443   5.954  68.253  1.00  0.00    -0.236 A  
HETATM    9  C   UNL     1      -9.994   5.187  67.180  1.00  0.00    -0.221 A  
HETATM   10  C   UNL     1     -10.633   5.618  72.001  1.00  0.00    -0.229 A  
HETATM   11  N   UNL     1      -9.425   3.408  68.691  1.00  0.00    -0.164 NA 
HETATM   12  C   UNL     1      -9.486   3.936  67.454  1.00  0.00    -0.195 A  
BRANCH   8  13
HETATM   13  O   UNL     1     -11.024   7.193  68.088  1.00  0.00    -0.149 OA 
BRANCH  13  14
HETATM   14  C   UNL     1     -10.260   8.333  68.115  1.00  0.00    -0.210 A  
HETATM   15  C   UNL     1     -10.583   9.243  69.119  1.00  0.00    -0.228 A  
HETATM   16  C   UNL     1      -9.824  10.401  69.294  1.00  0.00    -0.243 A  
HETATM   17  C   UNL     1      -8.730  10.666  68.468  1.00  0.00    -0.141 A  
HETATM   18  C   UNL     1      -9.166   8.584  67.292  1.00  0.00    -0.168 A  
HETATM   19  C   UNL     1      -8.419   9.759  67.449  1.00  0.00    -0.121 A  
BRANCH  17  20
HETATM   20  N   UNL     1      -7.909  11.806  68.615  1.00  0.00    -0.192 N  
HETATM   21  H   UNL     1      -7.246  11.803  69.390  1.00  0.00     0.000 HD 
HETATM   22  C   UNL     1      -7.923  12.921  67.806  1.00  0.00    -0.162 C  
HETATM   23  O   UNL     1      -8.669  13.161  66.871  1.00  0.00    -0.209 OA 
BRANCH  22  24
HETATM   24  C   UNL     1      -6.878  13.940  68.133  1.00  0.00    -0.122 C  
HETATM   25  C   UNL     1      -6.115  13.733  69.438  1.00  0.00    -0.103 C  
HETATM   26  C   UNL     1      -5.404  13.543  68.138  1.00  0.00    -0.107 C  
BRANCH  24  27
HETATM   27  C   UNL     1      -7.230  15.319  67.681  1.00  0.00    -0.180 C  
HETATM   28  O   UNL     1      -6.522  15.861  66.842  1.00  0.00    -0.294 OA 
HETATM   29  N   UNL     1      -8.355  15.851  68.280  1.00  0.00    -0.161 N  
HETATM   30  H   UNL     1      -8.810  15.315  69.019  1.00  0.00     0.000 HD 
BRANCH  29  31
HETATM   31  C   UNL     1      -8.903  17.095  67.922  1.00  0.00    -0.226 A  
HETATM   32  C   UNL     1      -9.764  17.229  66.825  1.00  0.00    -0.285 A  
HETATM   33  C   UNL     1     -10.236  18.488  66.452  1.00  0.00    -0.449 A  
HETATM   34  C   UNL     1      -9.821  19.607  67.161  1.00  0.00    -0.369 A  
HETATM   35  C   UNL     1      -8.993  19.483  68.272  1.00  0.00    -0.386 A  
HETATM   36  F   UNL     1     -10.221  20.823  66.767  1.00  0.00    -0.523 F  
HETATM   37  C   UNL     1      -8.561  18.218  68.678  1.00  0.00    -0.301 A  
ENDBRANCH  29  31
ENDBRANCH  24  27
ENDBRANCH  22  24
ENDBRANCH  17  20
ENDBRANCH  13  14
ENDBRANCH   8  13
BRANCH  10  38
HETATM   38  O   UNL     1     -11.043   6.453  73.008  1.00  0.00    -0.250 OA 
HETATM   39  C   UNL     1     -10.561   7.791  72.938  1.00  0.00    -0.366 C  
ENDBRANCH  10  38
ENDBRANCH   2   3
TORSDOF 8
ENDMDL
MODEL       40
REMARK 921   NORMALIZED FREE ENERGY PREDICTED BY IDOCK:   -5.92 KCAL/MOL
REMARK 922        TOTAL FREE ENERGY PREDICTED BY IDOCK:  -10.16 KCAL/MOL
REMARK 923 INTER-LIGAND FREE ENERGY PREDICTED BY IDOCK:   -8.90 KCAL/MOL
REMARK 924 INTRA-LIGAND FREE ENERGY PREDICTED BY IDOCK:   -1.26 KCAL/MOL
REMARK 927      BINDING AFFINITY PREDICTED BY RF-SCORE:    0.00 PKD
ROOT
HETATM    1  C   UNL     1     -10.254   1.946  63.607  1.00  0.00    -0.121 C  
HETATM    2  O   UNL     1      -9.121   1.935  64.469  1.00  0.00    -0.113 OA 
ENDROOT
BRANCH   2   3
HETATM    3  C   UNL     1      -8.968   3.002  65.316  1.00  0.00    -0.142 A  
HETATM    4  C   UNL     1      -9.321   2.956  66.671  1.00  0.00    -0.081 A  
HETATM    5  C   UNL     1      -9.213   4.053  67.509  1.00  0.00    -0.164 A  
HETATM    6  C   UNL     1      -8.679   5.249  67.002  1.00  0.00    -0.107 A  
HETATM    7  C   UNL     1      -8.267   5.292  65.651  1.00  0.00    -0.121 A  
HETATM    8  C   UNL     1      -8.616   6.345  67.890  1.00  0.00    -0.116 A  
HETATM    9  C   UNL     1      -9.062   6.213  69.203  1.00  0.00    -0.128 A  
HETATM   10  C   UNL     1      -8.453   4.197  64.798  1.00  0.00    -0.116 A  
HETATM   11  N   UNL     1      -9.649   3.923  68.772  1.00  0.00    -0.148 NA 
HETATM   12  C   UNL     1      -9.577   4.993  69.586  1.00  0.00    -0.170 A  
BRANCH   8  13
HETATM   13  O   UNL     1      -8.028   7.499  67.418  1.00  0.00    -0.112 OA 
BRANCH  13  14
HETATM   14  C   UNL     1      -8.798   8.532  66.943  1.00  0.00    -0.137 A  
HETATM   15  C   UNL     1      -9.353   9.358  67.918  1.00  0.00    -0.142 A  
HETATM   16  C   UNL     1     -10.090  10.486  67.553  1.00  0.00    -0.225 A  
HETATM   17  C   UNL     1     -10.280  10.805  66.207  1.00  0.00    -0.245 A  
HETATM   18  C   UNL     1      -8.975   8.847  65.599  1.00  0.00    -0.249 A  
HETATM   19  C   UNL     1      -9.736   9.964  65.230  1.00  0.00    -0.383 A  
BRANCH  17  20
HETATM   20  N   UNL     1     -10.991  11.948  65.778  1.00  0.00    -0.302 N  
HETATM   21  H   UNL     1     -11.949  11.805  65.459  1.00  0.00     0.000 HD 
HETATM   22  C   UNL     1     -10.507  13.237  65.749  1.00  0.00    -0.284 C  
HETATM   23  O   UNL     1      -9.382  13.623  66.022  1.00  0.00    -0.152 OA 
BRANCH  22  24
HETATM   24  C   UNL     1     -11.508  14.269  65.340  1.00  0.00    -0.332 C  
HETATM   25  C   UNL     1     -12.511  13.852  64.267  1.00  0.00    -0.305 C  
HETATM   26  C   UNL     1     -12.986  14.068  65.668  1.00  0.00    -0.337 C  
BRANCH  24  27
HETATM   27  C   UNL     1     -10.970  15.662  65.361  1.00  0.00    -0.333 C  
HETATM   28  O   UNL     1     -11.133  16.371  64.376  1.00  0.00    -0.825 OA 
HETATM   29  N   UNL     1     -10.323  16.011  66.531  1.00  0.00    -0.292 N  
HETATM   30  H   UNL     1     -10.196  15.295  67.246  1.00  0.00     0.000 HD 
BRANCH  29  31
HETATM   31  C   UNL     1      -9.832  17.303  66.783  1.00  0.00    -0.294 A  
HETATM   32  C   UNL     1     -10.644  18.303  67.335  1.00  0.00    -0.425 A  
HETATM   33  C   UNL     1     -10.149  19.595  67.508  1.00  0.00    -0.538 A  
HETATM   34  C   UNL     1      -8.853  19.886  67.104  1.00  0.00    -0.330 A  
HETATM   35  C   UNL     1      -8.026  18.895  66.586  1.00  0.00    -0.280 A  
HETATM   36  F   UNL     1      -8.396  21.140  67.211  1.00  0.00    -0.351 F  
HETATM   37  C   UNL     1      -8.504  17.589  66.459  1.00  0.00    -0.300 A  
ENDBRANCH  29  31
ENDBRANCH  24  27
ENDBRANCH  22  24
ENDBRANCH  17  20
ENDBRANCH  13  14
ENDBRANCH   8  13
BRANCH  10  38
HETATM   38  O   UNL     1      -8.046   4.422  63.508  1.00  0.00    -0.086 OA 
HETATM   39  C   UNL     1      -7.952   5.788  63.117  1.00  0.00    -0.108 C  
ENDBRANCH  10  38
ENDBRANCH   2   3
TORSDOF 8
ENDMDL
MODEL       41
REMARK 921   NORMALIZED FREE ENERGY PREDICTED BY IDOCK:   -5.89 KCAL/MOL
REMARK 922        TOTAL FREE ENERGY PREDICTED BY IDOCK:  -10.11 KCAL/MOL
REMARK 923 INTER-LIGAND FREE ENERGY PREDICTED BY IDOCK:   -8.87 KCAL/MOL
REMARK 924 INTRA-LIGAND FREE ENERGY PREDICTED BY IDOCK:   -1.24 KCAL/MOL
REMARK 927      BINDING AFFINITY PREDICTED BY RF-SCORE:    0.00 PKD
ROOT
HETATM    1  C   UNL     1     -10.884  19.097  67.492  1.00  0.00    -0.414 C  
HETATM    2  O   UNL     1     -10.420  18.084  68.378  1.00  0.00    -0.366 OA 
ENDROOT
BRANCH   2   3
HETATM    3  C   UNL     1     -10.678  16.783  68.033  1.00  0.00    -0.355 A  
HETATM    4  C   UNL     1     -10.350  16.247  66.782  1.00  0.00    -0.296 A  
HETATM    5  C   UNL     1     -10.660  14.946  66.421  1.00  0.00    -0.307 A  
HETATM    6  C   UNL     1     -11.282  14.108  67.361  1.00  0.00    -0.334 A  
HETATM    7  C   UNL     1     -11.569  14.620  68.646  1.00  0.00    -0.343 A  
HETATM    8  C   UNL     1     -11.602  12.801  66.934  1.00  0.00    -0.366 A  
HETATM    9  C   UNL     1     -11.295  12.388  65.640  1.00  0.00    -0.387 A  
HETATM   10  C   UNL     1     -11.316  15.959  68.969  1.00  0.00    -0.371 A  
HETATM   11  N   UNL     1     -10.367  14.555  65.171  1.00  0.00    -0.399 NA 
HETATM   12  C   UNL     1     -10.694  13.302  64.801  1.00  0.00    -0.378 A  
BRANCH   8  13
HETATM   13  O   UNL     1     -12.148  11.952  67.874  1.00  0.00    -0.558 OA 
BRANCH  13  14
HETATM   14  C   UNL     1     -11.444  10.862  68.324  1.00  0.00    -0.305 A  
HETATM   15  C   UNL     1     -11.462  10.671  69.704  1.00  0.00    -0.361 A  
HETATM   16  C   UNL     1     -10.847   9.553  70.269  1.00  0.00    -0.319 A  
HETATM   17  C   UNL     1     -10.207   8.610  69.463  1.00  0.00    -0.209 A  
HETATM   18  C   UNL     1     -10.816   9.923  67.511  1.00  0.00    -0.307 A  
HETATM   19  C   UNL     1     -10.176   8.814  68.080  1.00  0.00    -0.264 A  
BRANCH  17  20
HETATM   20  N   UNL     1      -9.594   7.445  69.976  1.00  0.00    -0.168 N  
HETATM   21  H   UNL     1     -10.201   6.761  70.427  1.00  0.00     0.000 HD 
HETATM   22  C   UNL     1      -8.249   7.150  69.922  1.00  0.00    -0.133 C  
HETATM   23  O   UNL     1      -7.344   7.846  69.490  1.00  0.00    -0.082 OA 
BRANCH  22  24
HETATM   24  C   UNL     1      -7.886   5.802  70.457  1.00  0.00    -0.100 C  
HETATM   25  C   UNL     1      -6.788   5.767  71.517  1.00  0.00    -0.067 C  
HETATM   26  C   UNL     1      -8.195   5.451  71.910  1.00  0.00    -0.119 C  
BRANCH  24  27
HETATM   27  C   UNL     1      -7.980   4.713  69.440  1.00  0.00    -0.066 C  
HETATM   28  O   UNL     1      -7.961   3.549  69.820  1.00  0.00    -0.050 OA 
HETATM   29  N   UNL     1      -8.080   5.153  68.134  1.00  0.00    -0.094 N  
HETATM   30  H   UNL     1      -8.010   6.155  67.953  1.00  0.00     0.000 HD 
BRANCH  29  31
HETATM   31  C   UNL     1      -8.273   4.288  67.043  1.00  0.00    -0.101 A  
HETATM   32  C   UNL     1      -7.213   3.563  66.483  1.00  0.00    -0.067 A  
HETATM   33  C   UNL     1      -7.423   2.768  65.356  1.00  0.00    -0.072 A  
HETATM   34  C   UNL     1      -8.685   2.724  64.781  1.00  0.00    -0.111 A  
HETATM   35  C   UNL     1      -9.753   3.413  65.346  1.00  0.00    -0.053 A  
HETATM   36  F   UNL     1      -8.875   2.012  63.662  1.00  0.00    -0.086 F  
HETATM   37  C   UNL     1      -9.557   4.169  66.504  1.00  0.00    -0.220 A  
ENDBRANCH  29  31
ENDBRANCH  24  27
ENDBRANCH  22  24
ENDBRANCH  17  20
ENDBRANCH  13  14
ENDBRANCH   8  13
BRANCH  10  38
HETATM   38  O   UNL     1     -11.699  16.306  70.239  1.00  0.00    -0.259 OA 
HETATM   39  C   UNL     1     -11.414  15.351  71.256  1.00  0.00    -0.389 C  
ENDBRANCH  10  38
ENDBRANCH   2   3
TORSDOF 8
ENDMDL
MODEL       42
REMARK 921   NORMALIZED FREE ENERGY PREDICTED BY IDOCK:   -5.89 KCAL/MOL
REMARK 922        TOTAL FREE ENERGY PREDICTED BY IDOCK:  -10.11 KCAL/MOL
REMARK 923 INTER-LIGAND FREE ENERGY PREDICTED BY IDOCK:   -8.93 KCAL/MOL
REMARK 924 INTRA-LIGAND FREE ENERGY PREDICTED BY IDOCK:   -1.18 KCAL/MOL
REMARK 927      BINDING AFFINITY PREDICTED BY RF-SCORE:    0.00 PKD
ROOT
HETATM    1  C   UNL     1      -9.544   1.468  68.235  1.00  0.00    -0.139 C  
HETATM    2  O   UNL     1      -9.011   2.728  68.629  1.00  0.00    -0.104 OA 
ENDROOT
BRANCH   2   3
HETATM    3  C   UNL     1      -8.769   3.644  67.639  1.00  0.00    -0.107 A  
HETATM    4  C   UNL     1      -9.133   3.437  66.303  1.00  0.00    -0.160 A  
HETATM    5  C   UNL     1      -8.839   4.344  65.298  1.00  0.00    -0.135 A  
HETATM    6  C   UNL     1      -8.196   5.547  65.633  1.00  0.00    -0.127 A  
HETATM    7  C   UNL     1      -7.872   5.793  66.986  1.00  0.00    -0.102 A  
HETATM    8  C   UNL     1      -7.894   6.424  64.569  1.00  0.00    -0.115 A  
HETATM    9  C   UNL     1      -8.238   6.089  63.262  1.00  0.00    -0.034 A  
HETATM   10  C   UNL     1      -8.109   4.833  67.977  1.00  0.00    -0.089 A  
HETATM   11  N   UNL     1      -9.168   4.014  64.040  1.00  0.00    -0.141 NA 
HETATM   12  C   UNL     1      -8.858   4.876  63.052  1.00  0.00    -0.090 A  
BRANCH   8  13
HETATM   13  O   UNL     1      -7.327   7.636  64.900  1.00  0.00    -0.067 OA 
BRANCH  13  14
HETATM   14  C   UNL     1      -8.087   8.780  64.926  1.00  0.00    -0.147 A  
HETATM   15  C   UNL     1      -7.971   9.598  63.804  1.00  0.00    -0.143 A  
HETATM   16  C   UNL     1      -8.754  10.747  63.684  1.00  0.00    -0.096 A  
HETATM   17  C   UNL     1      -9.666  11.093  64.682  1.00  0.00    -0.262 A  
HETATM   18  C   UNL     1      -9.000   9.112  65.923  1.00  0.00    -0.231 A  
HETATM   19  C   UNL     1      -9.768  10.279  65.816  1.00  0.00    -0.297 A  
BRANCH  17  20
HETATM   20  N   UNL     1     -10.505  12.226  64.603  1.00  0.00    -0.290 N  
HETATM   21  H   UNL     1     -11.296  12.174  63.961  1.00  0.00     0.000 HD 
HETATM   22  C   UNL     1     -10.352  13.397  65.314  1.00  0.00    -0.319 C  
HETATM   23  O   UNL     1      -9.452  13.697  66.081  1.00  0.00    -0.241 OA 
BRANCH  22  24
HETATM   24  C   UNL     1     -11.443  14.398  65.106  1.00  0.00    -0.362 C  
HETATM   25  C   UNL     1     -12.532  14.017  64.107  1.00  0.00    -0.279 C  
HETATM   26  C   UNL     1     -12.865  14.081  65.563  1.00  0.00    -0.453 C  
BRANCH  24  27
HETATM   27  C   UNL     1     -10.977  15.814  65.202  1.00  0.00    -0.382 C  
HETATM   28  O   UNL     1     -11.297  16.600  64.320  1.00  0.00    -1.116 OA 
HETATM   29  N   UNL     1     -10.208  16.091  66.316  1.00  0.00    -0.299 N  
HETATM   30  H   UNL     1      -9.956  15.321  66.936  1.00  0.00     0.000 HD 
BRANCH  29  31
HETATM   31  C   UNL     1      -9.755  17.383  66.636  1.00  0.00    -0.290 A  
HETATM   32  C   UNL     1     -10.631  18.377  67.089  1.00  0.00    -0.416 A  
HETATM   33  C   UNL     1     -10.164  19.669  67.331  1.00  0.00    -0.561 A  
HETATM   34  C   UNL     1      -8.828  19.965  67.093  1.00  0.00    -0.330 A  
HETATM   35  C   UNL     1      -7.941  18.978  66.675  1.00  0.00    -0.282 A  
HETATM   36  F   UNL     1      -8.390  21.219  67.264  1.00  0.00    -0.313 F  
HETATM   37  C   UNL     1      -8.397  17.672  66.481  1.00  0.00    -0.300 A  
ENDBRANCH  29  31
ENDBRANCH  24  27
ENDBRANCH  22  24
ENDBRANCH  17  20
ENDBRANCH  13  14
ENDBRANCH   8  13
BRANCH  10  38
HETATM   38  O   UNL     1      -7.690   5.209  69.227  1.00  0.00    -0.074 OA 
HETATM   39  C   UNL     1      -6.344   5.664  69.319  1.00  0.00    -0.037 C  
ENDBRANCH  10  38
ENDBRANCH   2   3
TORSDOF 8
ENDMDL
MODEL       43
REMARK 921   NORMALIZED FREE ENERGY PREDICTED BY IDOCK:   -5.83 KCAL/MOL
REMARK 922        TOTAL FREE ENERGY PREDICTED BY IDOCK:  -10.02 KCAL/MOL
REMARK 923 INTER-LIGAND FREE ENERGY PREDICTED BY IDOCK:   -8.49 KCAL/MOL
REMARK 924 INTRA-LIGAND FREE ENERGY PREDICTED BY IDOCK:   -1.53 KCAL/MOL
REMARK 927      BINDING AFFINITY PREDICTED BY RF-SCORE:    0.00 PKD
ROOT
HETATM    1  C   UNL     1      -9.958  20.394  67.327  1.00  0.00    -0.424 C  
HETATM    2  O   UNL     1      -8.907  19.437  67.255  1.00  0.00    -0.285 OA 
ENDROOT
BRANCH   2   3
HETATM    3  C   UNL     1      -9.266  18.119  67.151  1.00  0.00    -0.256 A  
HETATM    4  C   UNL     1     -10.381  17.579  67.804  1.00  0.00    -0.367 A  
HETATM    5  C   UNL     1     -10.708  16.234  67.738  1.00  0.00    -0.325 A  
HETATM    6  C   UNL     1      -9.926  15.381  66.942  1.00  0.00    -0.247 A  
HETATM    7  C   UNL     1      -8.831  15.923  66.234  1.00  0.00    -0.386 A  
HETATM    8  C   UNL     1     -10.285  14.016  66.931  1.00  0.00    -0.260 A  
HETATM    9  C   UNL     1     -11.374  13.568  67.675  1.00  0.00    -0.326 A  
HETATM   10  C   UNL     1      -8.470  17.269  66.372  1.00  0.00    -0.269 A  
HETATM   11  N   UNL     1     -11.755  15.807  68.461  1.00  0.00    -0.370 NA 
HETATM   12  C   UNL     1     -12.061  14.496  68.427  1.00  0.00    -0.214 A  
BRANCH   8  13
HETATM   13  O   UNL     1      -9.565  13.187  66.097  1.00  0.00    -0.262 OA 
BRANCH  13  14
HETATM   14  C   UNL     1      -9.486  11.839  66.349  1.00  0.00    -0.221 A  
HETATM   15  C   UNL     1     -10.213  11.028  65.482  1.00  0.00    -0.327 A  
HETATM   16  C   UNL     1     -10.146   9.638  65.592  1.00  0.00    -0.231 A  
HETATM   17  C   UNL     1      -9.350   9.040  66.570  1.00  0.00    -0.191 A  
HETATM   18  C   UNL     1      -8.682  11.252  67.323  1.00  0.00    -0.145 A  
HETATM   19  C   UNL     1      -8.635   9.858  67.451  1.00  0.00    -0.125 A  
BRANCH  17  20
HETATM   20  N   UNL     1      -9.221   7.640  66.711  1.00  0.00    -0.151 N  
HETATM   21  H   UNL     1      -9.648   7.216  67.534  1.00  0.00     0.000 HD 
HETATM   22  C   UNL     1      -8.568   6.797  65.839  1.00  0.00    -0.147 C  
HETATM   23  O   UNL     1      -7.940   7.094  64.836  1.00  0.00    -0.121 OA 
BRANCH  22  24
HETATM   24  C   UNL     1      -8.669   5.345  66.184  1.00  0.00    -0.129 C  
HETATM   25  C   UNL     1      -9.638   4.516  65.346  1.00  0.00    -0.185 C  
HETATM   26  C   UNL     1      -8.167   4.292  65.198  1.00  0.00    -0.102 C  
BRANCH  24  27
HETATM   27  C   UNL     1      -8.513   5.068  67.642  1.00  0.00    -0.104 C  
HETATM   28  O   UNL     1      -7.536   5.520  68.226  1.00  0.00    -0.072 OA 
HETATM   29  N   UNL     1      -9.522   4.304  68.194  1.00  0.00    -0.155 N  
HETATM   30  H   UNL     1     -10.242   3.931  67.574  1.00  0.00     0.000 HD 
BRANCH  29  31
HETATM   31  C   UNL     1      -9.607   4.015  69.567  1.00  0.00    -0.195 A  
HETATM   32  C   UNL     1     -10.065   4.963  70.490  1.00  0.00    -0.312 A  
HETATM   33  C   UNL     1     -10.071   4.672  71.854  1.00  0.00    -0.266 A  
HETATM   34  C   UNL     1      -9.595   3.442  72.288  1.00  0.00    -0.135 A  
HETATM   35  C   UNL     1      -9.169   2.479  71.379  1.00  0.00    -0.185 A  
HETATM   36  F   UNL     1      -9.540   3.182  73.601  1.00  0.00    -0.100 F  
HETATM   37  C   UNL     1      -9.210   2.751  70.010  1.00  0.00    -0.205 A  
ENDBRANCH  29  31
ENDBRANCH  24  27
ENDBRANCH  22  24
ENDBRANCH  17  20
ENDBRANCH  13  14
ENDBRANCH   8  13
BRANCH  10  38
HETATM   38  O   UNL     1      -7.354  17.622  65.657  1.00  0.00    -0.487 OA 
HETATM   39  C   UNL     1      -6.109  17.454  66.328  1.00  0.00    -0.203 C  
ENDBRANCH  10  38
ENDBRANCH   2   3
TORSDOF 8
ENDMDL
MODEL       44
REMARK 921   NORMALIZED FREE ENERGY PREDICTED BY IDOCK:   -5.80 KCAL/MOL
REMARK 922        TOTAL FREE ENERGY PREDICTED BY IDOCK:   -9.98 KCAL/MOL
REMARK 923 INTER-LIGAND FREE ENERGY PREDICTED BY IDOCK:   -9.15 KCAL/MOL
REMARK 924 INTRA-LIGAND FREE ENERGY PREDICTED BY IDOCK:   -0.83 KCAL/MOL
REMARK 927      BINDING AFFINITY PREDICTED BY RF-SCORE:    0.00 PKD
ROOT
HETATM    1  C   UNL     1     -10.774  19.814  65.659  1.00  0.00    -0.314 C  
HETATM    2  O   UNL     1      -9.875  18.953  66.350  1.00  0.00    -0.343 OA 
ENDROOT
BRANCH   2   3
HETATM    3  C   UNL     1      -9.955  17.613  66.077  1.00  0.00    -0.209 A  
HETATM    4  C   UNL     1     -10.928  17.064  65.232  1.00  0.00    -0.010 A  
HETATM    5  C   UNL     1     -11.036  15.702  65.002  1.00  0.00    -0.389 A  
HETATM    6  C   UNL     1     -10.104  14.835  65.594  1.00  0.00    -0.393 A  
HETATM    7  C   UNL     1      -9.084  15.380  66.405  1.00  0.00    -0.350 A  
HETATM    8  C   UNL     1     -10.275  13.455  65.350  1.00  0.00    -0.298 A  
HETATM    9  C   UNL     1     -11.323  13.006  64.549  1.00  0.00    -0.377 A  
HETATM   10  C   UNL     1      -9.034  16.751  66.687  1.00  0.00    -0.250 A  
HETATM   11  N   UNL     1     -12.050  15.275  64.234  1.00  0.00    -0.497 NA 
HETATM   12  C   UNL     1     -12.182  13.950  64.030  1.00  0.00    -0.369 A  
BRANCH   8  13
HETATM   13  O   UNL     1      -9.322  12.605  65.871  1.00  0.00    -0.147 OA 
BRANCH  13  14
HETATM   14  C   UNL     1      -9.592  11.268  66.033  1.00  0.00    -0.218 A  
HETATM   15  C   UNL     1      -9.078  10.433  65.044  1.00  0.00    -0.237 A  
HETATM   16  C   UNL     1      -9.221   9.048  65.144  1.00  0.00    -0.159 A  
HETATM   17  C   UNL     1      -9.879   8.479  66.236  1.00  0.00    -0.215 A  
HETATM   18  C   UNL     1     -10.242  10.709  67.130  1.00  0.00    -0.261 A  
HETATM   19  C   UNL     1     -10.409   9.321  67.219  1.00  0.00    -0.332 A  
BRANCH  17  20
HETATM   20  N   UNL     1     -10.029   7.085  66.406  1.00  0.00    -0.428 N  
HETATM   21  H   UNL     1     -10.902   6.669  66.079  1.00  0.00     0.000 HD 
HETATM   22  C   UNL     1      -9.104   6.235  66.972  1.00  0.00    -0.123 C  
HETATM   23  O   UNL     1      -8.033   6.523  67.481  1.00  0.00    -0.111 OA 
BRANCH  22  24
HETATM   24  C   UNL     1      -9.483   4.789  66.937  1.00  0.00    -0.165 C  
HETATM   25  C   UNL     1     -10.372   4.350  65.777  1.00  0.00    -0.246 C  
HETATM   26  C   UNL     1      -8.951   3.889  65.824  1.00  0.00    -0.131 C  
BRANCH  24  27
HETATM   27  C   UNL     1      -9.670   4.190  68.292  1.00  0.00    -0.082 C  
HETATM   28  O   UNL     1      -9.526   2.981  68.426  1.00  0.00    -0.193 OA 
HETATM   29  N   UNL     1      -9.997   5.096  69.282  1.00  0.00    -0.193 N  
HETATM   30  H   UNL     1     -10.157   6.068  69.016  1.00  0.00     0.000 HD 
BRANCH  29  31
HETATM   31  C   UNL     1     -10.120   4.745  70.637  1.00  0.00    -0.218 A  
HETATM   32  C   UNL     1      -9.737   3.482  71.107  1.00  0.00    -0.237 A  
HETATM   33  C   UNL     1      -9.937   3.138  72.444  1.00  0.00    -0.234 A  
HETATM   34  C   UNL     1     -10.544   4.051  73.297  1.00  0.00    -0.189 A  
HETATM   35  C   UNL     1     -10.898   5.320  72.851  1.00  0.00    -0.322 A  
HETATM   36  F   UNL     1     -10.795   3.701  74.565  1.00  0.00    -0.246 F  
HETATM   37  C   UNL     1     -10.651   5.683  71.525  1.00  0.00    -0.306 A  
ENDBRANCH  29  31
ENDBRANCH  24  27
ENDBRANCH  22  24
ENDBRANCH  17  20
ENDBRANCH  13  14
ENDBRANCH   8  13
BRANCH  10  38
HETATM   38  O   UNL     1      -8.013  17.109  67.529  1.00  0.00    -0.173 OA 
HETATM   39  C   UNL     1      -6.827  17.583  66.899  1.00  0.00    -0.185 C  
ENDBRANCH  10  38
ENDBRANCH   2   3
TORSDOF 8
ENDMDL
MODEL       45
REMARK 921   NORMALIZED FREE ENERGY PREDICTED BY IDOCK:   -5.79 KCAL/MOL
REMARK 922        TOTAL FREE ENERGY PREDICTED BY IDOCK:   -9.97 KCAL/MOL
REMARK 923 INTER-LIGAND FREE ENERGY PREDICTED BY IDOCK:   -8.51 KCAL/MOL
REMARK 924 INTRA-LIGAND FREE ENERGY PREDICTED BY IDOCK:   -1.45 KCAL/MOL
REMARK 927      BINDING AFFINITY PREDICTED BY RF-SCORE:    0.00 PKD
ROOT
HETATM    1  C   UNL     1      -5.941  20.334  68.815  1.00  0.00    -0.300 C  
HETATM    2  O   UNL     1      -6.165  19.763  67.531  1.00  0.00    -0.192 OA 
ENDROOT
BRANCH   2   3
HETATM    3  C   UNL     1      -7.067  18.734  67.451  1.00  0.00    -0.206 A  
HETATM    4  C   UNL     1      -8.350  18.800  68.009  1.00  0.00    -0.315 A  
HETATM    5  C   UNL     1      -9.238  17.737  67.970  1.00  0.00    -0.273 A  
HETATM    6  C   UNL     1      -8.865  16.562  67.298  1.00  0.00    -0.206 A  
HETATM    7  C   UNL     1      -7.595  16.502  66.683  1.00  0.00    -0.310 A  
HETATM    8  C   UNL     1      -9.795  15.499  67.312  1.00  0.00    -0.224 A  
HETATM    9  C   UNL     1     -11.019  15.644  67.960  1.00  0.00    -0.318 A  
HETATM   10  C   UNL     1      -6.681  17.557  66.796  1.00  0.00    -0.202 A  
HETATM   11  N   UNL     1     -10.414  17.879  68.601  1.00  0.00    -0.322 NA 
HETATM   12  C   UNL     1     -11.271  16.841  68.595  1.00  0.00    -0.170 A  
BRANCH   8  13
HETATM   13  O   UNL     1      -9.463  14.370  66.595  1.00  0.00    -0.260 OA 
BRANCH  13  14
HETATM   14  C   UNL     1      -9.745  13.120  67.089  1.00  0.00    -0.235 A  
HETATM   15  C   UNL     1      -8.856  12.646  68.051  1.00  0.00    -0.195 A  
HETATM   16  C   UNL     1      -9.084  11.421  68.682  1.00  0.00    -0.138 A  
HETATM   17  C   UNL     1     -10.206  10.655  68.361  1.00  0.00    -0.173 A  
HETATM   18  C   UNL     1     -10.871  12.367  66.768  1.00  0.00    -0.283 A  
HETATM   19  C   UNL     1     -11.087  11.126  67.382  1.00  0.00    -0.370 A  
BRANCH  17  20
HETATM   20  N   UNL     1     -10.504   9.424  68.985  1.00  0.00    -0.213 N  
HETATM   21  H   UNL     1     -10.286   8.575  68.464  1.00  0.00     0.000 HD 
HETATM   22  C   UNL     1     -11.063   9.266  70.235  1.00  0.00    -0.251 C  
HETATM   23  O   UNL     1     -11.455  10.134  70.997  1.00  0.00    -0.354 OA 
BRANCH  22  24
HETATM   24  C   UNL     1     -11.181   7.846  70.689  1.00  0.00    -0.269 C  
HETATM   25  C   UNL     1     -11.492   7.632  72.168  1.00  0.00    -0.345 C  
HETATM   26  C   UNL     1     -12.533   7.303  71.146  1.00  0.00    -0.373 C  
BRANCH  24  27
HETATM   27  C   UNL     1     -10.258   6.914  69.975  1.00  0.00    -0.196 C  
HETATM   28  O   UNL     1      -9.050   7.077  70.092  1.00  0.00    -0.148 OA 
HETATM   29  N   UNL     1     -10.891   5.937  69.232  1.00  0.00    -0.335 N  
HETATM   30  H   UNL     1     -11.909   5.962  69.164  1.00  0.00     0.000 HD 
BRANCH  29  31
HETATM   31  C   UNL     1     -10.201   4.909  68.566  1.00  0.00    -0.034 A  
HETATM   32  C   UNL     1      -9.568   3.875  69.267  1.00  0.00    -0.232 A  
HETATM   33  C   UNL     1      -8.831   2.908  68.582  1.00  0.00    -0.165 A  
HETATM   34  C   UNL     1      -8.712   2.997  67.201  1.00  0.00    -0.125 A  
HETATM   35  C   UNL     1      -9.363   4.000  66.490  1.00  0.00    -0.192 A  
HETATM   36  F   UNL     1      -7.954   2.108  66.547  1.00  0.00    -0.071 F  
HETATM   37  C   UNL     1     -10.143   4.938  67.170  1.00  0.00    -0.228 A  
ENDBRANCH  29  31
ENDBRANCH  24  27
ENDBRANCH  22  24
ENDBRANCH  17  20
ENDBRANCH  13  14
ENDBRANCH   8  13
BRANCH  10  38
HETATM   38  O   UNL     1      -5.477  17.319  66.184  1.00  0.00    -0.285 OA 
HETATM   39  C   UNL     1      -5.212  18.089  65.017  1.00  0.00    -0.008 C  
ENDBRANCH  10  38
ENDBRANCH   2   3
TORSDOF 8
ENDMDL
MODEL       46
REMARK 921   NORMALIZED FREE ENERGY PREDICTED BY IDOCK:   -5.79 KCAL/MOL
REMARK 922        TOTAL FREE ENERGY PREDICTED BY IDOCK:   -9.97 KCAL/MOL
REMARK 923 INTER-LIGAND FREE ENERGY PREDICTED BY IDOCK:   -8.45 KCAL/MOL
REMARK 924 INTRA-LIGAND FREE ENERGY PREDICTED BY IDOCK:   -1.51 KCAL/MOL
REMARK 927      BINDING AFFINITY PREDICTED BY RF-SCORE:    0.00 PKD
ROOT
HETATM    1  C   UNL     1      -5.312   3.240  67.850  1.00  0.00    -0.013 C  
HETATM    2  O   UNL     1      -5.594   4.479  67.209  1.00  0.00    -0.016 OA 
ENDROOT
BRANCH   2   3
HETATM    3  C   UNL     1      -6.319   5.401  67.918  1.00  0.00    -0.039 A  
HETATM    4  C   UNL     1      -5.736   6.290  68.830  1.00  0.00    -0.019 A  
HETATM    5  C   UNL     1      -6.480   7.184  69.583  1.00  0.00    -0.040 A  
HETATM    6  C   UNL     1      -7.870   7.245  69.391  1.00  0.00    -0.122 A  
HETATM    7  C   UNL     1      -8.464   6.392  68.434  1.00  0.00    -0.116 A  
HETATM    8  C   UNL     1      -8.585   8.152  70.202  1.00  0.00    -0.129 A  
HETATM    9  C   UNL     1      -7.915   8.943  71.132  1.00  0.00    -0.181 A  
HETATM   10  C   UNL     1      -7.707   5.443  67.736  1.00  0.00    -0.092 A  
HETATM   11  N   UNL     1      -5.831   7.940  70.482  1.00  0.00    -0.029 NA 
HETATM   12  C   UNL     1      -6.550   8.790  71.240  1.00  0.00    -0.075 A  
BRANCH   8  13
HETATM   13  O   UNL     1      -9.939   8.267  69.969  1.00  0.00    -0.184 OA 
BRANCH  13  14
HETATM   14  C   UNL     1     -10.423   9.230  69.118  1.00  0.00    -0.217 A  
HETATM   15  C   UNL     1     -10.862  10.401  69.732  1.00  0.00    -0.342 A  
HETATM   16  C   UNL     1     -11.302  11.480  68.962  1.00  0.00    -0.339 A  
HETATM   17  C   UNL     1     -11.307  11.403  67.569  1.00  0.00    -0.292 A  
HETATM   18  C   UNL     1     -10.418   9.147  67.728  1.00  0.00    -0.306 A  
HETATM   19  C   UNL     1     -10.883  10.219  66.956  1.00  0.00    -0.248 A  
BRANCH  17  20
HETATM   20  N   UNL     1     -11.714  12.471  66.738  1.00  0.00    -0.386 N  
HETATM   21  H   UNL     1     -12.714  12.566  66.561  1.00  0.00     0.000 HD 
HETATM   22  C   UNL     1     -10.882  13.396  66.146  1.00  0.00    -0.281 C  
HETATM   23  O   UNL     1      -9.662  13.433  66.171  1.00  0.00    -0.282 OA 
BRANCH  22  24
HETATM   24  C   UNL     1     -11.589  14.478  65.395  1.00  0.00    -0.355 C  
HETATM   25  C   UNL     1     -12.285  14.062  64.102  1.00  0.00    -0.433 C  
HETATM   26  C   UNL     1     -13.112  14.458  65.284  1.00  0.00     0.052 C  
BRANCH  24  27
HETATM   27  C   UNL     1     -10.912  15.806  65.488  1.00  0.00    -0.268 C  
HETATM   28  O   UNL     1     -10.810  16.487  64.476  1.00  0.00    -0.802 OA 
HETATM   29  N   UNL     1     -10.459  16.133  66.751  1.00  0.00    -0.298 N  
HETATM   30  H   UNL     1     -10.547  15.438  67.493  1.00  0.00     0.000 HD 
BRANCH  29  31
HETATM   31  C   UNL     1      -9.882  17.377  67.065  1.00  0.00    -0.286 A  
HETATM   32  C   UNL     1     -10.664  18.471  67.458  1.00  0.00    -0.419 A  
HETATM   33  C   UNL     1     -10.070  19.710  67.693  1.00  0.00    -0.544 A  
HETATM   34  C   UNL     1      -8.702  19.855  67.509  1.00  0.00    -0.338 A  
HETATM   35  C   UNL     1      -7.910  18.768  67.152  1.00  0.00    -0.245 A  
HETATM   36  F   UNL     1      -8.138  21.058  67.673  1.00  0.00    -0.286 F  
HETATM   37  C   UNL     1      -8.496  17.514  66.965  1.00  0.00    -0.252 A  
ENDBRANCH  29  31
ENDBRANCH  24  27
ENDBRANCH  22  24
ENDBRANCH  17  20
ENDBRANCH  13  14
ENDBRANCH   8  13
BRANCH  10  38
HETATM   38  O   UNL     1      -8.444   4.661  66.884  1.00  0.00    -0.106 OA 
HETATM   39  C   UNL     1      -8.345   4.989  65.501  1.00  0.00    -0.126 C  
ENDBRANCH  10  38
ENDBRANCH   2   3
TORSDOF 8
ENDMDL
MODEL       47
REMARK 921   NORMALIZED FREE ENERGY PREDICTED BY IDOCK:   -5.70 KCAL/MOL
REMARK 922        TOTAL FREE ENERGY PREDICTED BY IDOCK:   -9.83 KCAL/MOL
REMARK 923 INTER-LIGAND FREE ENERGY PREDICTED BY IDOCK:   -8.82 KCAL/MOL
REMARK 924 INTRA-LIGAND FREE ENERGY PREDICTED BY IDOCK:   -1.02 KCAL/MOL
REMARK 927      BINDING AFFINITY PREDICTED BY RF-SCORE:    0.00 PKD
ROOT
HETATM    1  C   UNL     1      -9.638   1.585  68.986  1.00  0.00    -0.069 C  
HETATM    2  O   UNL     1      -8.325   1.876  68.520  1.00  0.00    -0.055 OA 
ENDROOT
BRANCH   2   3
HETATM    3  C   UNL     1      -8.167   3.002  67.754  1.00  0.00    -0.079 A  
HETATM    4  C   UNL     1      -8.513   3.056  66.399  1.00  0.00    -0.107 A  
HETATM    5  C   UNL     1      -8.302   4.180  65.617  1.00  0.00    -0.109 A  
HETATM    6  C   UNL     1      -7.769   5.335  66.214  1.00  0.00    -0.088 A  
HETATM    7  C   UNL     1      -7.466   5.311  67.593  1.00  0.00    -0.083 A  
HETATM    8  C   UNL     1      -7.548   6.443  65.368  1.00  0.00    -0.089 A  
HETATM    9  C   UNL     1      -7.862   6.369  64.013  1.00  0.00    -0.111 A  
HETATM   10  C   UNL     1      -7.616   4.143  68.351  1.00  0.00    -0.066 A  
HETATM   11  N   UNL     1      -8.602   4.102  64.311  1.00  0.00    -0.108 NA 
HETATM   12  C   UNL     1      -8.371   5.180  63.538  1.00  0.00    -0.128 A  
BRANCH   8  13
HETATM   13  O   UNL     1      -7.091   7.601  65.961  1.00  0.00    -0.066 OA 
BRANCH  13  14
HETATM   14  C   UNL     1      -7.877   8.727  65.995  1.00  0.00    -0.105 A  
HETATM   15  C   UNL     1      -7.863   9.427  67.199  1.00  0.00    -0.098 A  
HETATM   16  C   UNL     1      -8.562  10.629  67.326  1.00  0.00    -0.126 A  
HETATM   17  C   UNL     1      -9.283  11.148  66.249  1.00  0.00    -0.195 A  
HETATM   18  C   UNL     1      -8.587   9.240  64.913  1.00  0.00    -0.204 A  
HETATM   19  C   UNL     1      -9.310  10.433  65.047  1.00  0.00    -0.279 A  
BRANCH  17  20
HETATM   20  N   UNL     1      -9.985  12.372  66.309  1.00  0.00    -0.241 N  
HETATM   21  H   UNL     1      -9.574  13.166  65.818  1.00  0.00     0.000 HD 
HETATM   22  C   UNL     1     -11.174  12.591  66.970  1.00  0.00    -0.302 C  
HETATM   23  O   UNL     1     -11.801  11.808  67.665  1.00  0.00    -0.558 OA 
BRANCH  22  24
HETATM   24  C   UNL     1     -11.745  13.960  66.787  1.00  0.00    -0.423 C  
HETATM   25  C   UNL     1     -11.501  14.620  65.432  1.00  0.00    -0.352 C  
HETATM   26  C   UNL     1     -12.884  14.183  65.794  1.00  0.00    -0.363 C  
BRANCH  24  27
HETATM   27  C   UNL     1     -11.734  14.781  68.033  1.00  0.00    -0.333 C  
HETATM   28  O   UNL     1     -11.214  15.889  68.004  1.00  0.00    -0.343 OA 
HETATM   29  N   UNL     1     -12.332  14.180  69.124  1.00  0.00    -0.520 N  
HETATM   30  H   UNL     1     -12.663  13.219  69.027  1.00  0.00     0.000 HD 
BRANCH  29  31
HETATM   31  C   UNL     1     -12.507  14.826  70.360  1.00  0.00    -0.349 A  
HETATM   32  C   UNL     1     -11.448  15.476  71.006  1.00  0.00    -0.426 A  
HETATM   33  C   UNL     1     -11.635  16.046  72.265  1.00  0.00    -0.474 A  
HETATM   34  C   UNL     1     -12.875  15.941  72.881  1.00  0.00    -0.486 A  
HETATM   35  C   UNL     1     -13.944  15.327  72.236  1.00  0.00    -0.646 A  
HETATM   36  F   UNL     1     -13.041  16.432  74.116  1.00  0.00    -0.489 F  
HETATM   37  C   UNL     1     -13.771  14.800  70.954  1.00  0.00    -0.213 A  
ENDBRANCH  29  31
ENDBRANCH  24  27
ENDBRANCH  22  24
ENDBRANCH  17  20
ENDBRANCH  13  14
ENDBRANCH   8  13
BRANCH  10  38
HETATM   38  O   UNL     1      -7.230   4.277  69.660  1.00  0.00    -0.049 OA 
HETATM   39  C   UNL     1      -8.152   4.948  70.513  1.00  0.00    -0.084 C  
ENDBRANCH  10  38
ENDBRANCH   2   3
TORSDOF 8
ENDMDL
MODEL       48
REMARK 921   NORMALIZED FREE ENERGY PREDICTED BY IDOCK:   -5.69 KCAL/MOL
REMARK 922        TOTAL FREE ENERGY PREDICTED BY IDOCK:   -9.82 KCAL/MOL
REMARK 923 INTER-LIGAND FREE ENERGY PREDICTED BY IDOCK:   -8.28 KCAL/MOL
REMARK 924 INTRA-LIGAND FREE ENERGY PREDICTED BY IDOCK:   -1.54 KCAL/MOL
REMARK 927      BINDING AFFINITY PREDICTED BY RF-SCORE:    0.00 PKD
ROOT
HETATM    1  C   UNL     1     -10.172   2.371  72.455  1.00  0.00    -0.149 C  
HETATM    2  O   UNL     1      -9.938   3.774  72.414  1.00  0.00    -0.151 OA 
ENDROOT
BRANCH   2   3
HETATM    3  C   UNL     1      -9.501   4.302  71.227  1.00  0.00    -0.160 A  
HETATM    4  C   UNL     1      -9.734   3.691  69.989  1.00  0.00    -0.180 A  
HETATM    5  C   UNL     1      -9.244   4.203  68.798  1.00  0.00    -0.146 A  
HETATM    6  C   UNL     1      -8.529   5.412  68.819  1.00  0.00    -0.096 A  
HETATM    7  C   UNL     1      -8.333   6.067  70.055  1.00  0.00    -0.123 A  
HETATM    8  C   UNL     1      -8.027   5.875  67.583  1.00  0.00    -0.102 A  
HETATM    9  C   UNL     1      -8.256   5.152  66.415  1.00  0.00    -0.108 A  
HETATM   10  C   UNL     1      -8.771   5.498  71.258  1.00  0.00    -0.131 A  
HETATM   11  N   UNL     1      -9.462   3.499  67.676  1.00  0.00    -0.201 NA 
HETATM   12  C   UNL     1      -8.963   3.973  66.519  1.00  0.00    -0.129 A  
BRANCH   8  13
HETATM   13  O   UNL     1      -7.386   7.096  67.587  1.00  0.00    -0.088 OA 
BRANCH  13  14
HETATM   14  C   UNL     1      -8.048   8.235  67.199  1.00  0.00    -0.108 A  
HETATM   15  C   UNL     1      -8.083   9.255  68.147  1.00  0.00    -0.107 A  
HETATM   16  C   UNL     1      -8.660  10.487  67.837  1.00  0.00    -0.123 A  
HETATM   17  C   UNL     1      -9.209  10.718  66.574  1.00  0.00    -0.168 A  
HETATM   18  C   UNL     1      -8.585   8.457  65.934  1.00  0.00    -0.179 A  
HETATM   19  C   UNL     1      -9.188   9.685  65.630  1.00  0.00    -0.270 A  
BRANCH  17  20
HETATM   20  N   UNL     1      -9.780  11.952  66.194  1.00  0.00    -0.227 N  
HETATM   21  H   UNL     1      -9.205  12.573  65.624  1.00  0.00     0.000 HD 
HETATM   22  C   UNL     1     -11.043  12.394  66.522  1.00  0.00    -0.301 C  
HETATM   23  O   UNL     1     -11.866  11.848  67.237  1.00  0.00    -0.576 OA 
BRANCH  22  24
HETATM   24  C   UNL     1     -11.426  13.700  65.903  1.00  0.00    -0.329 C  
HETATM   25  C   UNL     1     -12.071  13.632  64.522  1.00  0.00    -0.459 C  
HETATM   26  C   UNL     1     -12.900  14.041  65.696  1.00  0.00    -0.442 C  
BRANCH  24  27
HETATM   27  C   UNL     1     -10.491  14.815  66.240  1.00  0.00    -0.296 C  
HETATM   28  O   UNL     1      -9.601  15.096  65.448  1.00  0.00    -0.270 OA 
HETATM   29  N   UNL     1     -10.741  15.429  67.452  1.00  0.00    -0.291 N  
HETATM   30  H   UNL     1     -11.474  15.044  68.048  1.00  0.00     0.000 HD 
BRANCH  29  31
HETATM   31  C   UNL     1     -10.035  16.557  67.904  1.00  0.00    -0.245 A  
HETATM   32  C   UNL     1     -10.500  17.857  67.670  1.00  0.00    -0.406 A  
HETATM   33  C   UNL     1      -9.741  18.958  68.068  1.00  0.00    -0.386 A  
HETATM   34  C   UNL     1      -8.510  18.751  68.676  1.00  0.00    -0.329 A  
HETATM   35  C   UNL     1      -8.052  17.465  68.944  1.00  0.00    -0.183 A  
HETATM   36  F   UNL     1      -7.751  19.804  69.002  1.00  0.00    -0.382 F  
HETATM   37  C   UNL     1      -8.834  16.362  68.591  1.00  0.00    -0.234 A  
ENDBRANCH  29  31
ENDBRANCH  24  27
ENDBRANCH  22  24
ENDBRANCH  17  20
ENDBRANCH  13  14
ENDBRANCH   8  13
BRANCH  10  38
HETATM   38  O   UNL     1      -8.458   6.237  72.369  1.00  0.00    -0.115 OA 
HETATM   39  C   UNL     1      -7.171   5.998  72.930  1.00  0.00    -0.093 C  
ENDBRANCH  10  38
ENDBRANCH   2   3
TORSDOF 8
ENDMDL
MODEL       49
REMARK 921   NORMALIZED FREE ENERGY PREDICTED BY IDOCK:   -5.67 KCAL/MOL
REMARK 922        TOTAL FREE ENERGY PREDICTED BY IDOCK:   -9.79 KCAL/MOL
REMARK 923 INTER-LIGAND FREE ENERGY PREDICTED BY IDOCK:   -9.21 KCAL/MOL
REMARK 924 INTRA-LIGAND FREE ENERGY PREDICTED BY IDOCK:   -0.58 KCAL/MOL
REMARK 927      BINDING AFFINITY PREDICTED BY RF-SCORE:    0.00 PKD
ROOT
HETATM    1  C   UNL     1      -5.314   6.193  74.435  1.00  0.00    -0.038 C  
HETATM    2  O   UNL     1      -6.110   7.207  73.832  1.00  0.00    -0.064 OA 
ENDROOT
BRANCH   2   3
HETATM    3  C   UNL     1      -6.687   6.915  72.623  1.00  0.00    -0.062 A  
HETATM    4  C   UNL     1      -7.730   5.991  72.480  1.00  0.00    -0.100 A  
HETATM    5  C   UNL     1      -8.273   5.662  71.249  1.00  0.00    -0.125 A  
HETATM    6  C   UNL     1      -7.802   6.317  70.099  1.00  0.00    -0.106 A  
HETATM    7  C   UNL     1      -6.788   7.290  70.236  1.00  0.00    -0.052 A  
HETATM    8  C   UNL     1      -8.370   5.925  68.867  1.00  0.00    -0.102 A  
HETATM    9  C   UNL     1      -9.355   4.941  68.827  1.00  0.00    -0.184 A  
HETATM   10  C   UNL     1      -6.198   7.557  71.478  1.00  0.00    -0.036 A  
HETATM   11  N   UNL     1      -9.218   4.710  71.215  1.00  0.00    -0.133 NA 
HETATM   12  C   UNL     1      -9.731   4.361  70.020  1.00  0.00    -0.216 A  
BRANCH   8  13
HETATM   13  O   UNL     1      -7.961   6.612  67.744  1.00  0.00    -0.110 OA 
BRANCH  13  14
HETATM   14  C   UNL     1      -8.425   7.881  67.494  1.00  0.00    -0.123 A  
HETATM   15  C   UNL     1      -9.811   8.010  67.454  1.00  0.00    -0.244 A  
HETATM   16  C   UNL     1     -10.399   9.265  67.285  1.00  0.00    -0.332 A  
HETATM   17  C   UNL     1      -9.608  10.408  67.155  1.00  0.00    -0.164 A  
HETATM   18  C   UNL     1      -7.628   9.015  67.374  1.00  0.00    -0.088 A  
HETATM   19  C   UNL     1      -8.216  10.272  67.178  1.00  0.00    -0.121 A  
BRANCH  17  20
HETATM   20  N   UNL     1     -10.145  11.706  67.011  1.00  0.00    -0.207 N  
HETATM   21  H   UNL     1      -9.539  12.416  66.599  1.00  0.00     0.000 HD 
HETATM   22  C   UNL     1     -11.414  12.102  67.376  1.00  0.00    -0.345 C  
HETATM   23  O   UNL     1     -12.273  11.442  67.937  1.00  0.00    -0.592 OA 
BRANCH  22  24
HETATM   24  C   UNL     1     -11.753  13.514  67.020  1.00  0.00    -0.424 C  
HETATM   25  C   UNL     1     -11.175  14.039  65.708  1.00  0.00    -0.303 C  
HETATM   26  C   UNL     1     -12.646  13.802  65.816  1.00  0.00    -0.525 C  
BRANCH  24  27
HETATM   27  C   UNL     1     -11.863  14.416  68.204  1.00  0.00    -0.327 C  
HETATM   28  O   UNL     1     -11.806  15.627  68.029  1.00  0.00    -0.244 OA 
HETATM   29  N   UNL     1     -12.023  13.764  69.411  1.00  0.00    -0.332 N  
HETATM   30  H   UNL     1     -11.981  12.744  69.421  1.00  0.00     0.000 HD 
BRANCH  29  31
HETATM   31  C   UNL     1     -12.240  14.435  70.627  1.00  0.00    -0.344 A  
HETATM   32  C   UNL     1     -11.537  15.600  70.959  1.00  0.00    -0.434 A  
HETATM   33  C   UNL     1     -11.723  16.203  72.203  1.00  0.00    -0.569 A  
HETATM   34  C   UNL     1     -12.593  15.623  73.116  1.00  0.00    -0.476 A  
HETATM   35  C   UNL     1     -13.323  14.487  72.786  1.00  0.00    -0.600 A  
HETATM   36  F   UNL     1     -12.726  16.165  74.334  1.00  0.00    -0.570 F  
HETATM   37  C   UNL     1     -13.175  13.910  71.522  1.00  0.00    -0.425 A  
ENDBRANCH  29  31
ENDBRANCH  24  27
ENDBRANCH  22  24
ENDBRANCH  17  20
ENDBRANCH  13  14
ENDBRANCH   8  13
BRANCH  10  38
HETATM   38  O   UNL     1      -5.196   8.492  71.428  1.00  0.00    -0.032 OA 
HETATM   39  C   UNL     1      -5.533   9.728  70.808  1.00  0.00    -0.057 C  
ENDBRANCH  10  38
ENDBRANCH   2   3
TORSDOF 8
ENDMDL
MODEL       50
REMARK 921   NORMALIZED FREE ENERGY PREDICTED BY IDOCK:   -5.58 KCAL/MOL
REMARK 922        TOTAL FREE ENERGY PREDICTED BY IDOCK:   -9.66 KCAL/MOL
REMARK 923 INTER-LIGAND FREE ENERGY PREDICTED BY IDOCK:   -9.44 KCAL/MOL
REMARK 924 INTRA-LIGAND FREE ENERGY PREDICTED BY IDOCK:   -0.21 KCAL/MOL
REMARK 927      BINDING AFFINITY PREDICTED BY RF-SCORE:    0.00 PKD
ROOT
HETATM    1  C   UNL     1     -11.725   8.476  72.480  1.00  0.00    -0.320 C  
HETATM    2  O   UNL     1     -12.587   9.008  71.481  1.00  0.00    -0.314 OA 
ENDROOT
BRANCH   2   3
HETATM    3  C   UNL     1     -12.512  10.356  71.241  1.00  0.00    -0.415 A  
HETATM    4  C   UNL     1     -13.330  11.291  71.887  1.00  0.00    -0.413 A  
HETATM    5  C   UNL     1     -13.286  12.646  71.602  1.00  0.00    -0.298 A  
HETATM    6  C   UNL     1     -12.348  13.116  70.667  1.00  0.00    -0.405 A  
HETATM    7  C   UNL     1     -11.480  12.189  70.049  1.00  0.00    -0.156 A  
HETATM    8  C   UNL     1     -12.363  14.500  70.392  1.00  0.00    -0.338 A  
HETATM    9  C   UNL     1     -13.269  15.337  71.040  1.00  0.00    -0.546 A  
HETATM   10  C   UNL     1     -11.589  10.815  70.293  1.00  0.00    -0.338 A  
HETATM   11  N   UNL     1     -14.164  13.447  72.224  1.00  0.00    -0.542 NA 
HETATM   12  C   UNL     1     -14.150  14.761  71.930  1.00  0.00    -0.518 A  
BRANCH   8  13
HETATM   13  O   UNL     1     -11.399  14.977  69.529  1.00  0.00    -0.255 OA 
BRANCH  13  14
HETATM   14  C   UNL     1     -11.101  14.300  68.372  1.00  0.00    -0.256 A  
HETATM   15  C   UNL     1      -9.757  13.976  68.201  1.00  0.00    -0.220 A  
HETATM   16  C   UNL     1      -9.347  13.221  67.101  1.00  0.00    -0.240 A  
HETATM   17  C   UNL     1     -10.275  12.778  66.158  1.00  0.00    -0.275 A  
HETATM   18  C   UNL     1     -12.035  13.855  67.441  1.00  0.00    -0.436 A  
HETATM   19  C   UNL     1     -11.621  13.119  66.323  1.00  0.00    -0.399 A  
BRANCH  17  20
HETATM   20  N   UNL     1      -9.923  11.987  65.041  1.00  0.00    -0.304 N  
HETATM   21  H   UNL     1     -10.316  12.257  64.140  1.00  0.00     0.000 HD 
HETATM   22  C   UNL     1      -9.098  10.883  65.060  1.00  0.00    -0.190 C  
HETATM   23  O   UNL     1      -8.577  10.352  66.027  1.00  0.00    -0.141 OA 
BRANCH  22  24
HETATM   24  C   UNL     1      -8.819  10.292  63.715  1.00  0.00    -0.234 C  
HETATM   25  C   UNL     1      -9.905  10.472  62.657  1.00  0.00    -0.115 C  
HETATM   26  C   UNL     1      -8.611  11.207  62.510  1.00  0.00    -0.273 C  
BRANCH  24  27
HETATM   27  C   UNL     1      -8.034   9.024  63.774  1.00  0.00    -0.147 C  
HETATM   28  O   UNL     1      -6.914   9.002  63.278  1.00  0.00    -0.090 OA 
HETATM   29  N   UNL     1      -8.678   7.977  64.403  1.00  0.00    -0.366 N  
HETATM   30  H   UNL     1      -9.642   8.114  64.708  1.00  0.00     0.000 HD 
BRANCH  29  31
HETATM   31  C   UNL     1      -8.071   6.732  64.644  1.00  0.00    -0.086 A  
HETATM   32  C   UNL     1      -8.238   5.652  63.768  1.00  0.00    -0.091 A  
HETATM   33  C   UNL     1      -7.682   4.409  64.070  1.00  0.00    -0.079 A  
HETATM   34  C   UNL     1      -6.985   4.248  65.260  1.00  0.00    -0.058 A  
HETATM   35  C   UNL     1      -6.784   5.320  66.122  1.00  0.00    -0.057 A  
HETATM   36  F   UNL     1      -6.504   3.040  65.583  1.00  0.00    -0.029 F  
HETATM   37  C   UNL     1      -7.296   6.578  65.796  1.00  0.00    -0.079 A  
ENDBRANCH  29  31
ENDBRANCH  24  27
ENDBRANCH  22  24
ENDBRANCH  17  20
ENDBRANCH  13  14
ENDBRANCH   8  13
BRANCH  10  38
HETATM   38  O   UNL     1     -10.705  10.050  69.575  1.00  0.00    -0.213 OA 
HETATM   39  C   UNL     1     -11.032   9.847  68.204  1.00  0.00    -0.207 C  
ENDBRANCH  10  38
ENDBRANCH   2   3
TORSDOF 8
ENDMDL
MODEL       51
REMARK 921   NORMALIZED FREE ENERGY PREDICTED BY IDOCK:   -5.55 KCAL/MOL
REMARK 922        TOTAL FREE ENERGY PREDICTED BY IDOCK:   -9.61 KCAL/MOL
REMARK 923 INTER-LIGAND FREE ENERGY PREDICTED BY IDOCK:   -8.23 KCAL/MOL
REMARK 924 INTRA-LIGAND FREE ENERGY PREDICTED BY IDOCK:   -1.38 KCAL/MOL
REMARK 927      BINDING AFFINITY PREDICTED BY RF-SCORE:    0.00 PKD
ROOT
HETATM    1  C   UNL     1     -10.109   3.839  72.664  1.00  0.00    -0.163 C  
HETATM    2  O   UNL     1     -10.546   5.154  72.341  1.00  0.00    -0.209 OA 
ENDROOT
BRANCH   2   3
HETATM    3  C   UNL     1     -10.160   5.664  71.129  1.00  0.00    -0.204 A  
HETATM    4  C   UNL     1     -10.658   5.189  69.909  1.00  0.00    -0.196 A  
HETATM    5  C   UNL     1     -10.224   5.673  68.685  1.00  0.00    -0.200 A  
HETATM    6  C   UNL     1      -9.287   6.719  68.659  1.00  0.00    -0.131 A  
HETATM    7  C   UNL     1      -8.817   7.244  69.883  1.00  0.00    -0.142 A  
HETATM    8  C   UNL     1      -8.857   7.156  67.387  1.00  0.00    -0.119 A  
HETATM    9  C   UNL     1      -9.364   6.566  66.232  1.00  0.00    -0.144 A  
HETATM   10  C   UNL     1      -9.210   6.693  71.110  1.00  0.00    -0.159 A  
HETATM   11  N   UNL     1     -10.712   5.098  67.575  1.00  0.00    -0.019 NA 
HETATM   12  C   UNL     1     -10.272   5.541  66.381  1.00  0.00    -0.201 A  
BRANCH   8  13
HETATM   13  O   UNL     1      -7.991   8.228  67.355  1.00  0.00    -0.104 OA 
BRANCH  13  14
HETATM   14  C   UNL     1      -8.430   9.492  67.667  1.00  0.00    -0.122 A  
HETATM   15  C   UNL     1      -9.720   9.795  67.239  1.00  0.00    -0.213 A  
HETATM   16  C   UNL     1     -10.302  11.021  67.567  1.00  0.00    -0.233 A  
HETATM   17  C   UNL     1      -9.603  11.959  68.327  1.00  0.00    -0.201 A  
HETATM   18  C   UNL     1      -7.727  10.417  68.433  1.00  0.00    -0.098 A  
HETATM   19  C   UNL     1      -8.300  11.658  68.740  1.00  0.00    -0.040 A  
BRANCH  17  20
HETATM   20  N   UNL     1     -10.150  13.203  68.713  1.00  0.00    -0.419 N  
HETATM   21  H   UNL     1      -9.692  14.042  68.356  1.00  0.00     0.000 HD 
HETATM   22  C   UNL     1     -11.244  13.387  69.530  1.00  0.00    -0.117 C  
HETATM   23  O   UNL     1     -11.897  12.536  70.112  1.00  0.00    -0.324 OA 
BRANCH  22  24
HETATM   24  C   UNL     1     -11.666  14.811  69.695  1.00  0.00    -0.354 C  
HETATM   25  C   UNL     1     -13.061  15.043  70.270  1.00  0.00    -0.124 C  
HETATM   26  C   UNL     1     -11.864  15.389  71.095  1.00  0.00    -0.422 C  
BRANCH  24  27
HETATM   27  C   UNL     1     -11.133  15.717  68.634  1.00  0.00    -0.317 C  
HETATM   28  O   UNL     1     -11.456  15.514  67.471  1.00  0.00    -0.297 OA 
HETATM   29  N   UNL     1     -10.303  16.719  69.097  1.00  0.00    -0.313 N  
HETATM   30  H   UNL     1     -10.059  16.728  70.088  1.00  0.00     0.000 HD 
BRANCH  29  31
HETATM   31  C   UNL     1      -9.778  17.728  68.271  1.00  0.00    -0.320 A  
HETATM   32  C   UNL     1     -10.535  18.851  67.912  1.00  0.00    -0.459 A  
HETATM   33  C   UNL     1     -10.012  19.799  67.033  1.00  0.00    -0.532 A  
HETATM   34  C   UNL     1      -8.745  19.605  66.499  1.00  0.00    -0.362 A  
HETATM   35  C   UNL     1      -7.971  18.512  66.873  1.00  0.00    -0.250 A  
HETATM   36  F   UNL     1      -8.265  20.481  65.606  1.00  0.00    -0.132 F  
HETATM   37  C   UNL     1      -8.473  17.588  67.792  1.00  0.00    -0.225 A  
ENDBRANCH  29  31
ENDBRANCH  24  27
ENDBRANCH  22  24
ENDBRANCH  17  20
ENDBRANCH  13  14
ENDBRANCH   8  13
BRANCH  10  38
HETATM   38  O   UNL     1      -8.624   7.286  72.199  1.00  0.00    -0.112 OA 
HETATM   39  C   UNL     1      -9.273   8.452  72.693  1.00  0.00    -0.254 C  
ENDBRANCH  10  38
ENDBRANCH   2   3
TORSDOF 8
ENDMDL
MODEL       52
REMARK 921   NORMALIZED FREE ENERGY PREDICTED BY IDOCK:   -5.48 KCAL/MOL
REMARK 922        TOTAL FREE ENERGY PREDICTED BY IDOCK:   -9.52 KCAL/MOL
REMARK 923 INTER-LIGAND FREE ENERGY PREDICTED BY IDOCK:   -8.03 KCAL/MOL
REMARK 924 INTRA-LIGAND FREE ENERGY PREDICTED BY IDOCK:   -1.48 KCAL/MOL
REMARK 927      BINDING AFFINITY PREDICTED BY RF-SCORE:    0.00 PKD
ROOT
HETATM    1  C   UNL     1      -9.907  19.687  66.543  1.00  0.00    -0.420 C  
HETATM    2  O   UNL     1      -9.137  18.740  65.811  1.00  0.00    -0.391 OA 
ENDROOT
BRANCH   2   3
HETATM    3  C   UNL     1      -9.215  17.430  66.206  1.00  0.00    -0.208 A  
HETATM    4  C   UNL     1      -8.350  16.866  67.151  1.00  0.00    -0.217 A  
HETATM    5  C   UNL     1      -8.400  15.528  67.507  1.00  0.00    -0.173 A  
HETATM    6  C   UNL     1      -9.391  14.709  66.941  1.00  0.00    -0.258 A  
HETATM    7  C   UNL     1     -10.305  15.278  66.027  1.00  0.00    -0.327 A  
HETATM    8  C   UNL     1      -9.381  13.348  67.316  1.00  0.00    -0.233 A  
HETATM    9  C   UNL     1      -8.429  12.871  68.213  1.00  0.00    -0.161 A  
HETATM   10  C   UNL     1     -10.193  16.614  65.622  1.00  0.00    -0.262 A  
HETATM   11  N   UNL     1      -7.477  15.072  68.368  1.00  0.00    -0.108 NA 
HETATM   12  C   UNL     1      -7.499  13.766  68.696  1.00  0.00    -0.116 A  
BRANCH   8  13
HETATM   13  O   UNL     1     -10.393  12.555  66.818  1.00  0.00    -0.224 OA 
BRANCH  13  14
HETATM   14  C   UNL     1     -10.242  11.192  66.743  1.00  0.00    -0.232 A  
HETATM   15  C   UNL     1     -10.886  10.466  67.743  1.00  0.00    -0.351 A  
HETATM   16  C   UNL     1     -10.868   9.071  67.726  1.00  0.00    -0.125 A  
HETATM   17  C   UNL     1     -10.207   8.381  66.708  1.00  0.00    -0.306 A  
HETATM   18  C   UNL     1      -9.588  10.513  65.719  1.00  0.00    -0.260 A  
HETATM   19  C   UNL     1      -9.547   9.113  65.715  1.00  0.00    -0.323 A  
BRANCH  17  20
HETATM   20  N   UNL     1     -10.179   6.972  66.622  1.00  0.00    -0.425 N  
HETATM   21  H   UNL     1     -11.065   6.500  66.441  1.00  0.00     0.000 HD 
HETATM   22  C   UNL     1      -9.063   6.175  66.762  1.00  0.00    -0.133 C  
HETATM   23  O   UNL     1      -7.926   6.519  67.041  1.00  0.00    -0.109 OA 
BRANCH  22  24
HETATM   24  C   UNL     1      -9.305   4.719  66.527  1.00  0.00    -0.145 C  
HETATM   25  C   UNL     1     -10.337   4.367  65.459  1.00  0.00    -0.247 C  
HETATM   26  C   UNL     1      -8.892   4.083  65.201  1.00  0.00    -0.127 C  
BRANCH  24  27
HETATM   27  C   UNL     1      -9.194   3.890  67.763  1.00  0.00    -0.166 C  
HETATM   28  O   UNL     1      -9.286   2.673  67.667  1.00  0.00    -0.189 OA 
HETATM   29  N   UNL     1      -8.992   4.612  68.923  1.00  0.00    -0.102 N  
HETATM   30  H   UNL     1      -9.007   5.631  68.869  1.00  0.00     0.000 HD 
BRANCH  29  31
HETATM   31  C   UNL     1      -8.768   4.013  70.175  1.00  0.00    -0.071 A  
HETATM   32  C   UNL     1      -7.480   3.666  70.603  1.00  0.00    -0.041 A  
HETATM   33  C   UNL     1      -7.296   3.008  71.819  1.00  0.00    -0.040 A  
HETATM   34  C   UNL     1      -8.404   2.678  72.587  1.00  0.00    -0.070 A  
HETATM   35  C   UNL     1      -9.685   3.046  72.190  1.00  0.00    -0.231 A  
HETATM   36  F   UNL     1      -8.236   1.990  73.724  1.00  0.00    -0.047 F  
HETATM   37  C   UNL     1      -9.866   3.750  70.997  1.00  0.00    -0.204 A  
ENDBRANCH  29  31
ENDBRANCH  24  27
ENDBRANCH  22  24
ENDBRANCH  17  20
ENDBRANCH  13  14
ENDBRANCH   8  13
BRANCH  10  38
HETATM   38  O   UNL     1     -11.127  16.993  64.693  1.00  0.00    -0.997 OA 
HETATM   39  C   UNL     1     -11.997  15.965  64.232  1.00  0.00     0.010 C  
ENDBRANCH  10  38
ENDBRANCH   2   3
TORSDOF 8
ENDMDL
MODEL       53
REMARK 921   NORMALIZED FREE ENERGY PREDICTED BY IDOCK:   -5.48 KCAL/MOL
REMARK 922        TOTAL FREE ENERGY PREDICTED BY IDOCK:   -9.51 KCAL/MOL
REMARK 923 INTER-LIGAND FREE ENERGY PREDICTED BY IDOCK:   -7.96 KCAL/MOL
REMARK 924 INTRA-LIGAND FREE ENERGY PREDICTED BY IDOCK:   -1.56 KCAL/MOL
REMARK 927      BINDING AFFINITY PREDICTED BY RF-SCORE:    0.00 PKD
ROOT
HETATM    1  C   UNL     1     -10.827  17.114  68.052  1.00  0.00    -0.317 C  
HETATM    2  O   UNL     1     -11.245  15.785  68.342  1.00  0.00    -0.326 OA 
ENDROOT
BRANCH   2   3
HETATM    3  C   UNL     1     -11.038  14.837  67.375  1.00  0.00    -0.324 A  
HETATM    4  C   UNL     1     -11.987  14.530  66.392  1.00  0.00    -0.350 A  
HETATM    5  C   UNL     1     -11.792  13.534  65.449  1.00  0.00    -0.357 A  
HETATM    6  C   UNL     1     -10.574  12.835  65.438  1.00  0.00    -0.309 A  
HETATM    7  C   UNL     1      -9.586  13.171  66.390  1.00  0.00    -0.259 A  
HETATM    8  C   UNL     1     -10.438  11.811  64.475  1.00  0.00    -0.304 A  
HETATM    9  C   UNL     1     -11.475  11.538  63.586  1.00  0.00    -0.374 A  
HETATM   10  C   UNL     1      -9.829  14.129  67.382  1.00  0.00    -0.239 A  
HETATM   11  N   UNL     1     -12.796  13.271  64.598  1.00  0.00    -0.701 NA 
HETATM   12  C   UNL     1     -12.628  12.284  63.698  1.00  0.00    -0.490 A  
BRANCH   8  13
HETATM   13  O   UNL     1      -9.219  11.169  64.414  1.00  0.00    -0.188 OA 
BRANCH  13  14
HETATM   14  C   UNL     1      -8.864  10.251  65.372  1.00  0.00    -0.172 A  
HETATM   15  C   UNL     1      -7.535  10.308  65.786  1.00  0.00    -0.144 A  
HETATM   16  C   UNL     1      -7.079   9.476  66.810  1.00  0.00    -0.086 A  
HETATM   17  C   UNL     1      -7.945   8.578  67.435  1.00  0.00    -0.102 A  
HETATM   18  C   UNL     1      -9.737   9.364  65.994  1.00  0.00    -0.345 A  
HETATM   19  C   UNL     1      -9.274   8.511  67.004  1.00  0.00    -0.187 A  
BRANCH  17  20
HETATM   20  N   UNL     1      -7.548   7.733  68.495  1.00  0.00    -0.103 N  
HETATM   21  H   UNL     1      -7.450   6.740  68.284  1.00  0.00     0.000 HD 
HETATM   22  C   UNL     1      -7.282   8.128  69.788  1.00  0.00    -0.064 C  
HETATM   23  O   UNL     1      -7.395   9.243  70.270  1.00  0.00    -0.072 OA 
BRANCH  22  24
HETATM   24  C   UNL     1      -6.786   7.038  70.683  1.00  0.00    -0.054 C  
HETATM   25  C   UNL     1      -5.322   6.639  70.517  1.00  0.00    -0.019 C  
HETATM   26  C   UNL     1      -5.750   7.349  71.761  1.00  0.00    -0.036 C  
BRANCH  24  27
HETATM   27  C   UNL     1      -7.816   6.000  70.983  1.00  0.00    -0.111 C  
HETATM   28  O   UNL     1      -8.120   5.201  70.106  1.00  0.00    -0.080 OA 
HETATM   29  N   UNL     1      -8.334   6.056  72.262  1.00  0.00    -0.114 N  
HETATM   30  H   UNL     1      -8.042   6.822  72.870  1.00  0.00     0.000 HD 
BRANCH  29  31
HETATM   31  C   UNL     1      -9.242   5.110  72.768  1.00  0.00    -0.136 A  
HETATM   32  C   UNL     1      -8.825   3.838  73.178  1.00  0.00    -0.097 A  
HETATM   33  C   UNL     1      -9.760   2.896  73.609  1.00  0.00    -0.140 A  
HETATM   34  C   UNL     1     -11.109   3.225  73.602  1.00  0.00    -0.222 A  
HETATM   35  C   UNL     1     -11.533   4.496  73.228  1.00  0.00    -0.314 A  
HETATM   36  F   UNL     1     -12.014   2.303  73.954  1.00  0.00    -0.249 F  
HETATM   37  C   UNL     1     -10.593   5.456  72.845  1.00  0.00    -0.270 A  
ENDBRANCH  29  31
ENDBRANCH  24  27
ENDBRANCH  22  24
ENDBRANCH  17  20
ENDBRANCH  13  14
ENDBRANCH   8  13
BRANCH  10  38
HETATM   38  O   UNL     1      -8.786  14.300  68.256  1.00  0.00    -0.166 OA 
HETATM   39  C   UNL     1      -7.887  13.202  68.371  1.00  0.00    -0.135 C  
ENDBRANCH  10  38
ENDBRANCH   2   3
TORSDOF 8
ENDMDL
MODEL       54
REMARK 921   NORMALIZED FREE ENERGY PREDICTED BY IDOCK:   -5.40 KCAL/MOL
REMARK 922        TOTAL FREE ENERGY PREDICTED BY IDOCK:   -9.39 KCAL/MOL
REMARK 923 INTER-LIGAND FREE ENERGY PREDICTED BY IDOCK:   -7.87 KCAL/MOL
REMARK 924 INTRA-LIGAND FREE ENERGY PREDICTED BY IDOCK:   -1.52 KCAL/MOL
REMARK 927      BINDING AFFINITY PREDICTED BY RF-SCORE:    0.00 PKD
ROOT
HETATM    1  C   UNL     1      -5.541   2.155  70.087  1.00  0.00    -0.017 C  
HETATM    2  O   UNL     1      -6.911   1.911  70.389  1.00  0.00    -0.032 OA 
ENDROOT
BRANCH   2   3
HETATM    3  C   UNL     1      -7.676   2.992  70.742  1.00  0.00    -0.039 A  
HETATM    4  C   UNL     1      -7.435   3.754  71.892  1.00  0.00    -0.056 A  
HETATM    5  C   UNL     1      -8.244   4.812  72.271  1.00  0.00    -0.115 A  
HETATM    6  C   UNL     1      -9.321   5.177  71.446  1.00  0.00    -0.189 A  
HETATM    7  C   UNL     1      -9.542   4.452  70.255  1.00  0.00    -0.263 A  
HETATM    8  C   UNL     1     -10.130   6.244  71.892  1.00  0.00    -0.181 A  
HETATM    9  C   UNL     1      -9.844   6.891  73.091  1.00  0.00    -0.213 A  
HETATM   10  C   UNL     1      -8.761   3.338  69.925  1.00  0.00    -0.077 A  
HETATM   11  N   UNL     1      -7.967   5.429  73.431  1.00  0.00    -0.110 NA 
HETATM   12  C   UNL     1      -8.767   6.439  73.823  1.00  0.00    -0.124 A  
BRANCH   8  13
HETATM   13  O   UNL     1     -11.145   6.652  71.052  1.00  0.00    -0.255 OA 
BRANCH  13  14
HETATM   14  C   UNL     1     -10.962   7.710  70.196  1.00  0.00    -0.246 A  
HETATM   15  C   UNL     1     -11.288   8.960  70.716  1.00  0.00    -0.325 A  
HETATM   16  C   UNL     1     -11.069  10.116  69.965  1.00  0.00    -0.368 A  
HETATM   17  C   UNL     1     -10.520  10.038  68.684  1.00  0.00    -0.204 A  
HETATM   18  C   UNL     1     -10.406   7.622  68.923  1.00  0.00    -0.222 A  
HETATM   19  C   UNL     1     -10.210   8.780  68.158  1.00  0.00    -0.250 A  
BRANCH  17  20
HETATM   20  N   UNL     1     -10.250  11.174  67.890  1.00  0.00    -0.176 N  
HETATM   21  H   UNL     1      -9.272  11.361  67.665  1.00  0.00     0.000 HD 
HETATM   22  C   UNL     1     -11.186  12.053  67.390  1.00  0.00    -0.307 C  
HETATM   23  O   UNL     1     -12.391  12.056  67.585  1.00  0.00    -0.345 OA 
BRANCH  22  24
HETATM   24  C   UNL     1     -10.629  13.115  66.497  1.00  0.00    -0.290 C  
HETATM   25  C   UNL     1     -10.112  12.654  65.137  1.00  0.00    -0.257 C  
HETATM   26  C   UNL     1     -11.356  13.480  65.204  1.00  0.00    -0.315 C  
BRANCH  24  27
HETATM   27  C   UNL     1      -9.927  14.205  67.236  1.00  0.00    -0.249 C  
HETATM   28  O   UNL     1      -9.542  13.990  68.378  1.00  0.00    -0.216 OA 
HETATM   29  N   UNL     1      -9.782  15.381  66.525  1.00  0.00    -0.256 N  
HETATM   30  H   UNL     1     -10.216  15.447  65.604  1.00  0.00     0.000 HD 
BRANCH  29  31
HETATM   31  C   UNL     1      -9.068  16.491  67.009  1.00  0.00    -0.211 A  
HETATM   32  C   UNL     1      -7.707  16.668  66.726  1.00  0.00    -0.292 A  
HETATM   33  C   UNL     1      -7.008  17.741  67.279  1.00  0.00    -0.197 A  
HETATM   34  C   UNL     1      -7.668  18.615  68.131  1.00  0.00    -0.281 A  
HETATM   35  C   UNL     1      -9.026  18.470  68.393  1.00  0.00    -0.346 A  
HETATM   36  F   UNL     1      -6.985  19.609  68.713  1.00  0.00    -0.318 F  
HETATM   37  C   UNL     1      -9.739  17.425  67.800  1.00  0.00    -0.268 A  
ENDBRANCH  29  31
ENDBRANCH  24  27
ENDBRANCH  22  24
ENDBRANCH  17  20
ENDBRANCH  13  14
ENDBRANCH   8  13
BRANCH  10  38
HETATM   38  O   UNL     1      -9.139   2.717  68.762  1.00  0.00    -0.119 OA 
HETATM   39  C   UNL     1      -9.001   3.489  67.574  1.00  0.00    -0.145 C  
ENDBRANCH  10  38
ENDBRANCH   2   3
TORSDOF 8
ENDMDL
MODEL       55
REMARK 921   NORMALIZED FREE ENERGY PREDICTED BY IDOCK:   -5.40 KCAL/MOL
REMARK 922        TOTAL FREE ENERGY PREDICTED BY IDOCK:   -9.39 KCAL/MOL
REMARK 923 INTER-LIGAND FREE ENERGY PREDICTED BY IDOCK:   -8.08 KCAL/MOL
REMARK 924 INTRA-LIGAND FREE ENERGY PREDICTED BY IDOCK:   -1.31 KCAL/MOL
REMARK 927      BINDING AFFINITY PREDICTED BY RF-SCORE:    0.00 PKD
ROOT
HETATM    1  C   UNL     1      -7.778  17.509  67.109  1.00  0.00    -0.205 C  
HETATM    2  O   UNL     1      -7.630  16.529  68.130  1.00  0.00    -0.153 OA 
ENDROOT
BRANCH   2   3
HETATM    3  C   UNL     1      -8.758  15.857  68.523  1.00  0.00    -0.194 A  
HETATM    4  C   UNL     1      -9.726  16.420  69.363  1.00  0.00    -0.157 A  
HETATM    5  C   UNL     1     -10.838  15.717  69.799  1.00  0.00    -0.314 A  
HETATM    6  C   UNL     1     -11.037  14.404  69.341  1.00  0.00    -0.294 A  
HETATM    7  C   UNL     1     -10.096  13.844  68.449  1.00  0.00    -0.237 A  
HETATM    8  C   UNL     1     -12.170  13.723  69.836  1.00  0.00    -0.321 A  
HETATM    9  C   UNL     1     -13.036  14.352  70.727  1.00  0.00    -0.388 A  
HETATM   10  C   UNL     1      -8.939  14.541  68.078  1.00  0.00    -0.180 A  
HETATM   11  N   UNL     1     -11.666  16.326  70.662  1.00  0.00    -0.263 NA 
HETATM   12  C   UNL     1     -12.733  15.639  71.114  1.00  0.00    -0.465 A  
BRANCH   8  13
HETATM   13  O   UNL     1     -12.408  12.460  69.336  1.00  0.00    -0.112 OA 
BRANCH  13  14
HETATM   14  C   UNL     1     -11.891  11.352  69.961  1.00  0.00    -0.359 A  
HETATM   15  C   UNL     1     -12.602  10.911  71.075  1.00  0.00    -0.517 A  
HETATM   16  C   UNL     1     -12.216   9.748  71.744  1.00  0.00    -0.449 A  
HETATM   17  C   UNL     1     -11.115   9.009  71.308  1.00  0.00    -0.312 A  
HETATM   18  C   UNL     1     -10.797  10.617  69.513  1.00  0.00    -0.303 A  
HETATM   19  C   UNL     1     -10.393   9.464  70.199  1.00  0.00    -0.273 A  
BRANCH  17  20
HETATM   20  N   UNL     1     -10.695   7.811  71.926  1.00  0.00    -0.218 N  
HETATM   21  H   UNL     1     -11.253   6.976  71.747  1.00  0.00     0.000 HD 
HETATM   22  C   UNL     1      -9.600   7.667  72.750  1.00  0.00    -0.198 C  
HETATM   23  O   UNL     1      -8.839   8.535  73.145  1.00  0.00    -0.320 OA 
BRANCH  22  24
HETATM   24  C   UNL     1      -9.332   6.264  73.190  1.00  0.00    -0.138 C  
HETATM   25  C   UNL     1      -8.600   6.099  74.520  1.00  0.00    -0.131 C  
HETATM   26  C   UNL     1     -10.039   5.704  74.422  1.00  0.00    -0.287 C  
BRANCH  24  27
HETATM   27  C   UNL     1      -9.052   5.329  72.060  1.00  0.00    -0.137 C  
HETATM   28  O   UNL     1      -9.473   4.181  72.127  1.00  0.00    -0.122 OA 
HETATM   29  N   UNL     1      -8.322   5.880  71.025  1.00  0.00    -0.122 N  
HETATM   30  H   UNL     1      -7.971   6.833  71.132  1.00  0.00     0.000 HD 
BRANCH  29  31
HETATM   31  C   UNL     1      -8.037   5.194  69.832  1.00  0.00    -0.082 A  
HETATM   32  C   UNL     1      -6.750   4.724  69.544  1.00  0.00    -0.044 A  
HETATM   33  C   UNL     1      -6.483   4.109  68.320  1.00  0.00    -0.038 A  
HETATM   34  C   UNL     1      -7.500   3.992  67.382  1.00  0.00    -0.068 A  
HETATM   35  C   UNL     1      -8.790   4.424  67.669  1.00  0.00    -0.121 A  
HETATM   36  F   UNL     1      -7.232   3.460  66.183  1.00  0.00    -0.062 F  
HETATM   37  C   UNL     1      -9.071   4.994  68.913  1.00  0.00    -0.142 A  
ENDBRANCH  29  31
ENDBRANCH  24  27
ENDBRANCH  22  24
ENDBRANCH  17  20
ENDBRANCH  13  14
ENDBRANCH   8  13
BRANCH  10  38
HETATM   38  O   UNL     1      -8.106  13.836  67.248  1.00  0.00    -0.175 OA 
HETATM   39  C   UNL     1      -8.092  12.425  67.438  1.00  0.00    -0.177 C  
ENDBRANCH  10  38
ENDBRANCH   2   3
TORSDOF 8
ENDMDL
MODEL       56
REMARK 921   NORMALIZED FREE ENERGY PREDICTED BY IDOCK:   -5.36 KCAL/MOL
REMARK 922        TOTAL FREE ENERGY PREDICTED BY IDOCK:   -9.34 KCAL/MOL
REMARK 923 INTER-LIGAND FREE ENERGY PREDICTED BY IDOCK:   -8.09 KCAL/MOL
REMARK 924 INTRA-LIGAND FREE ENERGY PREDICTED BY IDOCK:   -1.25 KCAL/MOL
REMARK 927      BINDING AFFINITY PREDICTED BY RF-SCORE:    0.00 PKD
ROOT
HETATM    1  C   UNL     1      -7.776   1.910  67.271  1.00  0.00    -0.060 C  
HETATM    2  O   UNL     1      -6.925   3.047  67.369  1.00  0.00    -0.048 OA 
ENDROOT
BRANCH   2   3
HETATM    3  C   UNL     1      -7.415   4.239  66.904  1.00  0.00    -0.081 A  
HETATM    4  C   UNL     1      -6.835   4.937  65.838  1.00  0.00    -0.061 A  
HETATM    5  C   UNL     1      -7.304   6.168  65.407  1.00  0.00    -0.080 A  
HETATM    6  C   UNL     1      -8.438   6.719  66.024  1.00  0.00    -0.143 A  
HETATM    7  C   UNL     1      -9.066   5.999  67.065  1.00  0.00    -0.117 A  
HETATM    8  C   UNL     1      -8.858   7.987  65.567  1.00  0.00    -0.061 A  
HETATM    9  C   UNL     1      -8.166   8.631  64.544  1.00  0.00    -0.166 A  
HETATM   10  C   UNL     1      -8.535   4.793  67.538  1.00  0.00    -0.104 A  
HETATM   11  N   UNL     1      -6.630   6.786  64.424  1.00  0.00    -0.041 NA 
HETATM   12  C   UNL     1      -7.060   7.997  64.020  1.00  0.00    -0.083 A  
BRANCH   8  13
HETATM   13  O   UNL     1     -10.011   8.501  66.120  1.00  0.00    -0.239 OA 
BRANCH  13  14
HETATM   14  C   UNL     1      -9.983   9.679  66.827  1.00  0.00    -0.227 A  
HETATM   15  C   UNL     1     -10.723  10.722  66.275  1.00  0.00    -0.205 A  
HETATM   16  C   UNL     1     -10.832  11.942  66.944  1.00  0.00    -0.305 A  
HETATM   17  C   UNL     1     -10.205  12.135  68.176  1.00  0.00    -0.203 A  
HETATM   18  C   UNL     1      -9.361   9.859  68.059  1.00  0.00    -0.140 A  
HETATM   19  C   UNL     1      -9.448  11.092  68.719  1.00  0.00    -0.190 A  
BRANCH  17  20
HETATM   20  N   UNL     1     -10.303  13.336  68.913  1.00  0.00    -0.420 N  
HETATM   21  H   UNL     1      -9.514  13.980  68.858  1.00  0.00     0.000 HD 
HETATM   22  C   UNL     1     -11.369  13.718  69.698  1.00  0.00    -0.178 C  
HETATM   23  O   UNL     1     -12.379  13.082  69.953  1.00  0.00    -0.224 OA 
BRANCH  22  24
HETATM   24  C   UNL     1     -11.249  15.086  70.289  1.00  0.00    -0.286 C  
HETATM   25  C   UNL     1     -12.508  15.658  70.935  1.00  0.00    -0.497 C  
HETATM   26  C   UNL     1     -11.352  15.274  71.801  1.00  0.00    -0.445 C  
BRANCH  24  27
HETATM   27  C   UNL     1     -10.322  15.980  69.534  1.00  0.00    -0.278 C  
HETATM   28  O   UNL     1      -9.115  15.818  69.660  1.00  0.00    -0.251 OA 
HETATM   29  N   UNL     1     -10.949  16.928  68.749  1.00  0.00    -0.282 N  
HETATM   30  H   UNL     1     -11.966  16.999  68.794  1.00  0.00     0.000 HD 
BRANCH  29  31
HETATM   31  C   UNL     1     -10.255  17.799  67.892  1.00  0.00    -0.361 A  
HETATM   32  C   UNL     1      -9.275  17.333  67.007  1.00  0.00    -0.252 A  
HETATM   33  C   UNL     1      -8.553  18.230  66.220  1.00  0.00    -0.208 A  
HETATM   34  C   UNL     1      -8.799  19.591  66.341  1.00  0.00    -0.366 A  
HETATM   35  C   UNL     1      -9.793  20.065  67.191  1.00  0.00    -0.563 A  
HETATM   36  F   UNL     1      -8.065  20.459  65.634  1.00  0.00    -0.231 F  
HETATM   37  C   UNL     1     -10.551  19.164  67.943  1.00  0.00    -0.459 A  
ENDBRANCH  29  31
ENDBRANCH  24  27
ENDBRANCH  22  24
ENDBRANCH  17  20
ENDBRANCH  13  14
ENDBRANCH   8  13
BRANCH  10  38
HETATM   38  O   UNL     1      -9.235   4.249  68.584  1.00  0.00    -0.120 OA 
HETATM   39  C   UNL     1      -9.050   4.880  69.848  1.00  0.00    -0.117 C  
ENDBRANCH  10  38
ENDBRANCH   2   3
TORSDOF 8
ENDMDL
MODEL       57
REMARK 921   NORMALIZED FREE ENERGY PREDICTED BY IDOCK:   -5.35 KCAL/MOL
REMARK 922        TOTAL FREE ENERGY PREDICTED BY IDOCK:   -9.32 KCAL/MOL
REMARK 923 INTER-LIGAND FREE ENERGY PREDICTED BY IDOCK:   -8.64 KCAL/MOL
REMARK 924 INTRA-LIGAND FREE ENERGY PREDICTED BY IDOCK:   -0.68 KCAL/MOL
REMARK 927      BINDING AFFINITY PREDICTED BY RF-SCORE:    0.00 PKD
ROOT
HETATM    1  C   UNL     1      -5.960   8.338  63.406  1.00  0.00    -0.072 C  
HETATM    2  O   UNL     1      -5.253   7.197  63.882  1.00  0.00    -0.028 OA 
ENDROOT
BRANCH   2   3
HETATM    3  C   UNL     1      -5.979   6.241  64.543  1.00  0.00    -0.026 A  
HETATM    4  C   UNL     1      -6.472   5.090  63.917  1.00  0.00    -0.033 A  
HETATM    5  C   UNL     1      -7.249   4.153  64.578  1.00  0.00    -0.066 A  
HETATM    6  C   UNL     1      -7.513   4.330  65.946  1.00  0.00    -0.081 A  
HETATM    7  C   UNL     1      -6.976   5.459  66.603  1.00  0.00    -0.064 A  
HETATM    8  C   UNL     1      -8.333   3.362  66.566  1.00  0.00    -0.102 A  
HETATM    9  C   UNL     1      -8.832   2.289  65.833  1.00  0.00    -0.124 A  
HETATM   10  C   UNL     1      -6.255   6.435  65.903  1.00  0.00    -0.038 A  
HETATM   11  N   UNL     1      -7.732   3.123  63.866  1.00  0.00    -0.075 NA 
HETATM   12  C   UNL     1      -8.514   2.224  64.493  1.00  0.00    -0.089 A  
BRANCH   8  13
HETATM   13  O   UNL     1      -8.537   3.493  67.924  1.00  0.00    -0.091 OA 
BRANCH  13  14
HETATM   14  C   UNL     1      -9.480   4.367  68.408  1.00  0.00    -0.154 A  
HETATM   15  C   UNL     1      -9.593   4.411  69.795  1.00  0.00    -0.276 A  
HETATM   16  C   UNL     1     -10.463   5.318  70.404  1.00  0.00    -0.322 A  
HETATM   17  C   UNL     1     -11.230   6.193  69.634  1.00  0.00    -0.418 A  
HETATM   18  C   UNL     1     -10.234   5.241  67.631  1.00  0.00    -0.223 A  
HETATM   19  C   UNL     1     -11.127   6.134  68.240  1.00  0.00    -0.336 A  
BRANCH  17  20
HETATM   20  N   UNL     1     -12.104   7.151  70.194  1.00  0.00    -0.589 N  
HETATM   21  H   UNL     1     -13.104   7.005  70.052  1.00  0.00     0.000 HD 
HETATM   22  C   UNL     1     -11.730   8.264  70.914  1.00  0.00    -0.239 C  
HETATM   23  O   UNL     1     -10.601   8.662  71.148  1.00  0.00    -0.205 OA 
BRANCH  22  24
HETATM   24  C   UNL     1     -12.869   9.056  71.473  1.00  0.00    -0.394 C  
HETATM   25  C   UNL     1     -14.231   8.367  71.485  1.00  0.00    -0.471 C  
HETATM   26  C   UNL     1     -13.529   8.622  72.780  1.00  0.00    -0.181 C  
BRANCH  24  27
HETATM   27  C   UNL     1     -12.771  10.519  71.192  1.00  0.00    -0.418 C  
HETATM   28  O   UNL     1     -13.119  11.310  72.059  1.00  0.00    -0.495 OA 
HETATM   29  N   UNL     1     -12.281  10.832  69.939  1.00  0.00    -0.405 N  
HETATM   30  H   UNL     1     -12.097  10.069  69.285  1.00  0.00     0.000 HD 
BRANCH  29  31
HETATM   31  C   UNL     1     -12.025  12.148  69.518  1.00  0.00    -0.275 A  
HETATM   32  C   UNL     1     -12.110  13.231  70.403  1.00  0.00    -0.401 A  
HETATM   33  C   UNL     1     -11.920  14.533  69.941  1.00  0.00    -0.382 A  
HETATM   34  C   UNL     1     -11.672  14.746  68.591  1.00  0.00    -0.325 A  
HETATM   35  C   UNL     1     -11.553  13.678  67.709  1.00  0.00    -0.373 A  
HETATM   36  F   UNL     1     -11.552  15.999  68.133  1.00  0.00    -0.350 F  
HETATM   37  C   UNL     1     -11.692  12.370  68.180  1.00  0.00    -0.408 A  
ENDBRANCH  29  31
ENDBRANCH  24  27
ENDBRANCH  22  24
ENDBRANCH  17  20
ENDBRANCH  13  14
ENDBRANCH   8  13
BRANCH  10  38
HETATM   38  O   UNL     1      -5.848   7.490  66.678  1.00  0.00    -0.036 OA 
HETATM   39  C   UNL     1      -6.885   8.216  67.330  1.00  0.00    -0.074 C  
ENDBRANCH  10  38
ENDBRANCH   2   3
TORSDOF 8
ENDMDL
MODEL       58
REMARK 921   NORMALIZED FREE ENERGY PREDICTED BY IDOCK:   -5.35 KCAL/MOL
REMARK 922        TOTAL FREE ENERGY PREDICTED BY IDOCK:   -9.32 KCAL/MOL
REMARK 923 INTER-LIGAND FREE ENERGY PREDICTED BY IDOCK:   -7.94 KCAL/MOL
REMARK 924 INTRA-LIGAND FREE ENERGY PREDICTED BY IDOCK:   -1.38 KCAL/MOL
REMARK 927      BINDING AFFINITY PREDICTED BY RF-SCORE:    0.00 PKD
ROOT
HETATM    1  C   UNL     1     -10.954  19.338  65.347  1.00  0.00     0.241 C  
HETATM    2  O   UNL     1     -10.736  17.980  64.981  1.00  0.00    -0.636 OA 
ENDROOT
BRANCH   2   3
HETATM    3  C   UNL     1     -11.031  17.023  65.916  1.00  0.00     0.125 A  
HETATM    4  C   UNL     1     -10.838  17.215  67.290  1.00  0.00    -0.118 A  
HETATM    5  C   UNL     1     -11.089  16.225  68.226  1.00  0.00    -0.346 A  
HETATM    6  C   UNL     1     -11.610  14.994  67.793  1.00  0.00    -0.336 A  
HETATM    7  C   UNL     1     -11.861  14.806  66.416  1.00  0.00    -0.231 A  
HETATM    8  C   UNL     1     -11.821  14.010  68.783  1.00  0.00    -0.361 A  
HETATM    9  C   UNL     1     -11.528  14.279  70.118  1.00  0.00    -0.254 A  
HETATM   10  C   UNL     1     -11.531  15.790  65.476  1.00  0.00     0.147 A  
HETATM   11  N   UNL     1     -10.800  16.487  69.510  1.00  0.00    -0.323 NA 
HETATM   12  C   UNL     1     -11.012  15.520  70.423  1.00  0.00    -0.339 A  
BRANCH   8  13
HETATM   13  O   UNL     1     -12.397  12.826  68.374  1.00  0.00    -0.046 OA 
BRANCH  13  14
HETATM   14  C   UNL     1     -11.625  11.710  68.161  1.00  0.00    -0.319 A  
HETATM   15  C   UNL     1     -11.560  10.818  69.229  1.00  0.00    -0.376 A  
HETATM   16  C   UNL     1     -10.870   9.612  69.101  1.00  0.00    -0.212 A  
HETATM   17  C   UNL     1     -10.237   9.279  67.902  1.00  0.00    -0.214 A  
HETATM   18  C   UNL     1     -11.004  11.384  66.959  1.00  0.00    -0.347 A  
HETATM   19  C   UNL     1     -10.289  10.185  66.837  1.00  0.00    -0.298 A  
BRANCH  17  20
HETATM   20  N   UNL     1      -9.548   8.062  67.704  1.00  0.00    -0.147 N  
HETATM   21  H   UNL     1      -8.568   8.033  67.984  1.00  0.00     0.000 HD 
HETATM   22  C   UNL     1     -10.081   6.910  67.166  1.00  0.00    -0.209 C  
HETATM   23  O   UNL     1     -11.200   6.743  66.711  1.00  0.00    -0.312 OA 
BRANCH  22  24
HETATM   24  C   UNL     1      -9.152   5.738  67.162  1.00  0.00    -0.112 C  
HETATM   25  C   UNL     1      -9.154   4.878  65.901  1.00  0.00    -0.147 C  
HETATM   26  C   UNL     1      -7.957   5.718  66.212  1.00  0.00    -0.102 C  
BRANCH  24  27
HETATM   27  C   UNL     1      -8.991   5.102  68.503  1.00  0.00    -0.106 C  
HETATM   28  O   UNL     1      -7.896   4.649  68.811  1.00  0.00    -0.074 OA 
HETATM   29  N   UNL     1     -10.135   5.093  69.276  1.00  0.00    -0.211 N  
HETATM   30  H   UNL     1     -11.001   5.442  68.865  1.00  0.00     0.000 HD 
BRANCH  29  31
HETATM   31  C   UNL     1     -10.165   4.627  70.602  1.00  0.00    -0.141 A  
HETATM   32  C   UNL     1      -9.741   3.334  70.936  1.00  0.00    -0.187 A  
HETATM   33  C   UNL     1      -9.849   2.875  72.249  1.00  0.00    -0.234 A  
HETATM   34  C   UNL     1     -10.404   3.704  73.215  1.00  0.00    -0.163 A  
HETATM   35  C   UNL     1     -10.798   5.001  72.903  1.00  0.00    -0.322 A  
HETATM   36  F   UNL     1     -10.568   3.245  74.462  1.00  0.00    -0.208 F  
HETATM   37  C   UNL     1     -10.643   5.479  71.600  1.00  0.00    -0.294 A  
ENDBRANCH  29  31
ENDBRANCH  24  27
ENDBRANCH  22  24
ENDBRANCH  17  20
ENDBRANCH  13  14
ENDBRANCH   8  13
BRANCH  10  38
HETATM   38  O   UNL     1     -11.792  15.430  64.179  1.00  0.00    -0.437 OA 
HETATM   39  C   UNL     1     -11.929  14.034  63.939  1.00  0.00    -0.287 C  
ENDBRANCH  10  38
ENDBRANCH   2   3
TORSDOF 8
ENDMDL
MODEL       59
REMARK 921   NORMALIZED FREE ENERGY PREDICTED BY IDOCK:   -5.27 KCAL/MOL
REMARK 922        TOTAL FREE ENERGY PREDICTED BY IDOCK:   -9.20 KCAL/MOL
REMARK 923 INTER-LIGAND FREE ENERGY PREDICTED BY IDOCK:   -7.75 KCAL/MOL
REMARK 924 INTRA-LIGAND FREE ENERGY PREDICTED BY IDOCK:   -1.45 KCAL/MOL
REMARK 927      BINDING AFFINITY PREDICTED BY RF-SCORE:    0.00 PKD
ROOT
HETATM    1  C   UNL     1      -7.654   1.652  66.757  1.00  0.00    -0.064 C  
HETATM    2  O   UNL     1      -9.025   2.005  66.612  1.00  0.00    -0.125 OA 
ENDROOT
BRANCH   2   3
HETATM    3  C   UNL     1      -9.390   3.271  66.986  1.00  0.00    -0.169 A  
HETATM    4  C   UNL     1      -9.613   3.637  68.320  1.00  0.00    -0.165 A  
HETATM    5  C   UNL     1     -10.033   4.905  68.687  1.00  0.00    -0.125 A  
HETATM    6  C   UNL     1     -10.192   5.885  67.693  1.00  0.00    -0.229 A  
HETATM    7  C   UNL     1      -9.918   5.544  66.350  1.00  0.00    -0.203 A  
HETATM    8  C   UNL     1     -10.649   7.152  68.117  1.00  0.00    -0.192 A  
HETATM    9  C   UNL     1     -10.910   7.392  69.464  1.00  0.00    -0.201 A  
HETATM   10  C   UNL     1      -9.567   4.238  65.988  1.00  0.00    -0.192 A  
HETATM   11  N   UNL     1     -10.288   5.130  69.985  1.00  0.00    -0.289 NA 
HETATM   12  C   UNL     1     -10.727   6.351  70.348  1.00  0.00    -0.262 A  
BRANCH   8  13
HETATM   13  O   UNL     1     -10.739   8.137  67.156  1.00  0.00    -0.316 OA 
BRANCH  13  14
HETATM   14  C   UNL     1     -10.055   9.319  67.300  1.00  0.00    -0.231 A  
HETATM   15  C   UNL     1     -10.787  10.366  67.856  1.00  0.00    -0.331 A  
HETATM   16  C   UNL     1     -10.175  11.592  68.122  1.00  0.00    -0.206 A  
HETATM   17  C   UNL     1      -8.822  11.788  67.838  1.00  0.00    -0.165 A  
HETATM   18  C   UNL     1      -8.704   9.502  67.021  1.00  0.00    -0.135 A  
HETATM   19  C   UNL     1      -8.095  10.740  67.264  1.00  0.00    -0.117 A  
BRANCH  17  20
HETATM   20  N   UNL     1      -8.143  12.995  68.112  1.00  0.00    -0.147 N  
HETATM   21  H   UNL     1      -8.482  13.835  67.643  1.00  0.00     0.000 HD 
HETATM   22  C   UNL     1      -7.063  13.142  68.955  1.00  0.00    -0.075 C  
HETATM   23  O   UNL     1      -6.461  12.271  69.562  1.00  0.00    -0.116 OA 
BRANCH  22  24
HETATM   24  C   UNL     1      -6.600  14.552  69.135  1.00  0.00    -0.111 C  
HETATM   25  C   UNL     1      -6.342  15.002  70.570  1.00  0.00    -0.012 C  
HETATM   26  C   UNL     1      -5.185  14.830  69.639  1.00  0.00    -0.092 C  
BRANCH  24  27
HETATM   27  C   UNL     1      -7.189  15.502  68.145  1.00  0.00    -0.117 C  
HETATM   28  O   UNL     1      -6.780  15.479  66.991  1.00  0.00    -0.266 OA 
HETATM   29  N   UNL     1      -8.165  16.334  68.658  1.00  0.00    -0.202 N  
HETATM   30  H   UNL     1      -8.358  16.296  69.659  1.00  0.00     0.000 HD 
BRANCH  29  31
HETATM   31  C   UNL     1      -8.906  17.231  67.868  1.00  0.00    -0.235 A  
HETATM   32  C   UNL     1      -9.947  16.793  67.040  1.00  0.00    -0.269 A  
HETATM   33  C   UNL     1     -10.616  17.696  66.215  1.00  0.00    -0.215 A  
HETATM   34  C   UNL     1     -10.223  19.028  66.204  1.00  0.00    -0.446 A  
HETATM   35  C   UNL     1      -9.213  19.481  67.046  1.00  0.00    -0.404 A  
HETATM   36  F   UNL     1     -10.821  19.885  65.367  1.00  0.00    -0.600 F  
HETATM   37  C   UNL     1      -8.576  18.588  67.910  1.00  0.00    -0.304 A  
ENDBRANCH  29  31
ENDBRANCH  24  27
ENDBRANCH  22  24
ENDBRANCH  17  20
ENDBRANCH  13  14
ENDBRANCH   8  13
BRANCH  10  38
HETATM   38  O   UNL     1      -9.385   4.065  64.640  1.00  0.00    -0.143 OA 
HETATM   39  C   UNL     1     -10.541   3.684  63.902  1.00  0.00    -0.277 C  
ENDBRANCH  10  38
ENDBRANCH   2   3
TORSDOF 8
ENDMDL
MODEL       60
REMARK 921   NORMALIZED FREE ENERGY PREDICTED BY IDOCK:   -5.17 KCAL/MOL
REMARK 922        TOTAL FREE ENERGY PREDICTED BY IDOCK:   -9.05 KCAL/MOL
REMARK 923 INTER-LIGAND FREE ENERGY PREDICTED BY IDOCK:   -8.15 KCAL/MOL
REMARK 924 INTRA-LIGAND FREE ENERGY PREDICTED BY IDOCK:   -0.90 KCAL/MOL
REMARK 927      BINDING AFFINITY PREDICTED BY RF-SCORE:    0.00 PKD
ROOT
HETATM    1  C   UNL     1      -7.197   7.590  72.303  1.00  0.00    -0.069 C  
HETATM    2  O   UNL     1      -6.532   6.716  71.397  1.00  0.00    -0.044 OA 
ENDROOT
BRANCH   2   3
HETATM    3  C   UNL     1      -7.041   6.623  70.129  1.00  0.00    -0.075 A  
HETATM    4  C   UNL     1      -7.945   5.626  69.741  1.00  0.00    -0.098 A  
HETATM    5  C   UNL     1      -8.416   5.506  68.444  1.00  0.00    -0.101 A  
HETATM    6  C   UNL     1      -8.017   6.450  67.484  1.00  0.00    -0.116 A  
HETATM    7  C   UNL     1      -7.149   7.494  67.875  1.00  0.00    -0.085 A  
HETATM    8  C   UNL     1      -8.502   6.267  66.171  1.00  0.00    -0.138 A  
HETATM    9  C   UNL     1      -9.342   5.196  65.875  1.00  0.00    -0.167 A  
HETATM   10  C   UNL     1      -6.624   7.557  69.171  1.00  0.00    -0.040 A  
HETATM   11  N   UNL     1      -9.221   4.469  68.162  1.00  0.00    -0.124 NA 
HETATM   12  C   UNL     1      -9.658   4.327  66.896  1.00  0.00    -0.203 A  
BRANCH   8  13
HETATM   13  O   UNL     1      -8.171   7.230  65.242  1.00  0.00    -0.130 OA 
BRANCH  13  14
HETATM   14  C   UNL     1      -8.856   8.419  65.193  1.00  0.00    -0.031 A  
HETATM   15  C   UNL     1      -9.719   8.653  66.261  1.00  0.00    -0.322 A  
HETATM   16  C   UNL     1     -10.410   9.862  66.360  1.00  0.00    -0.246 A  
HETATM   17  C   UNL     1     -10.245  10.855  65.392  1.00  0.00    -0.277 A  
HETATM   18  C   UNL     1      -8.680   9.406  64.228  1.00  0.00    -0.224 A  
HETATM   19  C   UNL     1      -9.392  10.610  64.311  1.00  0.00    -0.298 A  
BRANCH  17  20
HETATM   20  N   UNL     1     -10.895  12.108  65.454  1.00  0.00    -0.284 N  
HETATM   21  H   UNL     1     -11.827  12.168  65.044  1.00  0.00     0.000 HD 
HETATM   22  C   UNL     1     -10.383  13.257  66.016  1.00  0.00    -0.289 C  
HETATM   23  O   UNL     1      -9.276  13.427  66.500  1.00  0.00    -0.240 OA 
BRANCH  22  24
HETATM   24  C   UNL     1     -11.325  14.417  66.029  1.00  0.00    -0.335 C  
HETATM   25  C   UNL     1     -12.666  14.208  65.331  1.00  0.00    -0.453 C  
HETATM   26  C   UNL     1     -12.629  14.331  66.820  1.00  0.00     0.055 C  
BRANCH  24  27
HETATM   27  C   UNL     1     -10.640  15.742  65.954  1.00  0.00    -0.339 C  
HETATM   28  O   UNL     1     -10.376  16.206  64.852  1.00  0.00    -0.563 OA 
HETATM   29  N   UNL     1     -10.367  16.318  67.179  1.00  0.00    -0.282 N  
HETATM   30  H   UNL     1     -10.577  15.785  68.023  1.00  0.00     0.000 HD 
BRANCH  29  31
HETATM   31  C   UNL     1      -9.814  17.603  67.319  1.00  0.00    -0.303 A  
HETATM   32  C   UNL     1     -10.618  18.750  67.342  1.00  0.00    -0.505 A  
HETATM   33  C   UNL     1     -10.035  20.016  67.411  1.00  0.00    -0.571 A  
HETATM   34  C   UNL     1      -8.652  20.127  67.431  1.00  0.00    -0.343 A  
HETATM   35  C   UNL     1      -7.843  18.995  67.443  1.00  0.00    -0.263 A  
HETATM   36  F   UNL     1      -8.088  21.342  67.433  1.00  0.00    -0.340 F  
HETATM   37  C   UNL     1      -8.427  17.726  67.425  1.00  0.00    -0.230 A  
ENDBRANCH  29  31
ENDBRANCH  24  27
ENDBRANCH  22  24
ENDBRANCH  17  20
ENDBRANCH  13  14
ENDBRANCH   8  13
BRANCH  10  38
HETATM   38  O   UNL     1      -5.759   8.602  69.371  1.00  0.00    -0.034 OA 
HETATM   39  C   UNL     1      -6.298   9.902  69.157  1.00  0.00    -0.044 C  
ENDBRANCH  10  38
ENDBRANCH   2   3
TORSDOF 8
ENDMDL
MODEL       61
REMARK 921   NORMALIZED FREE ENERGY PREDICTED BY IDOCK:   -5.16 KCAL/MOL
REMARK 922        TOTAL FREE ENERGY PREDICTED BY IDOCK:   -9.04 KCAL/MOL
REMARK 923 INTER-LIGAND FREE ENERGY PREDICTED BY IDOCK:   -7.88 KCAL/MOL
REMARK 924 INTRA-LIGAND FREE ENERGY PREDICTED BY IDOCK:   -1.17 KCAL/MOL
REMARK 927      BINDING AFFINITY PREDICTED BY RF-SCORE:    0.00 PKD
ROOT
HETATM    1  C   UNL     1      -9.790  20.568  67.453  1.00  0.00    -0.434 C  
HETATM    2  O   UNL     1      -8.984  19.485  67.904  1.00  0.00    -0.308 OA 
ENDROOT
BRANCH   2   3
HETATM    3  C   UNL     1      -9.553  18.238  67.905  1.00  0.00    -0.289 A  
HETATM    4  C   UNL     1     -10.407  17.791  68.921  1.00  0.00    -0.300 A  
HETATM    5  C   UNL     1     -10.937  16.511  68.943  1.00  0.00    -0.325 A  
HETATM    6  C   UNL     1     -10.655  15.638  67.879  1.00  0.00    -0.278 A  
HETATM    7  C   UNL     1      -9.839  16.095  66.820  1.00  0.00    -0.255 A  
HETATM    8  C   UNL     1     -11.196  14.337  67.964  1.00  0.00    -0.280 A  
HETATM    9  C   UNL     1     -11.977  13.970  69.057  1.00  0.00    -0.392 A  
HETATM   10  C   UNL     1      -9.251  17.366  66.851  1.00  0.00    -0.256 A  
HETATM   11  N   UNL     1     -11.684  16.160  70.001  1.00  0.00    -0.264 NA 
HETATM   12  C   UNL     1     -12.178  14.908  70.046  1.00  0.00    -0.333 A  
BRANCH   8  13
HETATM   13  O   UNL     1     -10.981  13.500  66.890  1.00  0.00    -0.283 OA 
BRANCH  13  14
HETATM   14  C   UNL     1     -10.502  12.227  67.081  1.00  0.00    -0.219 A  
HETATM   15  C   UNL     1      -9.654  12.068  68.175  1.00  0.00    -0.200 A  
HETATM   16  C   UNL     1      -9.168  10.804  68.514  1.00  0.00    -0.174 A  
HETATM   17  C   UNL     1      -9.525   9.681  67.766  1.00  0.00    -0.127 A  
HETATM   18  C   UNL     1     -10.869  11.112  66.333  1.00  0.00    -0.284 A  
HETATM   19  C   UNL     1     -10.361   9.847  66.657  1.00  0.00    -0.275 A  
BRANCH  17  20
HETATM   20  N   UNL     1      -9.088   8.375  68.077  1.00  0.00    -0.137 N  
HETATM   21  H   UNL     1      -8.312   8.002  67.529  1.00  0.00     0.000 HD 
HETATM   22  C   UNL     1      -9.614   7.558  69.054  1.00  0.00    -0.153 C  
HETATM   23  O   UNL     1     -10.574   7.774  69.776  1.00  0.00    -0.235 OA 
BRANCH  22  24
HETATM   24  C   UNL     1      -8.896   6.259  69.234  1.00  0.00    -0.123 C  
HETATM   25  C   UNL     1      -7.535   6.328  69.922  1.00  0.00    -0.084 C  
HETATM   26  C   UNL     1      -8.684   5.694  70.637  1.00  0.00    -0.138 C  
BRANCH  24  27
HETATM   27  C   UNL     1      -9.123   5.294  68.118  1.00  0.00    -0.110 C  
HETATM   28  O   UNL     1     -10.204   4.723  68.045  1.00  0.00    -0.092 OA 
HETATM   29  N   UNL     1      -8.051   5.144  67.260  1.00  0.00    -0.103 N  
HETATM   30  H   UNL     1      -7.181   5.629  67.481  1.00  0.00     0.000 HD 
BRANCH  29  31
HETATM   31  C   UNL     1      -8.100   4.355  66.097  1.00  0.00    -0.102 A  
HETATM   32  C   UNL     1      -7.720   3.007  66.107  1.00  0.00    -0.077 A  
HETATM   33  C   UNL     1      -7.712   2.270  64.923  1.00  0.00    -0.073 A  
HETATM   34  C   UNL     1      -8.059   2.894  63.732  1.00  0.00    -0.082 A  
HETATM   35  C   UNL     1      -8.470   4.222  63.713  1.00  0.00    -0.105 A  
HETATM   36  F   UNL     1      -7.991   2.207  62.584  1.00  0.00    -0.054 F  
HETATM   37  C   UNL     1      -8.528   4.947  64.906  1.00  0.00    -0.144 A  
ENDBRANCH  29  31
ENDBRANCH  24  27
ENDBRANCH  22  24
ENDBRANCH  17  20
ENDBRANCH  13  14
ENDBRANCH   8  13
BRANCH  10  38
HETATM   38  O   UNL     1      -8.449  17.634  65.772  1.00  0.00    -0.525 OA 
HETATM   39  C   UNL     1      -7.047  17.533  66.001  1.00  0.00    -0.264 C  
ENDBRANCH  10  38
ENDBRANCH   2   3
TORSDOF 8
ENDMDL
MODEL       62
REMARK 921   NORMALIZED FREE ENERGY PREDICTED BY IDOCK:   -5.15 KCAL/MOL
REMARK 922        TOTAL FREE ENERGY PREDICTED BY IDOCK:   -9.03 KCAL/MOL
REMARK 923 INTER-LIGAND FREE ENERGY PREDICTED BY IDOCK:   -8.09 KCAL/MOL
REMARK 924 INTRA-LIGAND FREE ENERGY PREDICTED BY IDOCK:   -0.94 KCAL/MOL
REMARK 927      BINDING AFFINITY PREDICTED BY RF-SCORE:    0.00 PKD
ROOT
HETATM    1  C   UNL     1      -7.152  10.239  62.534  1.00  0.00    -0.142 C  
HETATM    2  O   UNL     1      -6.129   9.405  63.065  1.00  0.00    -0.092 OA 
ENDROOT
BRANCH   2   3
HETATM    3  C   UNL     1      -6.521   8.245  63.680  1.00  0.00    -0.072 A  
HETATM    4  C   UNL     1      -6.813   7.070  62.976  1.00  0.00    -0.056 A  
HETATM    5  C   UNL     1      -7.260   5.916  63.599  1.00  0.00    -0.059 A  
HETATM    6  C   UNL     1      -7.377   5.898  64.998  1.00  0.00    -0.072 A  
HETATM    7  C   UNL     1      -7.033   7.060  65.725  1.00  0.00    -0.060 A  
HETATM    8  C   UNL     1      -7.863   4.708  65.581  1.00  0.00    -0.094 A  
HETATM    9  C   UNL     1      -8.192   3.617  64.781  1.00  0.00    -0.090 A  
HETATM   10  C   UNL     1      -6.655   8.241  65.074  1.00  0.00    -0.059 A  
HETATM   11  N   UNL     1      -7.581   4.869  62.823  1.00  0.00    -0.058 NA 
HETATM   12  C   UNL     1      -8.046   3.753  63.418  1.00  0.00    -0.088 A  
BRANCH   8  13
HETATM   13  O   UNL     1      -7.913   4.661  66.958  1.00  0.00    -0.101 OA 
BRANCH  13  14
HETATM   14  C   UNL     1      -8.837   5.406  67.650  1.00  0.00    -0.105 A  
HETATM   15  C   UNL     1      -8.373   5.984  68.829  1.00  0.00    -0.106 A  
HETATM   16  C   UNL     1      -9.199   6.826  69.575  1.00  0.00    -0.147 A  
HETATM   17  C   UNL     1     -10.500   7.103  69.152  1.00  0.00    -0.211 A  
HETATM   18  C   UNL     1     -10.130   5.683  67.215  1.00  0.00    -0.210 A  
HETATM   19  C   UNL     1     -10.969   6.506  67.976  1.00  0.00    -0.368 A  
BRANCH  17  20
HETATM   20  N   UNL     1     -11.371   7.968  69.849  1.00  0.00    -0.456 N  
HETATM   21  H   UNL     1     -11.590   8.861  69.407  1.00  0.00     0.000 HD 
HETATM   22  C   UNL     1     -11.953   7.717  71.073  1.00  0.00    -0.273 C  
HETATM   23  O   UNL     1     -11.783   6.752  71.800  1.00  0.00    -0.280 OA 
BRANCH  22  24
HETATM   24  C   UNL     1     -12.911   8.767  71.535  1.00  0.00    -0.366 C  
HETATM   25  C   UNL     1     -14.391   8.492  71.282  1.00  0.00    -0.293 C  
HETATM   26  C   UNL     1     -13.872   8.468  72.684  1.00  0.00    -0.217 C  
BRANCH  24  27
HETATM   27  C   UNL     1     -12.375  10.155  71.415  1.00  0.00    -0.416 C  
HETATM   28  O   UNL     1     -11.218  10.310  71.047  1.00  0.00    -0.315 OA 
HETATM   29  N   UNL     1     -13.276  11.150  71.743  1.00  0.00    -0.430 N  
HETATM   30  H   UNL     1     -14.190  10.876  72.105  1.00  0.00     0.000 HD 
BRANCH  29  31
HETATM   31  C   UNL     1     -12.995  12.520  71.604  1.00  0.00    -0.302 A  
HETATM   32  C   UNL     1     -12.495  13.049  70.408  1.00  0.00    -0.266 A  
HETATM   33  C   UNL     1     -12.159  14.400  70.323  1.00  0.00    -0.396 A  
HETATM   34  C   UNL     1     -12.302  15.208  71.443  1.00  0.00    -0.346 A  
HETATM   35  C   UNL     1     -12.830  14.702  72.626  1.00  0.00    -0.499 A  
HETATM   36  F   UNL     1     -11.921  16.491  71.383  1.00  0.00    -0.430 F  
HETATM   37  C   UNL     1     -13.214  13.361  72.698  1.00  0.00    -0.436 A  
ENDBRANCH  29  31
ENDBRANCH  24  27
ENDBRANCH  22  24
ENDBRANCH  17  20
ENDBRANCH  13  14
ENDBRANCH   8  13
BRANCH  10  38
HETATM   38  O   UNL     1      -6.405   9.288  65.923  1.00  0.00    -0.059 OA 
HETATM   39  C   UNL     1      -7.510  10.143  66.196  1.00  0.00    -0.115 C  
ENDBRANCH  10  38
ENDBRANCH   2   3
TORSDOF 8
ENDMDL
MODEL       63
REMARK 921   NORMALIZED FREE ENERGY PREDICTED BY IDOCK:   -5.14 KCAL/MOL
REMARK 922        TOTAL FREE ENERGY PREDICTED BY IDOCK:   -9.02 KCAL/MOL
REMARK 923 INTER-LIGAND FREE ENERGY PREDICTED BY IDOCK:   -7.70 KCAL/MOL
REMARK 924 INTRA-LIGAND FREE ENERGY PREDICTED BY IDOCK:   -1.32 KCAL/MOL
REMARK 927      BINDING AFFINITY PREDICTED BY RF-SCORE:    0.00 PKD
ROOT
HETATM    1  C   UNL     1     -11.190   4.341  73.406  1.00  0.00    -0.268 C  
HETATM    2  O   UNL     1     -10.026   4.865  72.777  1.00  0.00    -0.153 OA 
ENDROOT
BRANCH   2   3
HETATM    3  C   UNL     1     -10.163   5.340  71.499  1.00  0.00    -0.212 A  
HETATM    4  C   UNL     1      -9.939   4.551  70.364  1.00  0.00    -0.284 A  
HETATM    5  C   UNL     1     -10.029   5.052  69.075  1.00  0.00    -0.181 A  
HETATM    6  C   UNL     1     -10.413   6.391  68.889  1.00  0.00    -0.264 A  
HETATM    7  C   UNL     1     -10.695   7.183  70.024  1.00  0.00    -0.268 A  
HETATM    8  C   UNL     1     -10.462   6.859  67.558  1.00  0.00    -0.247 A  
HETATM    9  C   UNL     1     -10.150   6.008  66.501  1.00  0.00    -0.191 A  
HETATM   10  C   UNL     1     -10.527   6.682  71.321  1.00  0.00    -0.215 A  
HETATM   11  N   UNL     1      -9.722   4.230  68.060  1.00  0.00    -0.139 NA 
HETATM   12  C   UNL     1      -9.777   4.717  66.805  1.00  0.00    -0.198 A  
BRANCH   8  13
HETATM   13  O   UNL     1     -10.905   8.150  67.366  1.00  0.00    -0.226 OA 
BRANCH  13  14
HETATM   14  C   UNL     1     -10.090   9.219  67.650  1.00  0.00    -0.214 A  
HETATM   15  C   UNL     1     -10.693  10.255  68.358  1.00  0.00    -0.263 A  
HETATM   16  C   UNL     1      -9.943  11.358  68.771  1.00  0.00    -0.188 A  
HETATM   17  C   UNL     1      -8.580  11.439  68.482  1.00  0.00    -0.150 A  
HETATM   18  C   UNL     1      -8.730   9.286  67.364  1.00  0.00    -0.121 A  
HETATM   19  C   UNL     1      -7.982  10.404  67.755  1.00  0.00    -0.102 A  
BRANCH  17  20
HETATM   20  N   UNL     1      -7.765  12.515  68.898  1.00  0.00    -0.319 N  
HETATM   21  H   UNL     1      -7.151  12.351  69.696  1.00  0.00     0.000 HD 
HETATM   22  C   UNL     1      -7.723  13.767  68.323  1.00  0.00    -0.138 C  
HETATM   23  O   UNL     1      -8.409  14.196  67.410  1.00  0.00    -0.175 OA 
BRANCH  22  24
HETATM   24  C   UNL     1      -6.697  14.685  68.904  1.00  0.00    -0.096 C  
HETATM   25  C   UNL     1      -6.239  14.375  70.327  1.00  0.00    -0.172 C  
HETATM   26  C   UNL     1      -5.289  14.168  69.192  1.00  0.00    -0.081 C  
BRANCH  24  27
HETATM   27  C   UNL     1      -6.844  16.101  68.456  1.00  0.00    -0.135 C  
HETATM   28  O   UNL     1      -7.316  16.920  69.235  1.00  0.00    -0.238 OA 
HETATM   29  N   UNL     1      -6.416  16.343  67.165  1.00  0.00    -0.184 N  
HETATM   30  H   UNL     1      -6.110  15.551  66.599  1.00  0.00     0.000 HD 
BRANCH  29  31
HETATM   31  C   UNL     1      -6.383  17.626  66.592  1.00  0.00    -0.200 A  
HETATM   32  C   UNL     1      -7.535  18.417  66.494  1.00  0.00    -0.265 A  
HETATM   33  C   UNL     1      -7.485  19.657  65.857  1.00  0.00    -0.327 A  
HETATM   34  C   UNL     1      -6.289  20.086  65.299  1.00  0.00    -0.261 A  
HETATM   35  C   UNL     1      -5.130  19.326  65.418  1.00  0.00    -0.180 A  
HETATM   36  F   UNL     1      -6.252  21.247  64.631  1.00  0.00    -0.301 F  
HETATM   37  C   UNL     1      -5.167  18.108  66.101  1.00  0.00    -0.204 A  
ENDBRANCH  29  31
ENDBRANCH  24  27
ENDBRANCH  22  24
ENDBRANCH  17  20
ENDBRANCH  13  14
ENDBRANCH   8  13
BRANCH  10  38
HETATM   38  O   UNL     1     -10.795   7.594  72.309  1.00  0.00    -0.234 OA 
HETATM   39  C   UNL     1     -10.402   8.936  72.037  1.00  0.00    -0.307 C  
ENDBRANCH  10  38
ENDBRANCH   2   3
TORSDOF 8
ENDMDL
MODEL       64
REMARK 921   NORMALIZED FREE ENERGY PREDICTED BY IDOCK:   -5.11 KCAL/MOL
REMARK 922        TOTAL FREE ENERGY PREDICTED BY IDOCK:   -8.96 KCAL/MOL
REMARK 923 INTER-LIGAND FREE ENERGY PREDICTED BY IDOCK:   -7.49 KCAL/MOL
REMARK 924 INTRA-LIGAND FREE ENERGY PREDICTED BY IDOCK:   -1.48 KCAL/MOL
REMARK 927      BINDING AFFINITY PREDICTED BY RF-SCORE:    0.00 PKD
ROOT
HETATM    1  C   UNL     1     -11.537  16.238  64.024  1.00  0.00     0.425 C  
HETATM    2  O   UNL     1     -10.522  15.673  64.847  1.00  0.00    -0.444 OA 
ENDROOT
BRANCH   2   3
HETATM    3  C   UNL     1     -10.926  15.031  65.988  1.00  0.00    -0.334 A  
HETATM    4  C   UNL     1     -11.017  15.670  67.231  1.00  0.00    -0.275 A  
HETATM    5  C   UNL     1     -11.375  15.002  68.390  1.00  0.00    -0.309 A  
HETATM    6  C   UNL     1     -11.715  13.641  68.316  1.00  0.00    -0.398 A  
HETATM    7  C   UNL     1     -11.680  12.997  67.059  1.00  0.00    -0.441 A  
HETATM    8  C   UNL     1     -12.045  13.001  69.531  1.00  0.00    -0.230 A  
HETATM    9  C   UNL     1     -12.036  13.714  70.727  1.00  0.00    -0.374 A  
HETATM   10  C   UNL     1     -11.244  13.668  65.910  1.00  0.00    -0.304 A  
HETATM   11  N   UNL     1     -11.360  15.692  69.542  1.00  0.00    -0.301 NA 
HETATM   12  C   UNL     1     -11.677  15.044  70.679  1.00  0.00    -0.308 A  
BRANCH   8  13
HETATM   13  O   UNL     1     -12.447  11.684  69.454  1.00  0.00    -0.125 OA 
BRANCH  13  14
HETATM   14  C   UNL     1     -11.759  10.703  70.126  1.00  0.00    -0.332 A  
HETATM   15  C   UNL     1     -10.494  10.412  69.622  1.00  0.00    -0.279 A  
HETATM   16  C   UNL     1      -9.671   9.488  70.269  1.00  0.00    -0.314 A  
HETATM   17  C   UNL     1     -10.102   8.845  71.431  1.00  0.00    -0.309 A  
HETATM   18  C   UNL     1     -12.194  10.073  71.288  1.00  0.00    -0.498 A  
HETATM   19  C   UNL     1     -11.380   9.127  71.924  1.00  0.00    -0.416 A  
BRANCH  17  20
HETATM   20  N   UNL     1      -9.304   7.923  72.144  1.00  0.00    -0.155 N  
HETATM   21  H   UNL     1      -9.772   7.100  72.523  1.00  0.00     0.000 HD 
HETATM   22  C   UNL     1      -7.950   8.035  72.375  1.00  0.00    -0.128 C  
HETATM   23  O   UNL     1      -7.211   8.957  72.071  1.00  0.00    -0.287 OA 
BRANCH  22  24
HETATM   24  C   UNL     1      -7.339   6.865  73.077  1.00  0.00    -0.074 C  
HETATM   25  C   UNL     1      -6.297   7.185  74.145  1.00  0.00    -0.077 C  
HETATM   26  C   UNL     1      -7.623   6.634  74.559  1.00  0.00    -0.106 C  
BRANCH  24  27
HETATM   27  C   UNL     1      -7.172   5.667  72.202  1.00  0.00    -0.089 C  
HETATM   28  O   UNL     1      -7.267   4.554  72.703  1.00  0.00    -0.075 OA 
HETATM   29  N   UNL     1      -6.919   5.955  70.875  1.00  0.00    -0.065 N  
HETATM   30  H   UNL     1      -6.793   6.931  70.606  1.00  0.00     0.000 HD 
BRANCH  29  31
HETATM   31  C   UNL     1      -6.826   4.969  69.877  1.00  0.00    -0.051 A  
HETATM   32  C   UNL     1      -5.606   4.361  69.558  1.00  0.00    -0.016 A  
HETATM   33  C   UNL     1      -5.532   3.438  68.514  1.00  0.00    -0.013 A  
HETATM   34  C   UNL     1      -6.674   3.149  67.780  1.00  0.00    -0.045 A  
HETATM   35  C   UNL     1      -7.899   3.721  68.109  1.00  0.00    -0.072 A  
HETATM   36  F   UNL     1      -6.594   2.312  66.738  1.00  0.00    -0.034 F  
HETATM   37  C   UNL     1      -7.984   4.607  69.185  1.00  0.00    -0.070 A  
ENDBRANCH  29  31
ENDBRANCH  24  27
ENDBRANCH  22  24
ENDBRANCH  17  20
ENDBRANCH  13  14
ENDBRANCH   8  13
BRANCH  10  38
HETATM   38  O   UNL     1     -11.223  12.886  64.784  1.00  0.00    -0.290 OA 
HETATM   39  C   UNL     1     -10.226  11.869  64.754  1.00  0.00    -0.276 C  
ENDBRANCH  10  38
ENDBRANCH   2   3
TORSDOF 8
ENDMDL
MODEL       65
REMARK 921   NORMALIZED FREE ENERGY PREDICTED BY IDOCK:   -5.10 KCAL/MOL
REMARK 922        TOTAL FREE ENERGY PREDICTED BY IDOCK:   -8.95 KCAL/MOL
REMARK 923 INTER-LIGAND FREE ENERGY PREDICTED BY IDOCK:   -7.65 KCAL/MOL
REMARK 924 INTRA-LIGAND FREE ENERGY PREDICTED BY IDOCK:   -1.31 KCAL/MOL
REMARK 927      BINDING AFFINITY PREDICTED BY RF-SCORE:    0.00 PKD
ROOT
HETATM    1  C   UNL     1      -9.567   2.609  71.299  1.00  0.00    -0.156 C  
HETATM    2  O   UNL     1     -10.004   3.762  70.588  1.00  0.00    -0.149 OA 
ENDROOT
BRANCH   2   3
HETATM    3  C   UNL     1      -9.162   4.843  70.567  1.00  0.00    -0.142 A  
HETATM    4  C   UNL     1      -8.703   5.474  71.730  1.00  0.00    -0.136 A  
HETATM    5  C   UNL     1      -7.895   6.598  71.702  1.00  0.00    -0.102 A  
HETATM    6  C   UNL     1      -7.470   7.101  70.462  1.00  0.00    -0.087 A  
HETATM    7  C   UNL     1      -7.881   6.442  69.282  1.00  0.00    -0.106 A  
HETATM    8  C   UNL     1      -6.670   8.265  70.487  1.00  0.00    -0.037 A  
HETATM    9  C   UNL     1      -6.328   8.857  71.700  1.00  0.00    -0.074 A  
HETATM   10  C   UNL     1      -8.759   5.352  69.326  1.00  0.00    -0.102 A  
HETATM   11  N   UNL     1      -7.572   7.168  72.874  1.00  0.00    -0.082 NA 
HETATM   12  C   UNL     1      -6.812   8.280  72.855  1.00  0.00    -0.098 A  
BRANCH   8  13
HETATM   13  O   UNL     1      -6.193   8.722  69.277  1.00  0.00    -0.041 OA 
BRANCH  13  14
HETATM   14  C   UNL     1      -6.986   9.485  68.456  1.00  0.00    -0.065 A  
HETATM   15  C   UNL     1      -7.126  10.818  68.835  1.00  0.00    -0.082 A  
HETATM   16  C   UNL     1      -7.845  11.708  68.035  1.00  0.00    -0.128 A  
HETATM   17  C   UNL     1      -8.431  11.278  66.843  1.00  0.00    -0.152 A  
HETATM   18  C   UNL     1      -7.560   9.049  67.265  1.00  0.00    -0.088 A  
HETATM   19  C   UNL     1      -8.303   9.935  66.474  1.00  0.00    -0.125 A  
BRANCH  17  20
HETATM   20  N   UNL     1      -9.144  12.138  65.979  1.00  0.00    -0.413 N  
HETATM   21  H   UNL     1      -8.726  12.333  65.070  1.00  0.00     0.000 HD 
HETATM   22  C   UNL     1     -10.354  12.738  66.254  1.00  0.00    -0.258 C  
HETATM   23  O   UNL     1     -10.995  12.694  67.291  1.00  0.00    -0.242 OA 
BRANCH  22  24
HETATM   24  C   UNL     1     -10.931  13.523  65.120  1.00  0.00    -0.328 C  
HETATM   25  C   UNL     1     -10.834  12.886  63.736  1.00  0.00    -0.351 C  
HETATM   26  C   UNL     1     -12.172  13.010  64.392  1.00  0.00    -0.471 C  
BRANCH  24  27
HETATM   27  C   UNL     1     -10.773  14.999  65.277  1.00  0.00    -0.389 C  
HETATM   28  O   UNL     1     -11.284  15.738  64.445  1.00  0.00    -0.388 OA 
HETATM   29  N   UNL     1     -10.042  15.385  66.384  1.00  0.00    -0.265 N  
HETATM   30  H   UNL     1      -9.611  14.659  66.957  1.00  0.00     0.000 HD 
BRANCH  29  31
HETATM   31  C   UNL     1      -9.863  16.727  66.759  1.00  0.00    -0.276 A  
HETATM   32  C   UNL     1     -10.764  17.379  67.611  1.00  0.00    -0.310 A  
HETATM   33  C   UNL     1     -10.598  18.731  67.908  1.00  0.00    -0.406 A  
HETATM   34  C   UNL     1      -9.547  19.431  67.331  1.00  0.00    -0.322 A  
HETATM   35  C   UNL     1      -8.626  18.788  66.510  1.00  0.00    -0.312 A  
HETATM   36  F   UNL     1      -9.422  20.743  67.563  1.00  0.00    -0.521 F  
HETATM   37  C   UNL     1      -8.761  17.422  66.252  1.00  0.00    -0.242 A  
ENDBRANCH  29  31
ENDBRANCH  24  27
ENDBRANCH  22  24
ENDBRANCH  17  20
ENDBRANCH  13  14
ENDBRANCH   8  13
BRANCH  10  38
HETATM   38  O   UNL     1      -9.098   4.860  68.091  1.00  0.00    -0.107 OA 
HETATM   39  C   UNL     1      -8.130   4.019  67.472  1.00  0.00    -0.091 C  
ENDBRANCH  10  38
ENDBRANCH   2   3
TORSDOF 8
ENDMDL
MODEL       66
REMARK 921   NORMALIZED FREE ENERGY PREDICTED BY IDOCK:   -5.10 KCAL/MOL
REMARK 922        TOTAL FREE ENERGY PREDICTED BY IDOCK:   -8.95 KCAL/MOL
REMARK 923 INTER-LIGAND FREE ENERGY PREDICTED BY IDOCK:   -8.40 KCAL/MOL
REMARK 924 INTRA-LIGAND FREE ENERGY PREDICTED BY IDOCK:   -0.55 KCAL/MOL
REMARK 927      BINDING AFFINITY PREDICTED BY RF-SCORE:    0.00 PKD
ROOT
HETATM    1  C   UNL     1      -9.789  19.062  68.818  1.00  0.00    -0.425 C  
HETATM    2  O   UNL     1     -10.185  17.836  69.424  1.00  0.00    -0.253 OA 
ENDROOT
BRANCH   2   3
HETATM    3  C   UNL     1     -10.558  16.816  68.588  1.00  0.00    -0.353 A  
HETATM    4  C   UNL     1     -10.495  16.912  67.193  1.00  0.00    -0.296 A  
HETATM    5  C   UNL     1     -10.923  15.896  66.353  1.00  0.00    -0.115 A  
HETATM    6  C   UNL     1     -11.389  14.697  66.917  1.00  0.00    -0.361 A  
HETATM    7  C   UNL     1     -11.406  14.566  68.323  1.00  0.00    -0.319 A  
HETATM    8  C   UNL     1     -11.840  13.705  66.018  1.00  0.00    -0.385 A  
HETATM    9  C   UNL     1     -11.801  13.930  64.644  1.00  0.00    -0.428 A  
HETATM   10  C   UNL     1     -11.041  15.630  69.157  1.00  0.00    -0.284 A  
HETATM   11  N   UNL     1     -10.889  16.120  65.030  1.00  0.00    -0.584 NA 
HETATM   12  C   UNL     1     -11.331  15.150  64.207  1.00  0.00    -0.080 A  
BRANCH   8  13
HETATM   13  O   UNL     1     -12.232  12.501  66.562  1.00  0.00    -0.569 OA 
BRANCH  13  14
HETATM   14  C   UNL     1     -11.317  11.501  66.783  1.00  0.00    -0.238 A  
HETATM   15  C   UNL     1     -11.348  10.936  68.055  1.00  0.00    -0.382 A  
HETATM   16  C   UNL     1     -10.517   9.859  68.370  1.00  0.00    -0.239 A  
HETATM   17  C   UNL     1      -9.645   9.332  67.416  1.00  0.00    -0.150 A  
HETATM   18  C   UNL     1     -10.457  10.977  65.822  1.00  0.00    -0.290 A  
HETATM   19  C   UNL     1      -9.604   9.914  66.144  1.00  0.00    -0.275 A  
BRANCH  17  20
HETATM   20  N   UNL     1      -8.803   8.226  67.667  1.00  0.00    -0.136 N  
HETATM   21  H   UNL     1      -9.154   7.511  68.303  1.00  0.00     0.000 HD 
HETATM   22  C   UNL     1      -7.549   8.027  67.131  1.00  0.00    -0.097 C  
HETATM   23  O   UNL     1      -6.915   8.776  66.405  1.00  0.00    -0.079 OA 
BRANCH  22  24
HETATM   24  C   UNL     1      -6.918   6.721  67.492  1.00  0.00    -0.083 C  
HETATM   25  C   UNL     1      -6.447   5.851  66.329  1.00  0.00    -0.046 C  
HETATM   26  C   UNL     1      -5.432   6.492  67.220  1.00  0.00    -0.012 C  
BRANCH  24  27
HETATM   27  C   UNL     1      -7.511   6.089  68.708  1.00  0.00    -0.086 C  
HETATM   28  O   UNL     1      -7.512   6.719  69.758  1.00  0.00    -0.087 OA 
HETATM   29  N   UNL     1      -8.012   4.818  68.508  1.00  0.00    -0.084 N  
HETATM   30  H   UNL     1      -7.881   4.382  67.595  1.00  0.00     0.000 HD 
BRANCH  29  31
HETATM   31  C   UNL     1      -8.695   4.094  69.502  1.00  0.00    -0.083 A  
HETATM   32  C   UNL     1      -9.137   4.705  70.682  1.00  0.00    -0.181 A  
HETATM   33  C   UNL     1      -9.748   3.946  71.680  1.00  0.00    -0.240 A  
HETATM   34  C   UNL     1      -9.890   2.577  71.503  1.00  0.00    -0.126 A  
HETATM   35  C   UNL     1      -9.485   1.964  70.321  1.00  0.00    -0.143 A  
HETATM   36  F   UNL     1     -10.418   1.836  72.485  1.00  0.00    -0.198 F  
HETATM   37  C   UNL     1      -8.919   2.730  69.300  1.00  0.00    -0.171 A  
ENDBRANCH  29  31
ENDBRANCH  24  27
ENDBRANCH  22  24
ENDBRANCH  17  20
ENDBRANCH  13  14
ENDBRANCH   8  13
BRANCH  10  38
HETATM   38  O   UNL     1     -11.162  15.355  70.495  1.00  0.00    -0.282 OA 
HETATM   39  C   UNL     1     -11.837  14.144  70.820  1.00  0.00    -0.242 C  
ENDBRANCH  10  38
ENDBRANCH   2   3
TORSDOF 8
ENDMDL
MODEL       67
REMARK 921   NORMALIZED FREE ENERGY PREDICTED BY IDOCK:   -5.08 KCAL/MOL
REMARK 922        TOTAL FREE ENERGY PREDICTED BY IDOCK:   -8.93 KCAL/MOL
REMARK 923 INTER-LIGAND FREE ENERGY PREDICTED BY IDOCK:   -7.48 KCAL/MOL
REMARK 924 INTRA-LIGAND FREE ENERGY PREDICTED BY IDOCK:   -1.45 KCAL/MOL
REMARK 927      BINDING AFFINITY PREDICTED BY RF-SCORE:    0.00 PKD
ROOT
HETATM    1  C   UNL     1     -11.218   1.924  73.643  1.00  0.00    -0.193 C  
HETATM    2  O   UNL     1      -9.919   1.947  73.060  1.00  0.00    -0.090 OA 
ENDROOT
BRANCH   2   3
HETATM    3  C   UNL     1      -9.635   2.977  72.203  1.00  0.00    -0.140 A  
HETATM    4  C   UNL     1      -9.822   2.891  70.818  1.00  0.00    -0.004 A  
HETATM    5  C   UNL     1      -9.483   3.917  69.952  1.00  0.00    -0.197 A  
HETATM    6  C   UNL     1      -8.981   5.118  70.481  1.00  0.00    -0.165 A  
HETATM    7  C   UNL     1      -8.839   5.239  71.881  1.00  0.00    -0.142 A  
HETATM    8  C   UNL     1      -8.625   6.121  69.554  1.00  0.00    -0.127 A  
HETATM    9  C   UNL     1      -8.785   5.906  68.187  1.00  0.00    -0.111 A  
HETATM   10  C   UNL     1      -9.115   4.165  72.736  1.00  0.00    -0.105 A  
HETATM   11  N   UNL     1      -9.634   3.703  68.635  1.00  0.00    -0.137 NA 
HETATM   12  C   UNL     1      -9.278   4.684  67.784  1.00  0.00    -0.126 A  
BRANCH   8  13
HETATM   13  O   UNL     1      -8.198   7.326  70.070  1.00  0.00    -0.127 OA 
BRANCH  13  14
HETATM   14  C   UNL     1      -8.796   8.502  69.688  1.00  0.00    -0.137 A  
HETATM   15  C   UNL     1      -8.100   9.242  68.735  1.00  0.00    -0.104 A  
HETATM   16  C   UNL     1      -8.647  10.415  68.213  1.00  0.00    -0.128 A  
HETATM   17  C   UNL     1      -9.900  10.864  68.636  1.00  0.00    -0.190 A  
HETATM   18  C   UNL     1     -10.049   8.937  70.110  1.00  0.00    -0.212 A  
HETATM   19  C   UNL     1     -10.588  10.128  69.606  1.00  0.00    -0.286 A  
BRANCH  17  20
HETATM   20  N   UNL     1     -10.517  12.026  68.123  1.00  0.00    -0.196 N  
HETATM   21  H   UNL     1     -11.474  11.932  67.783  1.00  0.00     0.000 HD 
HETATM   22  C   UNL     1      -9.943  13.277  68.040  1.00  0.00    -0.233 C  
HETATM   23  O   UNL     1      -8.801  13.599  68.327  1.00  0.00    -0.176 OA 
BRANCH  22  24
HETATM   24  C   UNL     1     -10.857  14.350  67.545  1.00  0.00    -0.285 C  
HETATM   25  C   UNL     1     -12.067  13.889  66.735  1.00  0.00    -0.476 C  
HETATM   26  C   UNL     1     -12.275  14.459  68.101  1.00  0.00    -0.142 C  
BRANCH  24  27
HETATM   27  C   UNL     1     -10.150  15.614  67.181  1.00  0.00    -0.256 C  
HETATM   28  O   UNL     1     -10.028  15.900  65.997  1.00  0.00    -0.288 OA 
HETATM   29  N   UNL     1      -9.694  16.347  68.258  1.00  0.00    -0.220 N  
HETATM   30  H   UNL     1      -9.801  15.954  69.194  1.00  0.00     0.000 HD 
BRANCH  29  31
HETATM   31  C   UNL     1      -9.089  17.610  68.130  1.00  0.00    -0.276 A  
HETATM   32  C   UNL     1      -9.847  18.787  68.092  1.00  0.00    -0.396 A  
HETATM   33  C   UNL     1      -9.224  20.019  67.892  1.00  0.00    -0.412 A  
HETATM   34  C   UNL     1      -7.849  20.062  67.706  1.00  0.00    -0.295 A  
HETATM   35  C   UNL     1      -7.081  18.905  67.775  1.00  0.00    -0.245 A  
HETATM   36  F   UNL     1      -7.256  21.236  67.451  1.00  0.00    -0.425 F  
HETATM   37  C   UNL     1      -7.698  17.677  68.026  1.00  0.00    -0.232 A  
ENDBRANCH  29  31
ENDBRANCH  24  27
ENDBRANCH  22  24
ENDBRANCH  17  20
ENDBRANCH  13  14
ENDBRANCH   8  13
BRANCH  10  38
HETATM   38  O   UNL     1      -8.878   4.432  74.060  1.00  0.00    -0.103 OA 
HETATM   39  C   UNL     1      -8.004   5.525  74.324  1.00  0.00    -0.105 C  
ENDBRANCH  10  38
ENDBRANCH   2   3
TORSDOF 8
ENDMDL
MODEL       68
REMARK 921   NORMALIZED FREE ENERGY PREDICTED BY IDOCK:   -5.03 KCAL/MOL
REMARK 922        TOTAL FREE ENERGY PREDICTED BY IDOCK:   -8.85 KCAL/MOL
REMARK 923 INTER-LIGAND FREE ENERGY PREDICTED BY IDOCK:   -7.56 KCAL/MOL
REMARK 924 INTRA-LIGAND FREE ENERGY PREDICTED BY IDOCK:   -1.29 KCAL/MOL
REMARK 927      BINDING AFFINITY PREDICTED BY RF-SCORE:    0.00 PKD
ROOT
HETATM    1  C   UNL     1      -9.053   1.626  69.188  1.00  0.00    -0.107 C  
HETATM    2  O   UNL     1      -9.586   2.935  69.353  1.00  0.00    -0.130 OA 
ENDROOT
BRANCH   2   3
HETATM    3  C   UNL     1      -8.797   3.987  68.967  1.00  0.00    -0.100 A  
HETATM    4  C   UNL     1      -7.788   4.520  69.779  1.00  0.00    -0.057 A  
HETATM    5  C   UNL     1      -7.028   5.617  69.405  1.00  0.00    -0.063 A  
HETATM    6  C   UNL     1      -7.236   6.190  68.140  1.00  0.00    -0.084 A  
HETATM    7  C   UNL     1      -8.213   5.628  67.289  1.00  0.00    -0.101 A  
HETATM    8  C   UNL     1      -6.456   7.322  67.819  1.00  0.00    -0.052 A  
HETATM    9  C   UNL     1      -5.526   7.818  68.730  1.00  0.00    -0.027 A  
HETATM   10  C   UNL     1      -9.023   4.567  67.712  1.00  0.00    -0.116 A  
HETATM   11  N   UNL     1      -6.138   6.094  70.289  1.00  0.00    -0.029 NA 
HETATM   12  C   UNL     1      -5.417   7.179  69.946  1.00  0.00    -0.023 A  
BRANCH   8  13
HETATM   13  O   UNL     1      -6.605   7.846  66.552  1.00  0.00    -0.052 OA 
BRANCH  13  14
HETATM   14  C   UNL     1      -7.423   8.928  66.335  1.00  0.00    -0.088 A  
HETATM   15  C   UNL     1      -7.532   9.815  67.402  1.00  0.00    -0.091 A  
HETATM   16  C   UNL     1      -8.274  10.991  67.270  1.00  0.00    -0.125 A  
HETATM   17  C   UNL     1      -8.914  11.296  66.068  1.00  0.00    -0.200 A  
HETATM   18  C   UNL     1      -8.051   9.227  65.129  1.00  0.00    -0.124 A  
HETATM   19  C   UNL     1      -8.816  10.394  65.004  1.00  0.00    -0.209 A  
BRANCH  17  20
HETATM   20  N   UNL     1      -9.653  12.483  65.866  1.00  0.00    -0.383 N  
HETATM   21  H   UNL     1      -9.123  13.329  65.659  1.00  0.00     0.000 HD 
HETATM   22  C   UNL     1     -11.024  12.601  65.925  1.00  0.00    -0.278 C  
HETATM   23  O   UNL     1     -11.840  11.741  66.216  1.00  0.00    -0.501 OA 
BRANCH  22  24
HETATM   24  C   UNL     1     -11.548  13.956  65.574  1.00  0.00    -0.332 C  
HETATM   25  C   UNL     1     -12.009  14.152  64.132  1.00  0.00    -0.421 C  
HETATM   26  C   UNL     1     -13.025  14.136  65.229  1.00  0.00    -0.268 C  
BRANCH  24  27
HETATM   27  C   UNL     1     -10.860  15.066  66.298  1.00  0.00    -0.333 C  
HETATM   28  O   UNL     1     -10.666  14.952  67.502  1.00  0.00    -0.266 OA 
HETATM   29  N   UNL     1     -10.504  16.138  65.503  1.00  0.00    -0.388 N  
HETATM   30  H   UNL     1     -10.793  16.132  64.524  1.00  0.00     0.000 HD 
BRANCH  29  31
HETATM   31  C   UNL     1      -9.765  17.236  65.976  1.00  0.00    -0.168 A  
HETATM   32  C   UNL     1      -8.462  17.088  66.466  1.00  0.00    -0.306 A  
HETATM   33  C   UNL     1      -7.780  18.184  66.994  1.00  0.00    -0.237 A  
HETATM   34  C   UNL     1      -8.417  19.417  67.052  1.00  0.00    -0.287 A  
HETATM   35  C   UNL     1      -9.698  19.585  66.538  1.00  0.00    -0.478 A  
HETATM   36  F   UNL     1      -7.789  20.457  67.616  1.00  0.00    -0.323 F  
HETATM   37  C   UNL     1     -10.363  18.499  65.963  1.00  0.00    -0.423 A  
ENDBRANCH  29  31
ENDBRANCH  24  27
ENDBRANCH  22  24
ENDBRANCH  17  20
ENDBRANCH  13  14
ENDBRANCH   8  13
BRANCH  10  38
HETATM   38  O   UNL     1      -9.953   4.173  66.785  1.00  0.00    -0.218 OA 
HETATM   39  C   UNL     1      -9.435   3.748  65.529  1.00  0.00    -0.169 C  
ENDBRANCH  10  38
ENDBRANCH   2   3
TORSDOF 8
ENDMDL
MODEL       69
REMARK 921   NORMALIZED FREE ENERGY PREDICTED BY IDOCK:   -5.01 KCAL/MOL
REMARK 922        TOTAL FREE ENERGY PREDICTED BY IDOCK:   -8.82 KCAL/MOL
REMARK 923 INTER-LIGAND FREE ENERGY PREDICTED BY IDOCK:   -7.48 KCAL/MOL
REMARK 924 INTRA-LIGAND FREE ENERGY PREDICTED BY IDOCK:   -1.34 KCAL/MOL
REMARK 927      BINDING AFFINITY PREDICTED BY RF-SCORE:    0.00 PKD
ROOT
HETATM    1  C   UNL     1     -12.567  13.415  63.340  1.00  0.00     0.018 C  
HETATM    2  O   UNL     1     -12.676  14.209  64.516  1.00  0.00    -0.656 OA 
ENDROOT
BRANCH   2   3
HETATM    3  C   UNL     1     -11.564  14.309  65.311  1.00  0.00    -0.348 A  
HETATM    4  C   UNL     1     -10.660  15.375  65.226  1.00  0.00    -0.450 A  
HETATM    5  C   UNL     1      -9.510  15.444  65.996  1.00  0.00    -0.346 A  
HETATM    6  C   UNL     1      -9.261  14.434  66.940  1.00  0.00    -0.269 A  
HETATM    7  C   UNL     1     -10.192  13.381  67.073  1.00  0.00    -0.249 A  
HETATM    8  C   UNL     1      -8.062  14.536  67.678  1.00  0.00    -0.179 A  
HETATM    9  C   UNL     1      -7.193  15.604  67.466  1.00  0.00    -0.219 A  
HETATM   10  C   UNL     1     -11.311  13.288  66.236  1.00  0.00    -0.309 A  
HETATM   11  N   UNL     1      -8.674  16.471  65.784  1.00  0.00    -0.420 NA 
HETATM   12  C   UNL     1      -7.538  16.530  66.505  1.00  0.00    -0.269 A  
BRANCH   8  13
HETATM   13  O   UNL     1      -7.846  13.586  68.654  1.00  0.00    -0.134 OA 
BRANCH  13  14
HETATM   14  C   UNL     1      -7.689  12.263  68.320  1.00  0.00    -0.143 A  
HETATM   15  C   UNL     1      -8.323  11.357  69.167  1.00  0.00     0.126 A  
HETATM   16  C   UNL     1      -8.299   9.990  68.883  1.00  0.00    -0.130 A  
HETATM   17  C   UNL     1      -7.643   9.511  67.748  1.00  0.00    -0.087 A  
HETATM   18  C   UNL     1      -7.039  11.796  67.181  1.00  0.00    -0.146 A  
HETATM   19  C   UNL     1      -6.992  10.423  66.910  1.00  0.00    -0.093 A  
BRANCH  17  20
HETATM   20  N   UNL     1      -7.609   8.144  67.394  1.00  0.00    -0.099 N  
HETATM   21  H   UNL     1      -6.782   7.614  67.670  1.00  0.00     0.000 HD 
HETATM   22  C   UNL     1      -8.591   7.462  66.710  1.00  0.00    -0.127 C  
HETATM   23  O   UNL     1      -9.623   7.908  66.235  1.00  0.00    -0.195 OA 
BRANCH  22  24
HETATM   24  C   UNL     1      -8.338   5.996  66.555  1.00  0.00    -0.113 C  
HETATM   25  C   UNL     1      -9.022   5.312  65.374  1.00  0.00    -0.147 C  
HETATM   26  C   UNL     1      -7.537   5.484  65.360  1.00  0.00    -0.079 C  
BRANCH  24  27
HETATM   27  C   UNL     1      -8.191   5.277  67.855  1.00  0.00    -0.099 C  
HETATM   28  O   UNL     1      -7.119   5.339  68.444  1.00  0.00    -0.060 OA 
HETATM   29  N   UNL     1      -9.320   4.595  68.266  1.00  0.00    -0.129 N  
HETATM   30  H   UNL     1     -10.125   4.568  67.639  1.00  0.00     0.000 HD 
BRANCH  29  31
HETATM   31  C   UNL     1      -9.414   3.936  69.504  1.00  0.00    -0.189 A  
HETATM   32  C   UNL     1      -9.177   2.561  69.624  1.00  0.00    -0.195 A  
HETATM   33  C   UNL     1      -9.347   1.923  70.853  1.00  0.00    -0.191 A  
HETATM   34  C   UNL     1      -9.779   2.660  71.947  1.00  0.00    -0.151 A  
HETATM   35  C   UNL     1      -9.985   4.032  71.849  1.00  0.00    -0.246 A  
HETATM   36  F   UNL     1     -10.004   2.039  73.112  1.00  0.00    -0.117 F  
HETATM   37  C   UNL     1      -9.766   4.681  70.632  1.00  0.00    -0.277 A  
ENDBRANCH  29  31
ENDBRANCH  24  27
ENDBRANCH  22  24
ENDBRANCH  17  20
ENDBRANCH  13  14
ENDBRANCH   8  13
BRANCH  10  38
HETATM   38  O   UNL     1     -12.086  12.180  66.464  1.00  0.00    -0.627 OA 
HETATM   39  C   UNL     1     -11.506  11.177  67.292  1.00  0.00    -0.136 C  
ENDBRANCH  10  38
ENDBRANCH   2   3
TORSDOF 8
ENDMDL
MODEL       70
REMARK 921   NORMALIZED FREE ENERGY PREDICTED BY IDOCK:   -4.90 KCAL/MOL
REMARK 922        TOTAL FREE ENERGY PREDICTED BY IDOCK:   -8.66 KCAL/MOL
REMARK 923 INTER-LIGAND FREE ENERGY PREDICTED BY IDOCK:   -7.28 KCAL/MOL
REMARK 924 INTRA-LIGAND FREE ENERGY PREDICTED BY IDOCK:   -1.39 KCAL/MOL
REMARK 927      BINDING AFFINITY PREDICTED BY RF-SCORE:    0.00 PKD
ROOT
HETATM    1  C   UNL     1     -10.512   3.310  63.685  1.00  0.00    -0.244 C  
HETATM    2  O   UNL     1      -9.213   3.170  64.250  1.00  0.00    -0.121 OA 
ENDROOT
BRANCH   2   3
HETATM    3  C   UNL     1      -8.968   3.821  65.430  1.00  0.00    -0.134 A  
HETATM    4  C   UNL     1      -9.280   3.274  66.681  1.00  0.00    -0.178 A  
HETATM    5  C   UNL     1      -9.078   3.959  67.868  1.00  0.00    -0.149 A  
HETATM    6  C   UNL     1      -8.488   5.233  67.828  1.00  0.00    -0.105 A  
HETATM    7  C   UNL     1      -8.118   5.774  66.577  1.00  0.00    -0.102 A  
HETATM    8  C   UNL     1      -8.330   5.900  69.063  1.00  0.00    -0.106 A  
HETATM    9  C   UNL     1      -8.741   5.294  70.247  1.00  0.00    -0.134 A  
HETATM   10  C   UNL     1      -8.397   5.100  65.382  1.00  0.00    -0.132 A  
HETATM   11  N   UNL     1      -9.481   3.373  69.007  1.00  0.00    -0.165 NA 
HETATM   12  C   UNL     1      -9.317   4.045  70.163  1.00  0.00    -0.170 A  
BRANCH   8  13
HETATM   13  O   UNL     1      -7.688   7.120  69.037  1.00  0.00    -0.104 OA 
BRANCH  13  14
HETATM   14  C   UNL     1      -8.398   8.279  68.842  1.00  0.00    -0.127 A  
HETATM   15  C   UNL     1      -9.092   8.746  69.956  1.00  0.00    -0.164 A  
HETATM   16  C   UNL     1      -9.785   9.957  69.899  1.00  0.00    -0.274 A  
HETATM   17  C   UNL     1      -9.791  10.718  68.730  1.00  0.00    -0.194 A  
HETATM   18  C   UNL     1      -8.391   9.036  67.674  1.00  0.00    -0.117 A  
HETATM   19  C   UNL     1      -9.107  10.238  67.608  1.00  0.00    -0.144 A  
BRANCH  17  20
HETATM   20  N   UNL     1     -10.450  11.963  68.622  1.00  0.00    -0.216 N  
HETATM   21  H   UNL     1     -11.469  11.954  68.659  1.00  0.00     0.000 HD 
HETATM   22  C   UNL     1      -9.840  13.190  68.472  1.00  0.00    -0.153 C  
HETATM   23  O   UNL     1      -8.650  13.425  68.342  1.00  0.00    -0.171 OA 
BRANCH  22  24
HETATM   24  C   UNL     1     -10.776  14.356  68.482  1.00  0.00    -0.258 C  
HETATM   25  C   UNL     1     -11.843  14.377  67.390  1.00  0.00    -0.430 C  
HETATM   26  C   UNL     1     -12.253  14.144  68.809  1.00  0.00    -0.234 C  
BRANCH  24  27
HETATM   27  C   UNL     1     -10.137  15.628  68.930  1.00  0.00    -0.217 C  
HETATM   28  O   UNL     1     -10.323  16.008  70.079  1.00  0.00    -0.281 OA 
HETATM   29  N   UNL     1      -9.378  16.262  67.965  1.00  0.00    -0.212 N  
HETATM   30  H   UNL     1      -9.367  15.870  67.022  1.00  0.00     0.000 HD 
BRANCH  29  31
HETATM   31  C   UNL     1      -8.621  17.419  68.217  1.00  0.00    -0.260 A  
HETATM   32  C   UNL     1      -9.051  18.684  67.798  1.00  0.00    -0.303 A  
HETATM   33  C   UNL     1      -8.245  19.804  68.000  1.00  0.00    -0.335 A  
HETATM   34  C   UNL     1      -7.001  19.647  68.596  1.00  0.00    -0.326 A  
HETATM   35  C   UNL     1      -6.576  18.401  69.046  1.00  0.00    -0.270 A  
HETATM   36  F   UNL     1      -6.197  20.709  68.734  1.00  0.00    -0.331 F  
HETATM   37  C   UNL     1      -7.404  17.288  68.891  1.00  0.00    -0.243 A  
ENDBRANCH  29  31
ENDBRANCH  24  27
ENDBRANCH  22  24
ENDBRANCH  17  20
ENDBRANCH  13  14
ENDBRANCH   8  13
BRANCH  10  38
HETATM   38  O   UNL     1      -8.019   5.784  64.255  1.00  0.00    -0.114 OA 
HETATM   39  C   UNL     1      -8.059   7.204  64.351  1.00  0.00    -0.056 C  
ENDBRANCH  10  38
ENDBRANCH   2   3
TORSDOF 8
ENDMDL
MODEL       71
REMARK 921   NORMALIZED FREE ENERGY PREDICTED BY IDOCK:   -4.89 KCAL/MOL
REMARK 922        TOTAL FREE ENERGY PREDICTED BY IDOCK:   -8.65 KCAL/MOL
REMARK 923 INTER-LIGAND FREE ENERGY PREDICTED BY IDOCK:   -7.73 KCAL/MOL
REMARK 924 INTRA-LIGAND FREE ENERGY PREDICTED BY IDOCK:   -0.92 KCAL/MOL
REMARK 927      BINDING AFFINITY PREDICTED BY RF-SCORE:    0.00 PKD
ROOT
HETATM    1  C   UNL     1      -5.931  17.338  68.930  1.00  0.00    -0.176 C  
HETATM    2  O   UNL     1      -6.411  16.159  69.567  1.00  0.00    -0.180 OA 
ENDROOT
BRANCH   2   3
HETATM    3  C   UNL     1      -7.487  15.531  68.996  1.00  0.00    -0.171 A  
HETATM    4  C   UNL     1      -8.802  15.712  69.444  1.00  0.00    -0.257 A  
HETATM    5  C   UNL     1      -9.879  15.034  68.896  1.00  0.00    -0.233 A  
HETATM    6  C   UNL     1      -9.659  14.169  67.812  1.00  0.00    -0.219 A  
HETATM    7  C   UNL     1      -8.346  14.019  67.314  1.00  0.00    -0.209 A  
HETATM    8  C   UNL     1     -10.785  13.482  67.309  1.00  0.00    -0.267 A  
HETATM    9  C   UNL     1     -12.042  13.681  67.875  1.00  0.00    -0.318 A  
HETATM   10  C   UNL     1      -7.259  14.654  67.927  1.00  0.00    -0.159 A  
HETATM   11  N   UNL     1     -11.087  15.225  69.449  1.00  0.00    -0.262 NA 
HETATM   12  C   UNL     1     -12.134  14.547  68.943  1.00  0.00    -0.237 A  
BRANCH   8  13
HETATM   13  O   UNL     1     -10.588  12.686  66.200  1.00  0.00    -0.252 OA 
BRANCH  13  14
HETATM   14  C   UNL     1     -10.091  11.413  66.334  1.00  0.00    -0.218 A  
HETATM   15  C   UNL     1     -10.657  10.657  67.358  1.00  0.00    -0.304 A  
HETATM   16  C   UNL     1     -10.287   9.323  67.539  1.00  0.00    -0.323 A  
HETATM   17  C   UNL     1      -9.347   8.726  66.697  1.00  0.00    -0.189 A  
HETATM   18  C   UNL     1      -9.159  10.824  65.484  1.00  0.00    -0.220 A  
HETATM   19  C   UNL     1      -8.767   9.493  65.681  1.00  0.00    -0.173 A  
BRANCH  17  20
HETATM   20  N   UNL     1      -8.955   7.374  66.813  1.00  0.00    -0.134 N  
HETATM   21  H   UNL     1      -7.964   7.191  66.971  1.00  0.00     0.000 HD 
HETATM   22  C   UNL     1      -9.789   6.281  66.733  1.00  0.00    -0.164 C  
HETATM   23  O   UNL     1     -10.985   6.265  66.489  1.00  0.00    -0.234 OA 
BRANCH  22  24
HETATM   24  C   UNL     1      -9.121   4.968  66.989  1.00  0.00    -0.117 C  
HETATM   25  C   UNL     1      -8.878   4.082  65.769  1.00  0.00    -0.123 C  
HETATM   26  C   UNL     1      -7.712   4.714  66.458  1.00  0.00    -0.091 C  
BRANCH  24  27
HETATM   27  C   UNL     1      -9.496   4.355  68.297  1.00  0.00    -0.153 C  
HETATM   28  O   UNL     1      -9.633   3.140  68.361  1.00  0.00    -0.171 OA 
HETATM   29  N   UNL     1      -9.654   5.257  69.331  1.00  0.00    -0.143 N  
HETATM   30  H   UNL     1      -9.580   6.253  69.121  1.00  0.00     0.000 HD 
BRANCH  29  31
HETATM   31  C   UNL     1      -9.911   4.872  70.658  1.00  0.00    -0.235 A  
HETATM   32  C   UNL     1      -9.252   3.787  71.249  1.00  0.00    -0.197 A  
HETATM   33  C   UNL     1      -9.580   3.384  72.543  1.00  0.00    -0.191 A  
HETATM   34  C   UNL     1     -10.585   4.053  73.229  1.00  0.00    -0.189 A  
HETATM   35  C   UNL     1     -11.224   5.152  72.666  1.00  0.00    -0.277 A  
HETATM   36  F   UNL     1     -10.946   3.629  74.447  1.00  0.00    -0.243 F  
HETATM   37  C   UNL     1     -10.861   5.589  71.390  1.00  0.00    -0.256 A  
ENDBRANCH  29  31
ENDBRANCH  24  27
ENDBRANCH  22  24
ENDBRANCH  17  20
ENDBRANCH  13  14
ENDBRANCH   8  13
BRANCH  10  38
HETATM   38  O   UNL     1      -6.048  14.363  67.352  1.00  0.00    -0.341 OA 
HETATM   39  C   UNL     1      -5.456  13.130  67.745  1.00  0.00    -0.110 C  
ENDBRANCH  10  38
ENDBRANCH   2   3
TORSDOF 8
ENDMDL
MODEL       72
REMARK 921   NORMALIZED FREE ENERGY PREDICTED BY IDOCK:   -4.88 KCAL/MOL
REMARK 922        TOTAL FREE ENERGY PREDICTED BY IDOCK:   -8.63 KCAL/MOL
REMARK 923 INTER-LIGAND FREE ENERGY PREDICTED BY IDOCK:   -8.24 KCAL/MOL
REMARK 924 INTRA-LIGAND FREE ENERGY PREDICTED BY IDOCK:   -0.38 KCAL/MOL
REMARK 927      BINDING AFFINITY PREDICTED BY RF-SCORE:    0.00 PKD
ROOT
HETATM    1  C   UNL     1      -5.774  13.073  70.703  1.00  0.00    -0.165 C  
HETATM    2  O   UNL     1      -5.222  11.762  70.738  1.00  0.00    -0.113 OA 
ENDROOT
BRANCH   2   3
HETATM    3  C   UNL     1      -6.005  10.739  70.270  1.00  0.00    -0.119 A  
HETATM    4  C   UNL     1      -6.504   9.723  71.095  1.00  0.00     0.041 A  
HETATM    5  C   UNL     1      -7.252   8.664  70.608  1.00  0.00    -0.058 A  
HETATM    6  C   UNL     1      -7.572   8.627  69.241  1.00  0.00    -0.094 A  
HETATM    7  C   UNL     1      -7.121   9.674  68.407  1.00  0.00    -0.070 A  
HETATM    8  C   UNL     1      -8.312   7.512  68.791  1.00  0.00    -0.129 A  
HETATM    9  C   UNL     1      -8.700   6.518  69.685  1.00  0.00    -0.139 A  
HETATM   10  C   UNL     1      -6.304  10.698  68.902  1.00  0.00    -0.045 A  
HETATM   11  N   UNL     1      -7.619   7.705  71.473  1.00  0.00    -0.079 NA 
HETATM   12  C   UNL     1      -8.320   6.655  71.002  1.00  0.00    -0.125 A  
BRANCH   8  13
HETATM   13  O   UNL     1      -8.689   7.506  67.464  1.00  0.00    -0.124 OA 
BRANCH  13  14
HETATM   14  C   UNL     1      -9.330   8.590  66.915  1.00  0.00    -0.172 A  
HETATM   15  C   UNL     1     -10.217   9.249  67.763  1.00  0.00    -0.271 A  
HETATM   16  C   UNL     1     -10.867  10.410  67.339  1.00  0.00    -0.344 A  
HETATM   17  C   UNL     1     -10.638  10.928  66.064  1.00  0.00    -0.189 A  
HETATM   18  C   UNL     1      -9.089   9.103  65.644  1.00  0.00    -0.273 A  
HETATM   19  C   UNL     1      -9.761  10.253  65.208  1.00  0.00    -0.354 A  
BRANCH  17  20
HETATM   20  N   UNL     1     -11.244  12.112  65.591  1.00  0.00    -0.324 N  
HETATM   21  H   UNL     1     -12.182  12.029  65.199  1.00  0.00     0.000 HD 
HETATM   22  C   UNL     1     -10.684  13.371  65.611  1.00  0.00    -0.277 C  
HETATM   23  O   UNL     1      -9.562  13.687  65.973  1.00  0.00    -0.253 OA 
BRANCH  22  24
HETATM   24  C   UNL     1     -11.587  14.463  65.135  1.00  0.00    -0.361 C  
HETATM   25  C   UNL     1     -12.517  14.115  63.975  1.00  0.00    -0.206 C  
HETATM   26  C   UNL     1     -13.097  14.343  65.334  1.00  0.00     0.012 C  
BRANCH  24  27
HETATM   27  C   UNL     1     -10.976  15.822  65.224  1.00  0.00    -0.344 C  
HETATM   28  O   UNL     1     -10.951  16.523  64.220  1.00  0.00    -0.848 OA 
HETATM   29  N   UNL     1     -10.489  16.153  66.473  1.00  0.00    -0.303 N  
HETATM   30  H   UNL     1     -10.511  15.443  67.206  1.00  0.00     0.000 HD 
BRANCH  29  31
HETATM   31  C   UNL     1      -9.964  17.419  66.785  1.00  0.00    -0.307 A  
HETATM   32  C   UNL     1     -10.779  18.556  66.852  1.00  0.00    -0.332 A  
HETATM   33  C   UNL     1     -10.219  19.810  67.093  1.00  0.00    -0.574 A  
HETATM   34  C   UNL     1      -8.843  19.923  67.241  1.00  0.00    -0.334 A  
HETATM   35  C   UNL     1      -8.026  18.797  67.210  1.00  0.00    -0.251 A  
HETATM   36  F   UNL     1      -8.295  21.133  67.409  1.00  0.00    -0.352 F  
HETATM   37  C   UNL     1      -8.592  17.535  67.019  1.00  0.00    -0.251 A  
ENDBRANCH  29  31
ENDBRANCH  24  27
ENDBRANCH  22  24
ENDBRANCH  17  20
ENDBRANCH  13  14
ENDBRANCH   8  13
BRANCH  10  38
HETATM   38  O   UNL     1      -5.912  11.606  67.952  1.00  0.00    -0.043 OA 
HETATM   39  C   UNL     1      -6.873  11.899  66.942  1.00  0.00    -0.075 C  
ENDBRANCH  10  38
ENDBRANCH   2   3
TORSDOF 8
ENDMDL
MODEL       73
REMARK 921   NORMALIZED FREE ENERGY PREDICTED BY IDOCK:   -4.83 KCAL/MOL
REMARK 922        TOTAL FREE ENERGY PREDICTED BY IDOCK:   -8.56 KCAL/MOL
REMARK 923 INTER-LIGAND FREE ENERGY PREDICTED BY IDOCK:   -7.57 KCAL/MOL
REMARK 924 INTRA-LIGAND FREE ENERGY PREDICTED BY IDOCK:   -1.00 KCAL/MOL
REMARK 927      BINDING AFFINITY PREDICTED BY RF-SCORE:    0.00 PKD
ROOT
HETATM    1  C   UNL     1     -10.044  20.090  66.735  1.00  0.00    -0.476 C  
HETATM    2  O   UNL     1     -10.220  19.042  65.788  1.00  0.00    -0.517 OA 
ENDROOT
BRANCH   2   3
HETATM    3  C   UNL     1      -9.916  17.770  66.196  1.00  0.00    -0.276 A  
HETATM    4  C   UNL     1      -9.066  17.499  67.276  1.00  0.00    -0.240 A  
HETATM    5  C   UNL     1      -8.721  16.211  67.651  1.00  0.00    -0.177 A  
HETATM    6  C   UNL     1      -9.284  15.125  66.960  1.00  0.00    -0.239 A  
HETATM    7  C   UNL     1     -10.185  15.384  65.903  1.00  0.00    -0.365 A  
HETATM    8  C   UNL     1      -8.877  13.835  67.363  1.00  0.00    -0.210 A  
HETATM    9  C   UNL     1      -7.969  13.677  68.406  1.00  0.00    -0.147 A  
HETATM   10  C   UNL     1     -10.465  16.692  65.489  1.00  0.00    -0.267 A  
HETATM   11  N   UNL     1      -7.841  16.064  68.653  1.00  0.00    -0.167 NA 
HETATM   12  C   UNL     1      -7.475  14.816  69.005  1.00  0.00    -0.142 A  
BRANCH   8  13
HETATM   13  O   UNL     1      -9.479  12.765  66.735  1.00  0.00    -0.230 OA 
BRANCH  13  14
HETATM   14  C   UNL     1      -9.142  11.477  67.071  1.00  0.00    -0.175 A  
HETATM   15  C   UNL     1     -10.029  10.835  67.933  1.00  0.00    -0.196 A  
HETATM   16  C   UNL     1      -9.832   9.498  68.282  1.00  0.00    -0.174 A  
HETATM   17  C   UNL     1      -8.746   8.784  67.772  1.00  0.00    -0.136 A  
HETATM   18  C   UNL     1      -8.062  10.770  66.551  1.00  0.00    -0.146 A  
HETATM   19  C   UNL     1      -7.848   9.436  66.921  1.00  0.00    -0.105 A  
BRANCH  17  20
HETATM   20  N   UNL     1      -8.511   7.422  68.067  1.00  0.00    -0.123 N  
HETATM   21  H   UNL     1      -9.254   6.763  67.836  1.00  0.00     0.000 HD 
HETATM   22  C   UNL     1      -7.369   6.904  68.638  1.00  0.00    -0.094 C  
HETATM   23  O   UNL     1      -6.393   7.511  69.047  1.00  0.00    -0.037 OA 
BRANCH  22  24
HETATM   24  C   UNL     1      -7.350   5.413  68.748  1.00  0.00    -0.074 C  
HETATM   25  C   UNL     1      -7.637   4.635  67.467  1.00  0.00    -0.078 C  
HETATM   26  C   UNL     1      -6.258   4.612  68.043  1.00  0.00    -0.036 C  
BRANCH  24  27
HETATM   27  C   UNL     1      -7.851   4.907  70.060  1.00  0.00    -0.066 C  
HETATM   28  O   UNL     1      -7.245   5.211  71.080  1.00  0.00    -0.063 OA 
HETATM   29  N   UNL     1      -8.985   4.122  69.979  1.00  0.00    -0.089 N  
HETATM   30  H   UNL     1      -9.347   3.887  69.054  1.00  0.00     0.000 HD 
BRANCH  29  31
HETATM   31  C   UNL     1      -9.664   3.630  71.107  1.00  0.00    -0.175 A  
HETATM   32  C   UNL     1     -10.260   4.490  72.039  1.00  0.00    -0.251 A  
HETATM   33  C   UNL     1     -10.865   3.975  73.185  1.00  0.00    -0.274 A  
HETATM   34  C   UNL     1     -10.848   2.604  73.404  1.00  0.00    -0.191 A  
HETATM   35  C   UNL     1     -10.289   1.737  72.471  1.00  0.00    -0.226 A  
HETATM   36  F   UNL     1     -11.372   2.111  74.534  1.00  0.00    -0.108 F  
HETATM   37  C   UNL     1      -9.728   2.248  71.298  1.00  0.00    -0.201 A  
ENDBRANCH  29  31
ENDBRANCH  24  27
ENDBRANCH  22  24
ENDBRANCH  17  20
ENDBRANCH  13  14
ENDBRANCH   8  13
BRANCH  10  38
HETATM   38  O   UNL     1     -11.320  16.766  64.420  1.00  0.00    -1.089 OA 
HETATM   39  C   UNL     1     -12.267  15.708  64.309  1.00  0.00    -0.002 C  
ENDBRANCH  10  38
ENDBRANCH   2   3
TORSDOF 8
ENDMDL
MODEL       74
REMARK 921   NORMALIZED FREE ENERGY PREDICTED BY IDOCK:   -4.81 KCAL/MOL
REMARK 922        TOTAL FREE ENERGY PREDICTED BY IDOCK:   -8.53 KCAL/MOL
REMARK 923 INTER-LIGAND FREE ENERGY PREDICTED BY IDOCK:   -7.58 KCAL/MOL
REMARK 924 INTRA-LIGAND FREE ENERGY PREDICTED BY IDOCK:   -0.95 KCAL/MOL
REMARK 927      BINDING AFFINITY PREDICTED BY RF-SCORE:    0.00 PKD
ROOT
HETATM    1  C   UNL     1      -5.174   3.398  71.099  1.00  0.00    -0.004 C  
HETATM    2  O   UNL     1      -5.516   3.811  72.418  1.00  0.00     0.000 OA 
ENDROOT
BRANCH   2   3
HETATM    3  C   UNL     1      -6.804   4.227  72.631  1.00  0.00    -0.055 A  
HETATM    4  C   UNL     1      -7.842   3.350  72.970  1.00  0.00    -0.065 A  
HETATM    5  C   UNL     1      -9.152   3.769  73.133  1.00  0.00    -0.102 A  
HETATM    6  C   UNL     1      -9.451   5.135  73.007  1.00  0.00    -0.155 A  
HETATM    7  C   UNL     1      -8.404   6.038  72.718  1.00  0.00    -0.118 A  
HETATM    8  C   UNL     1     -10.806   5.506  73.154  1.00  0.00    -0.285 A  
HETATM    9  C   UNL     1     -11.774   4.542  73.422  1.00  0.00    -0.138 A  
HETATM   10  C   UNL     1      -7.099   5.588  72.483  1.00  0.00    -0.084 A  
HETATM   11  N   UNL     1     -10.083   2.835  73.386  1.00  0.00    -0.106 NA 
HETATM   12  C   UNL     1     -11.364   3.229  73.515  1.00  0.00    -0.125 A  
BRANCH   8  13
HETATM   13  O   UNL     1     -11.094   6.853  73.100  1.00  0.00    -0.268 OA 
BRANCH  13  14
HETATM   14  C   UNL     1     -10.882   7.569  71.947  1.00  0.00    -0.227 A  
HETATM   15  C   UNL     1     -10.969   6.834  70.767  1.00  0.00    -0.306 A  
HETATM   16  C   UNL     1     -10.849   7.469  69.530  1.00  0.00    -0.184 A  
HETATM   17  C   UNL     1     -10.642   8.848  69.456  1.00  0.00    -0.228 A  
HETATM   18  C   UNL     1     -10.684   8.945  71.884  1.00  0.00    -0.426 A  
HETATM   19  C   UNL     1     -10.537   9.580  70.643  1.00  0.00    -0.374 A  
BRANCH  17  20
HETATM   20  N   UNL     1     -10.542   9.549  68.234  1.00  0.00    -0.261 N  
HETATM   21  H   UNL     1     -11.407   9.917  67.837  1.00  0.00     0.000 HD 
HETATM   22  C   UNL     1      -9.381   9.782  67.528  1.00  0.00    -0.133 C  
HETATM   23  O   UNL     1      -8.256   9.384  67.782  1.00  0.00    -0.113 OA 
BRANCH  22  24
HETATM   24  C   UNL     1      -9.552  10.636  66.313  1.00  0.00    -0.228 C  
HETATM   25  C   UNL     1      -8.517  10.455  65.206  1.00  0.00    -0.173 C  
HETATM   26  C   UNL     1      -9.920   9.995  64.977  1.00  0.00    -0.320 C  
BRANCH  24  27
HETATM   27  C   UNL     1     -10.099  11.993  66.612  1.00  0.00    -0.198 C  
HETATM   28  O   UNL     1     -11.141  12.080  67.249  1.00  0.00    -0.252 OA 
HETATM   29  N   UNL     1      -9.343  13.039  66.120  1.00  0.00    -0.453 N  
HETATM   30  H   UNL     1      -8.531  12.821  65.541  1.00  0.00     0.000 HD 
BRANCH  29  31
HETATM   31  C   UNL     1      -9.637  14.389  66.376  1.00  0.00    -0.299 A  
HETATM   32  C   UNL     1      -9.329  14.988  67.604  1.00  0.00    -0.194 A  
HETATM   33  C   UNL     1      -9.697  16.310  67.854  1.00  0.00    -0.233 A  
HETATM   34  C   UNL     1     -10.395  17.016  66.884  1.00  0.00    -0.303 A  
HETATM   35  C   UNL     1     -10.678  16.444  65.648  1.00  0.00    -0.280 A  
HETATM   36  F   UNL     1     -10.806  18.264  67.144  1.00  0.00    -0.402 F  
HETATM   37  C   UNL     1     -10.265  15.138  65.377  1.00  0.00    -0.402 A  
ENDBRANCH  29  31
ENDBRANCH  24  27
ENDBRANCH  22  24
ENDBRANCH  17  20
ENDBRANCH  13  14
ENDBRANCH   8  13
BRANCH  10  38
HETATM   38  O   UNL     1      -6.215   6.587  72.167  1.00  0.00    -0.041 OA 
HETATM   39  C   UNL     1      -6.768   7.715  71.497  1.00  0.00    -0.045 C  
ENDBRANCH  10  38
ENDBRANCH   2   3
TORSDOF 8
ENDMDL
MODEL       75
REMARK 921   NORMALIZED FREE ENERGY PREDICTED BY IDOCK:   -4.76 KCAL/MOL
REMARK 922        TOTAL FREE ENERGY PREDICTED BY IDOCK:   -8.45 KCAL/MOL
REMARK 923 INTER-LIGAND FREE ENERGY PREDICTED BY IDOCK:   -6.93 KCAL/MOL
REMARK 924 INTRA-LIGAND FREE ENERGY PREDICTED BY IDOCK:   -1.52 KCAL/MOL
REMARK 927      BINDING AFFINITY PREDICTED BY RF-SCORE:    0.00 PKD
ROOT
HETATM    1  C   UNL     1     -10.054   3.519  72.398  1.00  0.00    -0.162 C  
HETATM    2  O   UNL     1     -10.356   4.859  72.026  1.00  0.00    -0.198 OA 
ENDROOT
BRANCH   2   3
HETATM    3  C   UNL     1      -9.807   5.325  70.860  1.00  0.00    -0.194 A  
HETATM    4  C   UNL     1     -10.191   4.858  69.597  1.00  0.00    -0.265 A  
HETATM    5  C   UNL     1      -9.596   5.295  68.425  1.00  0.00    -0.134 A  
HETATM    6  C   UNL     1      -8.603   6.287  68.494  1.00  0.00    -0.114 A  
HETATM    7  C   UNL     1      -8.245   6.806  69.757  1.00  0.00    -0.127 A  
HETATM    8  C   UNL     1      -8.009   6.677  67.274  1.00  0.00    -0.117 A  
HETATM    9  C   UNL     1      -8.416   6.096  66.075  1.00  0.00    -0.141 A  
HETATM   10  C   UNL     1      -8.803   6.300  70.937  1.00  0.00    -0.136 A  
HETATM   11  N   UNL     1      -9.988   4.729  67.273  1.00  0.00    -0.186 NA 
HETATM   12  C   UNL     1      -9.393   5.125  66.132  1.00  0.00    -0.155 A  
BRANCH   8  13
HETATM   13  O   UNL     1      -7.084   7.698  67.327  1.00  0.00    -0.080 OA 
BRANCH  13  14
HETATM   14  C   UNL     1      -7.492   9.009  67.360  1.00  0.00    -0.085 A  
HETATM   15  C   UNL     1      -8.491   9.345  66.449  1.00  0.00    -0.131 A  
HETATM   16  C   UNL     1      -9.040  10.628  66.443  1.00  0.00    -0.183 A  
HETATM   17  C   UNL     1      -8.599  11.594  67.349  1.00  0.00    -0.149 A  
HETATM   18  C   UNL     1      -7.051   9.963  68.273  1.00  0.00    -0.076 A  
HETATM   19  C   UNL     1      -7.583  11.259  68.251  1.00  0.00    -0.114 A  
BRANCH  17  20
HETATM   20  N   UNL     1      -9.135  12.899  67.410  1.00  0.00    -0.188 N  
HETATM   21  H   UNL     1      -8.750  13.589  66.765  1.00  0.00     0.000 HD 
HETATM   22  C   UNL     1     -10.133  13.324  68.260  1.00  0.00    -0.250 C  
HETATM   23  O   UNL     1     -10.686  12.691  69.144  1.00  0.00    -0.149 OA 
BRANCH  22  24
HETATM   24  C   UNL     1     -10.577  14.735  68.043  1.00  0.00    -0.244 C  
HETATM   25  C   UNL     1     -11.704  14.943  67.035  1.00  0.00    -0.274 C  
HETATM   26  C   UNL     1     -11.971  15.172  68.488  1.00  0.00    -0.243 C  
BRANCH  24  27
HETATM   27  C   UNL     1      -9.468  15.730  68.142  1.00  0.00    -0.199 C  
HETATM   28  O   UNL     1      -8.525  15.488  68.885  1.00  0.00    -0.174 OA 
HETATM   29  N   UNL     1      -9.632  16.855  67.358  1.00  0.00    -0.239 N  
HETATM   30  H   UNL     1     -10.505  16.961  66.839  1.00  0.00     0.000 HD 
BRANCH  29  31
HETATM   31  C   UNL     1      -8.657  17.860  67.239  1.00  0.00    -0.237 A  
HETATM   32  C   UNL     1      -8.565  18.907  68.165  1.00  0.00    -0.349 A  
HETATM   33  C   UNL     1      -7.633  19.928  67.981  1.00  0.00    -0.332 A  
HETATM   34  C   UNL     1      -6.818  19.910  66.858  1.00  0.00    -0.212 A  
HETATM   35  C   UNL     1      -6.877  18.860  65.948  1.00  0.00    -0.304 A  
HETATM   36  F   UNL     1      -5.966  20.922  66.645  1.00  0.00    -0.212 F  
HETATM   37  C   UNL     1      -7.774  17.810  66.158  1.00  0.00    -0.280 A  
ENDBRANCH  29  31
ENDBRANCH  24  27
ENDBRANCH  22  24
ENDBRANCH  17  20
ENDBRANCH  13  14
ENDBRANCH   8  13
BRANCH  10  38
HETATM   38  O   UNL     1      -8.311   6.878  72.079  1.00  0.00    -0.110 OA 
HETATM   39  C   UNL     1      -8.754   8.205  72.342  1.00  0.00    -0.189 C  
ENDBRANCH  10  38
ENDBRANCH   2   3
TORSDOF 8
ENDMDL
MODEL       76
REMARK 921   NORMALIZED FREE ENERGY PREDICTED BY IDOCK:   -4.75 KCAL/MOL
REMARK 922        TOTAL FREE ENERGY PREDICTED BY IDOCK:   -8.44 KCAL/MOL
REMARK 923 INTER-LIGAND FREE ENERGY PREDICTED BY IDOCK:   -7.19 KCAL/MOL
REMARK 924 INTRA-LIGAND FREE ENERGY PREDICTED BY IDOCK:   -1.25 KCAL/MOL
REMARK 927      BINDING AFFINITY PREDICTED BY RF-SCORE:    0.00 PKD
ROOT
HETATM    1  C   UNL     1      -6.747   1.579  67.633  1.00  0.00    -0.032 C  
HETATM    2  O   UNL     1      -6.743   2.804  66.909  1.00  0.00    -0.039 OA 
ENDROOT
BRANCH   2   3
HETATM    3  C   UNL     1      -7.702   3.727  67.235  1.00  0.00    -0.079 A  
HETATM    4  C   UNL     1      -8.320   3.773  68.491  1.00  0.00    -0.092 A  
HETATM    5  C   UNL     1      -9.326   4.676  68.797  1.00  0.00    -0.140 A  
HETATM    6  C   UNL     1      -9.710   5.622  67.832  1.00  0.00    -0.145 A  
HETATM    7  C   UNL     1      -9.056   5.622  66.580  1.00  0.00    -0.140 A  
HETATM    8  C   UNL     1     -10.758   6.500  68.184  1.00  0.00    -0.282 A  
HETATM    9  C   UNL     1     -11.355   6.415  69.439  1.00  0.00    -0.443 A  
HETATM   10  C   UNL     1      -8.094   4.655  66.261  1.00  0.00    -0.103 A  
HETATM   11  N   UNL     1      -9.903   4.586  70.005  1.00  0.00    -0.217 NA 
HETATM   12  C   UNL     1     -10.902   5.439  70.300  1.00  0.00    -0.144 A  
BRANCH   8  13
HETATM   13  O   UNL     1     -11.090   7.475  67.267  1.00  0.00    -0.194 OA 
BRANCH  13  14
HETATM   14  C   UNL     1     -10.531   8.727  67.344  1.00  0.00    -0.279 A  
HETATM   15  C   UNL     1     -10.181   9.144  68.626  1.00  0.00    -0.225 A  
HETATM   16  C   UNL     1      -9.533  10.366  68.819  1.00  0.00    -0.175 A  
HETATM   17  C   UNL     1      -9.225  11.186  67.732  1.00  0.00    -0.153 A  
HETATM   18  C   UNL     1     -10.221   9.534  66.253  1.00  0.00    -0.290 A  
HETATM   19  C   UNL     1      -9.594  10.772  66.448  1.00  0.00    -0.226 A  
BRANCH  17  20
HETATM   20  N   UNL     1      -8.547  12.418  67.862  1.00  0.00    -0.161 N  
HETATM   21  H   UNL     1      -9.072  13.198  68.256  1.00  0.00     0.000 HD 
HETATM   22  C   UNL     1      -7.238  12.662  67.504  1.00  0.00    -0.155 C  
HETATM   23  O   UNL     1      -6.454  11.900  66.962  1.00  0.00    -0.145 OA 
BRANCH  22  24
HETATM   24  C   UNL     1      -6.746  14.032  67.842  1.00  0.00    -0.171 C  
HETATM   25  C   UNL     1      -6.070  14.193  69.201  1.00  0.00    -0.097 C  
HETATM   26  C   UNL     1      -5.246  14.295  67.957  1.00  0.00    -0.103 C  
BRANCH  24  27
HETATM   27  C   UNL     1      -7.607  15.125  67.299  1.00  0.00    -0.203 C  
HETATM   28  O   UNL     1      -8.456  14.844  66.463  1.00  0.00    -0.188 OA 
HETATM   29  N   UNL     1      -7.342  16.377  67.818  1.00  0.00    -0.131 N  
HETATM   30  H   UNL     1      -6.554  16.480  68.458  1.00  0.00     0.000 HD 
BRANCH  29  31
HETATM   31  C   UNL     1      -8.104  17.517  67.507  1.00  0.00    -0.205 A  
HETATM   32  C   UNL     1      -7.828  18.299  66.379  1.00  0.00    -0.290 A  
HETATM   33  C   UNL     1      -8.556  19.464  66.136  1.00  0.00    -0.297 A  
HETATM   34  C   UNL     1      -9.539  19.852  67.037  1.00  0.00    -0.388 A  
HETATM   35  C   UNL     1      -9.845  19.066  68.143  1.00  0.00    -0.430 A  
HETATM   36  F   UNL     1     -10.196  21.002  66.840  1.00  0.00    -0.430 F  
HETATM   37  C   UNL     1      -9.151  17.873  68.360  1.00  0.00    -0.292 A  
ENDBRANCH  29  31
ENDBRANCH  24  27
ENDBRANCH  22  24
ENDBRANCH  17  20
ENDBRANCH  13  14
ENDBRANCH   8  13
BRANCH  10  38
HETATM   38  O   UNL     1      -7.594   4.766  64.989  1.00  0.00    -0.075 OA 
HETATM   39  C   UNL     1      -6.383   5.502  64.861  1.00  0.00    -0.037 C  
ENDBRANCH  10  38
ENDBRANCH   2   3
TORSDOF 8
ENDMDL
MODEL       77
REMARK 921   NORMALIZED FREE ENERGY PREDICTED BY IDOCK:   -4.69 KCAL/MOL
REMARK 922        TOTAL FREE ENERGY PREDICTED BY IDOCK:   -8.36 KCAL/MOL
REMARK 923 INTER-LIGAND FREE ENERGY PREDICTED BY IDOCK:   -6.92 KCAL/MOL
REMARK 924 INTRA-LIGAND FREE ENERGY PREDICTED BY IDOCK:   -1.44 KCAL/MOL
REMARK 927      BINDING AFFINITY PREDICTED BY RF-SCORE:    0.00 PKD
ROOT
HETATM    1  C   UNL     1     -12.238   7.634  72.247  1.00  0.00    -0.221 C  
HETATM    2  O   UNL     1     -11.234   6.787  72.796  1.00  0.00    -0.262 OA 
ENDROOT
BRANCH   2   3
HETATM    3  C   UNL     1     -10.350   6.214  71.920  1.00  0.00    -0.208 A  
HETATM    4  C   UNL     1     -10.489   4.903  71.446  1.00  0.00    -0.170 A  
HETATM    5  C   UNL     1      -9.563   4.312  70.602  1.00  0.00    -0.190 A  
HETATM    6  C   UNL     1      -8.466   5.067  70.156  1.00  0.00    -0.097 A  
HETATM    7  C   UNL     1      -8.344   6.408  70.584  1.00  0.00    -0.133 A  
HETATM    8  C   UNL     1      -7.538   4.409  69.321  1.00  0.00    -0.055 A  
HETATM    9  C   UNL     1      -7.733   3.077  68.964  1.00  0.00    -0.048 A  
HETATM   10  C   UNL     1      -9.247   6.967  71.496  1.00  0.00    -0.151 A  
HETATM   11  N   UNL     1      -9.753   3.026  70.266  1.00  0.00    -0.085 NA 
HETATM   12  C   UNL     1      -8.842   2.433  69.471  1.00  0.00    -0.091 A  
BRANCH   8  13
HETATM   13  O   UNL     1      -6.498   5.166  68.824  1.00  0.00    -0.034 OA 
BRANCH  13  14
HETATM   14  C   UNL     1      -6.731   6.151  67.896  1.00  0.00    -0.064 A  
HETATM   15  C   UNL     1      -7.564   5.789  66.840  1.00  0.00    -0.099 A  
HETATM   16  C   UNL     1      -7.935   6.730  65.878  1.00  0.00    -0.112 A  
HETATM   17  C   UNL     1      -7.479   8.047  65.960  1.00  0.00    -0.077 A  
HETATM   18  C   UNL     1      -6.279   7.464  67.991  1.00  0.00    -0.043 A  
HETATM   19  C   UNL     1      -6.629   8.403  67.012  1.00  0.00    -0.058 A  
BRANCH  17  20
HETATM   20  N   UNL     1      -7.844   9.049  65.034  1.00  0.00    -0.109 N  
HETATM   21  H   UNL     1      -7.127   9.356  64.376  1.00  0.00     0.000 HD 
HETATM   22  C   UNL     1      -9.080   9.651  64.937  1.00  0.00    -0.232 C  
HETATM   23  O   UNL     1     -10.053   9.484  65.654  1.00  0.00    -0.285 OA 
BRANCH  22  24
HETATM   24  C   UNL     1      -9.217  10.612  63.801  1.00  0.00    -0.280 C  
HETATM   25  C   UNL     1      -8.111  10.581  62.750  1.00  0.00    -0.159 C  
HETATM   26  C   UNL     1      -9.476  10.090  62.389  1.00  0.00    -0.224 C  
BRANCH  24  27
HETATM   27  C   UNL     1      -9.844  11.909  64.192  1.00  0.00    -0.207 C  
HETATM   28  O   UNL     1     -10.592  12.465  63.397  1.00  0.00    -0.436 OA 
HETATM   29  N   UNL     1      -9.498  12.359  65.451  1.00  0.00    -0.448 N  
HETATM   30  H   UNL     1      -8.804  11.831  65.981  1.00  0.00     0.000 HD 
BRANCH  29  31
HETATM   31  C   UNL     1     -10.055  13.508  66.039  1.00  0.00    -0.310 A  
HETATM   32  C   UNL     1      -9.474  14.772  65.874  1.00  0.00    -0.266 A  
HETATM   33  C   UNL     1     -10.009  15.882  66.528  1.00  0.00    -0.286 A  
HETATM   34  C   UNL     1     -11.105  15.716  67.363  1.00  0.00    -0.260 A  
HETATM   35  C   UNL     1     -11.711  14.473  67.509  1.00  0.00    -0.413 A  
HETATM   36  F   UNL     1     -11.582  16.768  68.041  1.00  0.00    -0.216 F  
HETATM   37  C   UNL     1     -11.208  13.370  66.815  1.00  0.00    -0.332 A  
ENDBRANCH  29  31
ENDBRANCH  24  27
ENDBRANCH  22  24
ENDBRANCH  17  20
ENDBRANCH  13  14
ENDBRANCH   8  13
BRANCH  10  38
HETATM   38  O   UNL     1      -8.957   8.260  71.845  1.00  0.00    -0.149 OA 
HETATM   39  C   UNL     1      -7.641   8.706  71.534  1.00  0.00    -0.106 C  
ENDBRANCH  10  38
ENDBRANCH   2   3
TORSDOF 8
ENDMDL
MODEL       78
REMARK 921   NORMALIZED FREE ENERGY PREDICTED BY IDOCK:   -4.68 KCAL/MOL
REMARK 922        TOTAL FREE ENERGY PREDICTED BY IDOCK:   -8.34 KCAL/MOL
REMARK 923 INTER-LIGAND FREE ENERGY PREDICTED BY IDOCK:   -6.87 KCAL/MOL
REMARK 924 INTRA-LIGAND FREE ENERGY PREDICTED BY IDOCK:   -1.48 KCAL/MOL
REMARK 927      BINDING AFFINITY PREDICTED BY RF-SCORE:    0.00 PKD
ROOT
HETATM    1  C   UNL     1      -9.264   2.199  69.384  1.00  0.00    -0.118 C  
HETATM    2  O   UNL     1      -7.853   2.338  69.252  1.00  0.00    -0.043 OA 
ENDROOT
BRANCH   2   3
HETATM    3  C   UNL     1      -7.397   3.210  68.298  1.00  0.00    -0.050 A  
HETATM    4  C   UNL     1      -7.151   2.831  66.973  1.00  0.00    -0.053 A  
HETATM    5  C   UNL     1      -6.640   3.705  66.027  1.00  0.00    -0.041 A  
HETATM    6  C   UNL     1      -6.406   5.041  66.390  1.00  0.00    -0.036 A  
HETATM    7  C   UNL     1      -6.701   5.451  67.709  1.00  0.00    -0.055 A  
HETATM    8  C   UNL     1      -5.858   5.883  65.398  1.00  0.00    -0.024 A  
HETATM    9  C   UNL     1      -5.584   5.386  64.126  1.00  0.00    -0.017 A  
HETATM   10  C   UNL     1      -7.146   4.537  68.673  1.00  0.00    -0.052 A  
HETATM   11  N   UNL     1      -6.372   3.219  64.805  1.00  0.00    -0.023 NA 
HETATM   12  C   UNL     1      -5.845   4.054  63.888  1.00  0.00    -0.014 A  
BRANCH   8  13
HETATM   13  O   UNL     1      -5.692   7.211  65.727  1.00  0.00    -0.030 OA 
BRANCH  13  14
HETATM   14  C   UNL     1      -6.686   8.124  65.472  1.00  0.00    -0.052 A  
HETATM   15  C   UNL     1      -6.557   9.344  66.132  1.00  0.00    -0.070 A  
HETATM   16  C   UNL     1      -7.465  10.377  65.891  1.00  0.00    -0.139 A  
HETATM   17  C   UNL     1      -8.512  10.205  64.985  1.00  0.00    -0.163 A  
HETATM   18  C   UNL     1      -7.723   7.946  64.561  1.00  0.00    -0.125 A  
HETATM   19  C   UNL     1      -8.649   8.973  64.338  1.00  0.00    -0.174 A  
BRANCH  17  20
HETATM   20  N   UNL     1      -9.443  11.222  64.679  1.00  0.00    -0.313 N  
HETATM   21  H   UNL     1      -9.336  11.695  63.781  1.00  0.00     0.000 HD 
HETATM   22  C   UNL     1     -10.483  11.635  65.483  1.00  0.00    -0.273 C  
HETATM   23  O   UNL     1     -10.756  11.256  66.611  1.00  0.00    -0.252 OA 
BRANCH  22  24
HETATM   24  C   UNL     1     -11.374  12.666  64.869  1.00  0.00    -0.347 C  
HETATM   25  C   UNL     1     -11.330  12.779  63.347  1.00  0.00    -0.395 C  
HETATM   26  C   UNL     1     -12.557  12.233  64.005  1.00  0.00    -0.521 C  
BRANCH  24  27
HETATM   27  C   UNL     1     -11.533  13.892  65.707  1.00  0.00    -0.321 C  
HETATM   28  O   UNL     1     -12.662  14.257  66.008  1.00  0.00    -0.430 OA 
HETATM   29  N   UNL     1     -10.346  14.502  66.062  1.00  0.00    -0.296 N  
HETATM   30  H   UNL     1      -9.476  14.131  65.680  1.00  0.00     0.000 HD 
BRANCH  29  31
HETATM   31  C   UNL     1     -10.278  15.610  66.925  1.00  0.00    -0.281 A  
HETATM   32  C   UNL     1     -10.625  15.509  68.279  1.00  0.00    -0.255 A  
HETATM   33  C   UNL     1     -10.616  16.641  69.093  1.00  0.00    -0.340 A  
HETATM   34  C   UNL     1     -10.285  17.872  68.543  1.00  0.00    -0.390 A  
HETATM   35  C   UNL     1      -9.906  17.980  67.209  1.00  0.00    -0.306 A  
HETATM   36  F   UNL     1     -10.336  18.971  69.306  1.00  0.00    -0.369 F  
HETATM   37  C   UNL     1      -9.866  16.839  66.404  1.00  0.00    -0.312 A  
ENDBRANCH  29  31
ENDBRANCH  24  27
ENDBRANCH  22  24
ENDBRANCH  17  20
ENDBRANCH  13  14
ENDBRANCH   8  13
BRANCH  10  38
HETATM   38  O   UNL     1      -7.337   5.087  69.914  1.00  0.00    -0.057 OA 
HETATM   39  C   UNL     1      -8.465   5.946  70.045  1.00  0.00    -0.126 C  
ENDBRANCH  10  38
ENDBRANCH   2   3
TORSDOF 8
ENDMDL
MODEL       79
REMARK 921   NORMALIZED FREE ENERGY PREDICTED BY IDOCK:   -4.58 KCAL/MOL
REMARK 922        TOTAL FREE ENERGY PREDICTED BY IDOCK:   -8.19 KCAL/MOL
REMARK 923 INTER-LIGAND FREE ENERGY PREDICTED BY IDOCK:   -6.99 KCAL/MOL
REMARK 924 INTRA-LIGAND FREE ENERGY PREDICTED BY IDOCK:   -1.20 KCAL/MOL
REMARK 927      BINDING AFFINITY PREDICTED BY RF-SCORE:    0.00 PKD
ROOT
HETATM    1  C   UNL     1     -11.295  16.566  64.104  1.00  0.00     0.466 C  
HETATM    2  O   UNL     1     -10.436  16.282  65.202  1.00  0.00    -0.591 OA 
ENDROOT
BRANCH   2   3
HETATM    3  C   UNL     1     -10.874  15.365  66.120  1.00  0.00    -0.313 A  
HETATM    4  C   UNL     1     -11.132  15.689  67.458  1.00  0.00    -0.289 A  
HETATM    5  C   UNL     1     -11.525  14.747  68.394  1.00  0.00    -0.314 A  
HETATM    6  C   UNL     1     -11.728  13.420  67.981  1.00  0.00    -0.391 A  
HETATM    7  C   UNL     1     -11.525  13.090  66.623  1.00  0.00    -0.382 A  
HETATM    8  C   UNL     1     -12.101  12.493  68.979  1.00  0.00    -0.135 A  
HETATM    9  C   UNL     1     -12.262  12.907  70.299  1.00  0.00    -0.362 A  
HETATM   10  C   UNL     1     -11.055  14.039  65.706  1.00  0.00    -0.305 A  
HETATM   11  N   UNL     1     -11.674  15.149  69.666  1.00  0.00    -0.306 NA 
HETATM   12  C   UNL     1     -12.026  14.234  70.588  1.00  0.00    -0.322 A  
BRANCH   8  13
HETATM   13  O   UNL     1     -12.369  11.205  68.567  1.00  0.00    -0.561 OA 
BRANCH  13  14
HETATM   14  C   UNL     1     -11.516  10.177  68.886  1.00  0.00    -0.064 A  
HETATM   15  C   UNL     1     -10.804   9.641  67.815  1.00  0.00    -0.278 A  
HETATM   16  C   UNL     1      -9.850   8.645  68.030  1.00  0.00    -0.201 A  
HETATM   17  C   UNL     1      -9.594   8.172  69.318  1.00  0.00    -0.164 A  
HETATM   18  C   UNL     1     -11.262   9.717  70.175  1.00  0.00    -0.324 A  
HETATM   19  C   UNL     1     -10.324   8.699  70.388  1.00  0.00    -0.225 A  
BRANCH  17  20
HETATM   20  N   UNL     1      -8.621   7.187  69.599  1.00  0.00    -0.137 N  
HETATM   21  H   UNL     1      -8.932   6.362  70.113  1.00  0.00     0.000 HD 
HETATM   22  C   UNL     1      -7.291   7.239  69.243  1.00  0.00    -0.087 C  
HETATM   23  O   UNL     1      -6.698   8.149  68.687  1.00  0.00    -0.056 OA 
BRANCH  22  24
HETATM   24  C   UNL     1      -6.507   6.013  69.585  1.00  0.00    -0.042 C  
HETATM   25  C   UNL     1      -5.185   6.236  70.315  1.00  0.00    -0.013 C  
HETATM   26  C   UNL     1      -6.327   5.607  71.046  1.00  0.00    -0.035 C  
BRANCH  24  27
HETATM   27  C   UNL     1      -6.626   4.927  68.567  1.00  0.00    -0.049 C  
HETATM   28  O   UNL     1      -6.361   3.779  68.898  1.00  0.00    -0.031 OA 
HETATM   29  N   UNL     1      -7.037   5.352  67.319  1.00  0.00    -0.069 N  
HETATM   30  H   UNL     1      -7.154   6.353  67.161  1.00  0.00     0.000 HD 
BRANCH  29  31
HETATM   31  C   UNL     1      -7.300   4.473  66.254  1.00  0.00    -0.081 A  
HETATM   32  C   UNL     1      -6.319   4.148  65.309  1.00  0.00    -0.028 A  
HETATM   33  C   UNL     1      -6.631   3.329  64.224  1.00  0.00    -0.035 A  
HETATM   34  C   UNL     1      -7.929   2.861  64.077  1.00  0.00    -0.082 A  
HETATM   35  C   UNL     1      -8.905   3.148  65.026  1.00  0.00    -0.126 A  
HETATM   36  F   UNL     1      -8.247   2.126  63.003  1.00  0.00    -0.065 F  
HETATM   37  C   UNL     1      -8.581   3.926  66.140  1.00  0.00    -0.112 A  
ENDBRANCH  29  31
ENDBRANCH  24  27
ENDBRANCH  22  24
ENDBRANCH  17  20
ENDBRANCH  13  14
ENDBRANCH   8  13
BRANCH  10  38
HETATM   38  O   UNL     1     -10.864  13.543  64.442  1.00  0.00    -0.392 OA 
HETATM   39  C   UNL     1     -12.037  13.106  63.763  1.00  0.00    -0.495 C  
ENDBRANCH  10  38
ENDBRANCH   2   3
TORSDOF 8
ENDMDL
MODEL       80
REMARK 921   NORMALIZED FREE ENERGY PREDICTED BY IDOCK:   -4.56 KCAL/MOL
REMARK 922        TOTAL FREE ENERGY PREDICTED BY IDOCK:   -8.17 KCAL/MOL
REMARK 923 INTER-LIGAND FREE ENERGY PREDICTED BY IDOCK:   -7.02 KCAL/MOL
REMARK 924 INTRA-LIGAND FREE ENERGY PREDICTED BY IDOCK:   -1.15 KCAL/MOL
REMARK 927      BINDING AFFINITY PREDICTED BY RF-SCORE:    0.00 PKD
ROOT
HETATM    1  C   UNL     1     -12.407  14.342  64.346  1.00  0.00    -0.403 C  
HETATM    2  O   UNL     1     -12.280  14.549  65.749  1.00  0.00    -0.345 OA 
ENDROOT
BRANCH   2   3
HETATM    3  C   UNL     1     -11.016  14.744  66.242  1.00  0.00    -0.330 A  
HETATM    4  C   UNL     1     -10.207  15.822  65.862  1.00  0.00    -0.377 A  
HETATM    5  C   UNL     1      -8.912  15.984  66.324  1.00  0.00    -0.345 A  
HETATM    6  C   UNL     1      -8.399  15.064  67.254  1.00  0.00    -0.228 A  
HETATM    7  C   UNL     1      -9.224  14.002  67.687  1.00  0.00    -0.194 A  
HETATM    8  C   UNL     1      -7.065  15.258  67.671  1.00  0.00    -0.182 A  
HETATM    9  C   UNL     1      -6.321  16.326  67.176  1.00  0.00    -0.195 A  
HETATM   10  C   UNL     1     -10.504  13.811  67.153  1.00  0.00    -0.272 A  
HETATM   11  N   UNL     1      -8.197  17.011  65.839  1.00  0.00    -0.492 NA 
HETATM   12  C   UNL     1      -6.926  17.159  66.260  1.00  0.00    -0.222 A  
BRANCH   8  13
HETATM   13  O   UNL     1      -6.580  14.400  68.636  1.00  0.00    -0.080 OA 
BRANCH  13  14
HETATM   14  C   UNL     1      -6.505  13.050  68.396  1.00  0.00    -0.084 A  
HETATM   15  C   UNL     1      -6.901  12.234  69.454  1.00  0.00     0.007 A  
HETATM   16  C   UNL     1      -6.941  10.848  69.299  1.00  0.00    -0.112 A  
HETATM   17  C   UNL     1      -6.587  10.257  68.085  1.00  0.00    -0.057 A  
HETATM   18  C   UNL     1      -6.159  12.471  67.178  1.00  0.00    -0.036 A  
HETATM   19  C   UNL     1      -6.173  11.078  67.031  1.00  0.00    -0.084 A  
BRANCH  17  20
HETATM   20  N   UNL     1      -6.636   8.863  67.861  1.00  0.00    -0.060 N  
HETATM   21  H   UNL     1      -5.789   8.331  68.064  1.00  0.00     0.000 HD 
HETATM   22  C   UNL     1      -7.723   8.157  67.394  1.00  0.00    -0.102 C  
HETATM   23  O   UNL     1      -8.803   8.594  67.033  1.00  0.00    -0.128 OA 
BRANCH  22  24
HETATM   24  C   UNL     1      -7.527   6.675  67.343  1.00  0.00    -0.096 C  
HETATM   25  C   UNL     1      -7.273   6.073  65.964  1.00  0.00    -0.075 C  
HETATM   26  C   UNL     1      -6.164   6.100  66.965  1.00  0.00    -0.029 C  
BRANCH  24  27
HETATM   27  C   UNL     1      -8.346   5.932  68.347  1.00  0.00    -0.112 C  
HETATM   28  O   UNL     1      -8.587   4.749  68.149  1.00  0.00    -0.101 OA 
HETATM   29  N   UNL     1      -8.756   6.688  69.427  1.00  0.00    -0.134 N  
HETATM   30  H   UNL     1      -8.544   7.687  69.430  1.00  0.00     0.000 HD 
BRANCH  29  31
HETATM   31  C   UNL     1      -9.453   6.151  70.523  1.00  0.00    -0.164 A  
HETATM   32  C   UNL     1      -8.933   5.090  71.275  1.00  0.00    -0.164 A  
HETATM   33  C   UNL     1      -9.679   4.531  72.313  1.00  0.00    -0.217 A  
HETATM   34  C   UNL     1     -10.952   5.020  72.575  1.00  0.00    -0.177 A  
HETATM   35  C   UNL     1     -11.466   6.095  71.858  1.00  0.00    -0.355 A  
HETATM   36  F   UNL     1     -11.695   4.445  73.528  1.00  0.00    -0.364 F  
HETATM   37  C   UNL     1     -10.699   6.689  70.852  1.00  0.00    -0.278 A  
ENDBRANCH  29  31
ENDBRANCH  24  27
ENDBRANCH  22  24
ENDBRANCH  17  20
ENDBRANCH  13  14
ENDBRANCH   8  13
BRANCH  10  38
HETATM   38  O   UNL     1     -11.152  12.707  67.644  1.00  0.00    -0.241 OA 
HETATM   39  C   UNL     1     -10.318  11.620  68.032  1.00  0.00    -0.192 C  
ENDBRANCH  10  38
ENDBRANCH   2   3
TORSDOF 8
ENDMDL
MODEL       81
REMARK 921   NORMALIZED FREE ENERGY PREDICTED BY IDOCK:   -4.56 KCAL/MOL
REMARK 922        TOTAL FREE ENERGY PREDICTED BY IDOCK:   -8.17 KCAL/MOL
REMARK 923 INTER-LIGAND FREE ENERGY PREDICTED BY IDOCK:   -7.11 KCAL/MOL
REMARK 924 INTRA-LIGAND FREE ENERGY PREDICTED BY IDOCK:   -1.05 KCAL/MOL
REMARK 927      BINDING AFFINITY PREDICTED BY RF-SCORE:    0.00 PKD
ROOT
HETATM    1  C   UNL     1      -6.688   1.489  69.786  1.00  0.00    -0.029 C  
HETATM    2  O   UNL     1      -6.740   2.828  69.307  1.00  0.00    -0.033 OA 
ENDROOT
BRANCH   2   3
HETATM    3  C   UNL     1      -7.784   3.607  69.735  1.00  0.00    -0.051 A  
HETATM    4  C   UNL     1      -8.207   3.647  71.069  1.00  0.00    -0.078 A  
HETATM    5  C   UNL     1      -9.295   4.396  71.486  1.00  0.00    -0.143 A  
HETATM    6  C   UNL     1      -9.975   5.192  70.548  1.00  0.00    -0.304 A  
HETATM    7  C   UNL     1      -9.524   5.202  69.210  1.00  0.00    -0.196 A  
HETATM    8  C   UNL     1     -11.094   5.913  71.018  1.00  0.00    -0.245 A  
HETATM    9  C   UNL     1     -11.475   5.828  72.355  1.00  0.00    -0.343 A  
HETATM   10  C   UNL     1      -8.469   4.382  68.791  1.00  0.00    -0.084 A  
HETATM   11  N   UNL     1      -9.662   4.307  72.774  1.00  0.00    -0.131 NA 
HETATM   12  C   UNL     1     -10.738   5.007  73.181  1.00  0.00    -0.257 A  
BRANCH   8  13
HETATM   13  O   UNL     1     -11.721   6.749  70.119  1.00  0.00    -0.357 OA 
BRANCH  13  14
HETATM   14  C   UNL     1     -11.138   7.934  69.742  1.00  0.00    -0.075 A  
HETATM   15  C   UNL     1     -10.697   8.740  70.789  1.00  0.00    -0.277 A  
HETATM   16  C   UNL     1     -10.019   9.932  70.526  1.00  0.00    -0.164 A  
HETATM   17  C   UNL     1      -9.771  10.333  69.212  1.00  0.00    -0.225 A  
HETATM   18  C   UNL     1     -10.888   8.321  68.429  1.00  0.00     0.036 A  
HETATM   19  C   UNL     1     -10.230   9.530  68.163  1.00  0.00    -0.231 A  
BRANCH  17  20
HETATM   20  N   UNL     1      -9.065  11.512  68.885  1.00  0.00    -0.392 N  
HETATM   21  H   UNL     1      -9.493  12.398  69.153  1.00  0.00     0.000 HD 
HETATM   22  C   UNL     1      -7.851  11.574  68.236  1.00  0.00    -0.138 C  
HETATM   23  O   UNL     1      -7.199  10.652  67.774  1.00  0.00    -0.086 OA 
BRANCH  22  24
HETATM   24  C   UNL     1      -7.286  12.951  68.104  1.00  0.00    -0.114 C  
HETATM   25  C   UNL     1      -6.147  13.310  69.055  1.00  0.00    -0.088 C  
HETATM   26  C   UNL     1      -5.857  13.142  67.599  1.00  0.00    -0.122 C  
BRANCH  24  27
HETATM   27  C   UNL     1      -8.302  13.979  67.731  1.00  0.00    -0.176 C  
HETATM   28  O   UNL     1      -9.361  13.608  67.241  1.00  0.00    -0.215 OA 
HETATM   29  N   UNL     1      -7.923  15.282  67.987  1.00  0.00    -0.126 N  
HETATM   30  H   UNL     1      -6.978  15.454  68.332  1.00  0.00     0.000 HD 
BRANCH  29  31
HETATM   31  C   UNL     1      -8.775  16.384  67.796  1.00  0.00    -0.180 A  
HETATM   32  C   UNL     1      -9.916  16.576  68.586  1.00  0.00    -0.248 A  
HETATM   33  C   UNL     1     -10.780  17.639  68.326  1.00  0.00    -0.285 A  
HETATM   34  C   UNL     1     -10.512  18.489  67.261  1.00  0.00    -0.419 A  
HETATM   35  C   UNL     1      -9.365  18.329  66.490  1.00  0.00    -0.306 A  
HETATM   36  F   UNL     1     -11.373  19.473  66.970  1.00  0.00    -0.515 F  
HETATM   37  C   UNL     1      -8.472  17.295  66.781  1.00  0.00    -0.275 A  
ENDBRANCH  29  31
ENDBRANCH  24  27
ENDBRANCH  22  24
ENDBRANCH  17  20
ENDBRANCH  13  14
ENDBRANCH   8  13
BRANCH  10  38
HETATM   38  O   UNL     1      -8.191   4.475  67.451  1.00  0.00    -0.100 OA 
HETATM   39  C   UNL     1      -8.966   3.641  66.597  1.00  0.00    -0.141 C  
ENDBRANCH  10  38
ENDBRANCH   2   3
TORSDOF 8
ENDMDL
MODEL       82
REMARK 921   NORMALIZED FREE ENERGY PREDICTED BY IDOCK:   -4.55 KCAL/MOL
REMARK 922        TOTAL FREE ENERGY PREDICTED BY IDOCK:   -8.15 KCAL/MOL
REMARK 923 INTER-LIGAND FREE ENERGY PREDICTED BY IDOCK:   -6.76 KCAL/MOL
REMARK 924 INTRA-LIGAND FREE ENERGY PREDICTED BY IDOCK:   -1.39 KCAL/MOL
REMARK 927      BINDING AFFINITY PREDICTED BY RF-SCORE:    0.00 PKD
ROOT
HETATM    1  C   UNL     1      -8.552   1.546  64.546  1.00  0.00    -0.091 C  
HETATM    2  O   UNL     1      -9.176   2.742  64.091  1.00  0.00    -0.110 OA 
ENDROOT
BRANCH   2   3
HETATM    3  C   UNL     1      -9.090   3.842  64.904  1.00  0.00    -0.141 A  
HETATM    4  C   UNL     1      -9.531   3.844  66.233  1.00  0.00    -0.198 A  
HETATM    5  C   UNL     1      -9.489   4.975  67.033  1.00  0.00    -0.142 A  
HETATM    6  C   UNL     1      -8.935   6.157  66.515  1.00  0.00    -0.143 A  
HETATM    7  C   UNL     1      -8.437   6.153  65.193  1.00  0.00    -0.101 A  
HETATM    8  C   UNL     1      -8.942   7.287  67.361  1.00  0.00    -0.122 A  
HETATM    9  C   UNL     1      -9.471   7.200  68.647  1.00  0.00    -0.140 A  
HETATM   10  C   UNL     1      -8.555   5.024  64.374  1.00  0.00    -0.135 A  
HETATM   11  N   UNL     1     -10.005   4.887  68.269  1.00  0.00    -0.139 NA 
HETATM   12  C   UNL     1      -9.997   5.989  69.043  1.00  0.00    -0.158 A  
BRANCH   8  13
HETATM   13  O   UNL     1      -8.337   8.429  66.883  1.00  0.00    -0.105 OA 
BRANCH  13  14
HETATM   14  C   UNL     1      -8.745   9.669  67.312  1.00  0.00    -0.132 A  
HETATM   15  C   UNL     1      -7.752  10.454  67.892  1.00  0.00    -0.089 A  
HETATM   16  C   UNL     1      -8.031  11.762  68.294  1.00  0.00    -0.147 A  
HETATM   17  C   UNL     1      -9.306  12.302  68.120  1.00  0.00    -0.205 A  
HETATM   18  C   UNL     1     -10.017  10.201  67.126  1.00  0.00    -0.243 A  
HETATM   19  C   UNL     1     -10.306  11.504  67.553  1.00  0.00    -0.220 A  
BRANCH  17  20
HETATM   20  N   UNL     1      -9.640  13.626  68.480  1.00  0.00    -0.325 N  
HETATM   21  H   UNL     1     -10.077  13.763  69.392  1.00  0.00     0.000 HD 
HETATM   22  C   UNL     1      -9.428  14.751  67.712  1.00  0.00    -0.204 C  
HETATM   23  O   UNL     1      -8.983  14.812  66.578  1.00  0.00    -0.266 OA 
BRANCH  22  24
HETATM   24  C   UNL     1      -9.790  16.038  68.381  1.00  0.00    -0.213 C  
HETATM   25  C   UNL     1     -11.281  16.322  68.543  1.00  0.00    -0.359 C  
HETATM   26  C   UNL     1     -10.457  16.022  69.754  1.00  0.00    -0.300 C  
BRANCH  24  27
HETATM   27  C   UNL     1      -8.844  17.153  68.077  1.00  0.00    -0.229 C  
HETATM   28  O   UNL     1      -8.210  17.655  68.997  1.00  0.00    -0.190 OA 
HETATM   29  N   UNL     1      -8.785  17.510  66.744  1.00  0.00    -0.247 N  
HETATM   30  H   UNL     1      -9.425  17.055  66.091  1.00  0.00     0.000 HD 
BRANCH  29  31
HETATM   31  C   UNL     1      -7.889  18.469  66.242  1.00  0.00    -0.254 A  
HETATM   32  C   UNL     1      -6.642  18.105  65.718  1.00  0.00    -0.313 A  
HETATM   33  C   UNL     1      -5.744  19.085  65.293  1.00  0.00    -0.240 A  
HETATM   34  C   UNL     1      -6.090  20.424  65.419  1.00  0.00    -0.227 A  
HETATM   35  C   UNL     1      -7.338  20.797  65.906  1.00  0.00     0.096 A  
HETATM   36  F   UNL     1      -5.207  21.368  65.071  1.00  0.00    -0.235 F  
HETATM   37  C   UNL     1      -8.257  19.815  66.284  1.00  0.00    -0.372 A  
ENDBRANCH  29  31
ENDBRANCH  24  27
ENDBRANCH  22  24
ENDBRANCH  17  20
ENDBRANCH  13  14
ENDBRANCH   8  13
BRANCH  10  38
HETATM   38  O   UNL     1      -8.067   5.203  63.105  1.00  0.00    -0.088 OA 
HETATM   39  C   UNL     1      -6.670   4.978  62.941  1.00  0.00    -0.030 C  
ENDBRANCH  10  38
ENDBRANCH   2   3
TORSDOF 8
ENDMDL
MODEL       83
REMARK 921   NORMALIZED FREE ENERGY PREDICTED BY IDOCK:   -4.53 KCAL/MOL
REMARK 922        TOTAL FREE ENERGY PREDICTED BY IDOCK:   -8.11 KCAL/MOL
REMARK 923 INTER-LIGAND FREE ENERGY PREDICTED BY IDOCK:   -6.88 KCAL/MOL
REMARK 924 INTRA-LIGAND FREE ENERGY PREDICTED BY IDOCK:   -1.23 KCAL/MOL
REMARK 927      BINDING AFFINITY PREDICTED BY RF-SCORE:    0.00 PKD
ROOT
HETATM    1  C   UNL     1      -9.308   2.952  65.376  1.00  0.00    -0.095 C  
HETATM    2  O   UNL     1      -8.905   4.268  65.014  1.00  0.00    -0.125 OA 
ENDROOT
BRANCH   2   3
HETATM    3  C   UNL     1      -8.254   5.009  65.965  1.00  0.00    -0.113 A  
HETATM    4  C   UNL     1      -8.073   4.568  67.282  1.00  0.00    -0.101 A  
HETATM    5  C   UNL     1      -7.459   5.344  68.252  1.00  0.00    -0.073 A  
HETATM    6  C   UNL     1      -6.948   6.603  67.896  1.00  0.00    -0.083 A  
HETATM    7  C   UNL     1      -7.075   7.036  66.558  1.00  0.00    -0.077 A  
HETATM    8  C   UNL     1      -6.358   7.364  68.928  1.00  0.00    -0.039 A  
HETATM    9  C   UNL     1      -6.292   6.861  70.225  1.00  0.00    -0.039 A  
HETATM   10  C   UNL     1      -7.764   6.272  65.608  1.00  0.00    -0.093 A  
HETATM   11  N   UNL     1      -7.403   4.857  69.501  1.00  0.00    -0.055 NA 
HETATM   12  C   UNL     1      -6.836   5.617  70.458  1.00  0.00    -0.052 A  
BRANCH   8  13
HETATM   13  O   UNL     1      -5.792   8.570  68.570  1.00  0.00    -0.039 OA 
BRANCH  13  14
HETATM   14  C   UNL     1      -6.577   9.606  68.125  1.00  0.00    -0.061 A  
HETATM   15  C   UNL     1      -7.706   9.871  68.896  1.00  0.00    -0.085 A  
HETATM   16  C   UNL     1      -8.535  10.950  68.586  1.00  0.00    -0.152 A  
HETATM   17  C   UNL     1      -8.246  11.780  67.502  1.00  0.00    -0.152 A  
HETATM   18  C   UNL     1      -6.275  10.432  67.047  1.00  0.00    -0.067 A  
HETATM   19  C   UNL     1      -7.121  11.500  66.719  1.00  0.00    -0.112 A  
BRANCH  17  20
HETATM   20  N   UNL     1      -9.032  12.902  67.157  1.00  0.00    -0.212 N  
HETATM   21  H   UNL     1      -9.839  12.736  66.556  1.00  0.00     0.000 HD 
HETATM   22  C   UNL     1      -8.806  14.201  67.559  1.00  0.00    -0.201 C  
HETATM   23  O   UNL     1      -7.875  14.631  68.219  1.00  0.00    -0.115 OA 
BRANCH  22  24
HETATM   24  C   UNL     1      -9.852  15.177  67.125  1.00  0.00    -0.228 C  
HETATM   25  C   UNL     1      -9.493  16.073  65.943  1.00  0.00    -0.351 C  
HETATM   26  C   UNL     1     -10.531  15.012  65.767  1.00  0.00    -0.353 C  
BRANCH  24  27
HETATM   27  C   UNL     1     -10.667  15.716  68.253  1.00  0.00    -0.283 C  
HETATM   28  O   UNL     1     -11.127  16.847  68.160  1.00  0.00    -0.347 OA 
HETATM   29  N   UNL     1     -10.819  14.849  69.318  1.00  0.00    -0.258 N  
HETATM   30  H   UNL     1     -10.320  13.960  69.295  1.00  0.00     0.000 HD 
BRANCH  29  31
HETATM   31  C   UNL     1     -11.628  15.132  70.432  1.00  0.00    -0.292 A  
HETATM   32  C   UNL     1     -13.015  14.937  70.402  1.00  0.00    -0.272 A  
HETATM   33  C   UNL     1     -13.800  15.294  71.499  1.00  0.00    -0.617 A  
HETATM   34  C   UNL     1     -13.195  15.868  72.609  1.00  0.00    -0.472 A  
HETATM   35  C   UNL     1     -11.816  16.037  72.665  1.00  0.00    -0.611 A  
HETATM   36  F   UNL     1     -13.953  16.270  73.637  1.00  0.00    -0.456 F  
HETATM   37  C   UNL     1     -11.023  15.633  71.588  1.00  0.00    -0.042 A  
ENDBRANCH  29  31
ENDBRANCH  24  27
ENDBRANCH  22  24
ENDBRANCH  17  20
ENDBRANCH  13  14
ENDBRANCH   8  13
BRANCH  10  38
HETATM   38  O   UNL     1      -7.840   6.859  64.371  1.00  0.00    -0.108 OA 
HETATM   39  C   UNL     1      -6.684   7.579  63.954  1.00  0.00    -0.053 C  
ENDBRANCH  10  38
ENDBRANCH   2   3
TORSDOF 8
ENDMDL
MODEL       84
REMARK 921   NORMALIZED FREE ENERGY PREDICTED BY IDOCK:   -4.52 KCAL/MOL
REMARK 922        TOTAL FREE ENERGY PREDICTED BY IDOCK:   -8.11 KCAL/MOL
REMARK 923 INTER-LIGAND FREE ENERGY PREDICTED BY IDOCK:   -7.08 KCAL/MOL
REMARK 924 INTRA-LIGAND FREE ENERGY PREDICTED BY IDOCK:   -1.02 KCAL/MOL
REMARK 927      BINDING AFFINITY PREDICTED BY RF-SCORE:    0.00 PKD
ROOT
HETATM    1  C   UNL     1     -11.111   3.788  72.977  1.00  0.00    -0.022 C  
HETATM    2  O   UNL     1     -10.562   5.028  73.411  1.00  0.00    -0.197 OA 
ENDROOT
BRANCH   2   3
HETATM    3  C   UNL     1     -10.794   6.126  72.625  1.00  0.00    -0.245 A  
HETATM    4  C   UNL     1     -11.663   7.159  72.996  1.00  0.00     0.111 A  
HETATM    5  C   UNL     1     -11.933   8.241  72.174  1.00  0.00    -0.369 A  
HETATM    6  C   UNL     1     -11.271   8.340  70.939  1.00  0.00    -0.292 A  
HETATM    7  C   UNL     1     -10.350   7.332  70.576  1.00  0.00    -0.215 A  
HETATM    8  C   UNL     1     -11.603   9.446  70.127  1.00  0.00    -0.078 A  
HETATM    9  C   UNL     1     -12.537  10.383  70.561  1.00  0.00    -0.384 A  
HETATM   10  C   UNL     1     -10.146   6.208  71.386  1.00  0.00    -0.194 A  
HETATM   11  N   UNL     1     -12.838   9.138  72.594  1.00  0.00    -0.314 NA 
HETATM   12  C   UNL     1     -13.130  10.176  71.788  1.00  0.00    -0.463 A  
BRANCH   8  13
HETATM   13  O   UNL     1     -10.905   9.586  68.946  1.00  0.00    -0.215 OA 
BRANCH  13  14
HETATM   14  C   UNL     1     -10.135  10.700  68.716  1.00  0.00    -0.191 A  
HETATM   15  C   UNL     1     -10.844  11.879  68.498  1.00  0.00    -0.257 A  
HETATM   16  C   UNL     1     -10.167  13.089  68.332  1.00  0.00    -0.246 A  
HETATM   17  C   UNL     1      -8.773  13.136  68.382  1.00  0.00    -0.120 A  
HETATM   18  C   UNL     1      -8.745  10.738  68.776  1.00  0.00    -0.163 A  
HETATM   19  C   UNL     1      -8.064  11.947  68.583  1.00  0.00    -0.086 A  
BRANCH  17  20
HETATM   20  N   UNL     1      -8.036  14.334  68.249  1.00  0.00    -0.134 N  
HETATM   21  H   UNL     1      -8.109  14.827  67.359  1.00  0.00     0.000 HD 
HETATM   22  C   UNL     1      -7.228  14.897  69.213  1.00  0.00    -0.172 C  
HETATM   23  O   UNL     1      -6.949  14.450  70.313  1.00  0.00    -0.027 OA 
BRANCH  22  24
HETATM   24  C   UNL     1      -6.642  16.220  68.839  1.00  0.00    -0.150 C  
HETATM   25  C   UNL     1      -6.006  17.024  69.970  1.00  0.00    -0.184 C  
HETATM   26  C   UNL     1      -5.131  16.432  68.912  1.00  0.00    -0.109 C  
BRANCH  24  27
HETATM   27  C   UNL     1      -7.394  16.918  67.754  1.00  0.00    -0.155 C  
HETATM   28  O   UNL     1      -7.143  16.638  66.589  1.00  0.00    -0.218 OA 
HETATM   29  N   UNL     1      -8.323  17.838  68.199  1.00  0.00    -0.256 N  
HETATM   30  H   UNL     1      -8.379  18.026  69.201  1.00  0.00     0.000 HD 
BRANCH  29  31
HETATM   31  C   UNL     1      -9.197  18.528  67.341  1.00  0.00    -0.278 A  
HETATM   32  C   UNL     1     -10.225  17.869  66.654  1.00  0.00    -0.371 A  
HETATM   33  C   UNL     1     -11.030  18.568  65.755  1.00  0.00     0.145 A  
HETATM   34  C   UNL     1     -10.785  19.915  65.528  1.00  0.00    -0.199 A  
HETATM   35  C   UNL     1      -9.790  20.589  66.228  1.00  0.00    -0.222 A  
HETATM   36  F   UNL     1     -11.515  20.574  64.619  1.00  0.00    -0.099 F  
HETATM   37  C   UNL     1      -9.015  19.902  67.166  1.00  0.00    -0.425 A  
ENDBRANCH  29  31
ENDBRANCH  24  27
ENDBRANCH  22  24
ENDBRANCH  17  20
ENDBRANCH  13  14
ENDBRANCH   8  13
BRANCH  10  38
HETATM   38  O   UNL     1      -9.258   5.302  70.865  1.00  0.00    -0.140 OA 
HETATM   39  C   UNL     1      -9.481   4.924  69.511  1.00  0.00    -0.148 C  
ENDBRANCH  10  38
ENDBRANCH   2   3
TORSDOF 8
ENDMDL
MODEL       85
REMARK 921   NORMALIZED FREE ENERGY PREDICTED BY IDOCK:   -4.51 KCAL/MOL
REMARK 922        TOTAL FREE ENERGY PREDICTED BY IDOCK:   -8.08 KCAL/MOL
REMARK 923 INTER-LIGAND FREE ENERGY PREDICTED BY IDOCK:   -6.93 KCAL/MOL
REMARK 924 INTRA-LIGAND FREE ENERGY PREDICTED BY IDOCK:   -1.16 KCAL/MOL
REMARK 927      BINDING AFFINITY PREDICTED BY RF-SCORE:    0.00 PKD
ROOT
HETATM    1  C   UNL     1      -6.632   7.309  74.084  1.00  0.00    -0.077 C  
HETATM    2  O   UNL     1      -7.244   8.109  73.078  1.00  0.00    -0.106 OA 
ENDROOT
BRANCH   2   3
HETATM    3  C   UNL     1      -7.321   7.579  71.817  1.00  0.00    -0.071 A  
HETATM    4  C   UNL     1      -8.023   6.402  71.526  1.00  0.00    -0.105 A  
HETATM    5  C   UNL     1      -8.054   5.844  70.259  1.00  0.00    -0.107 A  
HETATM    6  C   UNL     1      -7.401   6.505  69.206  1.00  0.00    -0.093 A  
HETATM    7  C   UNL     1      -6.735   7.722  69.474  1.00  0.00    -0.043 A  
HETATM    8  C   UNL     1      -7.438   5.880  67.941  1.00  0.00    -0.081 A  
HETATM    9  C   UNL     1      -8.107   4.670  67.774  1.00  0.00    -0.096 A  
HETATM   10  C   UNL     1      -6.651   8.234  70.775  1.00  0.00    -0.038 A  
HETATM   11  N   UNL     1      -8.695   4.675  70.104  1.00  0.00    -0.080 NA 
HETATM   12  C   UNL     1      -8.704   4.108  68.882  1.00  0.00    -0.092 A  
BRANCH   8  13
HETATM   13  O   UNL     1      -6.860   6.559  66.890  1.00  0.00    -0.061 OA 
BRANCH  13  14
HETATM   14  C   UNL     1      -7.493   7.637  66.321  1.00  0.00    -0.083 A  
HETATM   15  C   UNL     1      -8.878   7.527  66.216  1.00  0.00    -0.184 A  
HETATM   16  C   UNL     1      -9.636   8.592  65.726  1.00  0.00    -0.068 A  
HETATM   17  C   UNL     1      -9.020   9.782  65.336  1.00  0.00    -0.190 A  
HETATM   18  C   UNL     1      -6.871   8.823  65.943  1.00  0.00    -0.068 A  
HETATM   19  C   UNL     1      -7.628   9.883  65.426  1.00  0.00    -0.131 A  
BRANCH  17  20
HETATM   20  N   UNL     1      -9.737  10.902  64.861  1.00  0.00    -0.244 N  
HETATM   21  H   UNL     1      -9.652  11.120  63.868  1.00  0.00     0.000 HD 
HETATM   22  C   UNL     1     -10.540  11.729  65.616  1.00  0.00    -0.268 C  
HETATM   23  O   UNL     1     -10.733  11.692  66.820  1.00  0.00    -0.237 OA 
BRANCH  22  24
HETATM   24  C   UNL     1     -11.257  12.783  64.836  1.00  0.00    -0.331 C  
HETATM   25  C   UNL     1     -11.444  12.513  63.345  1.00  0.00    -0.523 C  
HETATM   26  C   UNL     1     -12.636  12.489  64.247  1.00  0.00    -0.485 C  
BRANCH  24  27
HETATM   27  C   UNL     1     -10.984  14.169  65.318  1.00  0.00    -0.337 C  
HETATM   28  O   UNL     1     -11.784  15.056  65.045  1.00  0.00    -0.353 OA 
HETATM   29  N   UNL     1      -9.818  14.306  66.045  1.00  0.00    -0.331 N  
HETATM   30  H   UNL     1      -9.205  13.495  66.136  1.00  0.00     0.000 HD 
BRANCH  29  31
HETATM   31  C   UNL     1      -9.433  15.508  66.665  1.00  0.00    -0.259 A  
HETATM   32  C   UNL     1      -8.142  16.030  66.515  1.00  0.00    -0.304 A  
HETATM   33  C   UNL     1      -7.767  17.186  67.200  1.00  0.00    -0.205 A  
HETATM   34  C   UNL     1      -8.679  17.798  68.050  1.00  0.00    -0.251 A  
HETATM   35  C   UNL     1      -9.974  17.308  68.181  1.00  0.00    -0.303 A  
HETATM   36  F   UNL     1      -8.303  18.871  68.757  1.00  0.00    -0.354 F  
HETATM   37  C   UNL     1     -10.366  16.180  67.457  1.00  0.00    -0.286 A  
ENDBRANCH  29  31
ENDBRANCH  24  27
ENDBRANCH  22  24
ENDBRANCH  17  20
ENDBRANCH  13  14
ENDBRANCH   8  13
BRANCH  10  38
HETATM   38  O   UNL     1      -5.927   9.394  70.871  1.00  0.00    -0.051 OA 
HETATM   39  C   UNL     1      -5.276   9.819  69.677  1.00  0.00    -0.034 C  
ENDBRANCH  10  38
ENDBRANCH   2   3
TORSDOF 8
ENDMDL
MODEL       86
REMARK 921   NORMALIZED FREE ENERGY PREDICTED BY IDOCK:   -4.39 KCAL/MOL
REMARK 922        TOTAL FREE ENERGY PREDICTED BY IDOCK:   -7.92 KCAL/MOL
REMARK 923 INTER-LIGAND FREE ENERGY PREDICTED BY IDOCK:   -7.14 KCAL/MOL
REMARK 924 INTRA-LIGAND FREE ENERGY PREDICTED BY IDOCK:   -0.78 KCAL/MOL
REMARK 927      BINDING AFFINITY PREDICTED BY RF-SCORE:    0.00 PKD
ROOT
HETATM    1  C   UNL     1     -12.891  12.779  63.296  1.00  0.00     0.214 C  
HETATM    2  O   UNL     1     -13.052  12.428  64.666  1.00  0.00    -0.825 OA 
ENDROOT
BRANCH   2   3
HETATM    3  C   UNL     1     -11.999  12.682  65.506  1.00  0.00    -0.456 A  
HETATM    4  C   UNL     1     -12.007  13.719  66.447  1.00  0.00    -0.473 A  
HETATM    5  C   UNL     1     -10.919  14.002  67.257  1.00  0.00    -0.295 A  
HETATM    6  C   UNL     1      -9.778  13.187  67.175  1.00  0.00    -0.235 A  
HETATM    7  C   UNL     1      -9.778  12.104  66.269  1.00  0.00    -0.251 A  
HETATM    8  C   UNL     1      -8.688  13.536  68.001  1.00  0.00    -0.181 A  
HETATM    9  C   UNL     1      -8.773  14.634  68.854  1.00  0.00    -0.138 A  
HETATM   10  C   UNL     1     -10.856  11.877  65.405  1.00  0.00    -0.294 A  
HETATM   11  N   UNL     1     -11.004  15.065  68.072  1.00  0.00    -0.274 NA 
HETATM   12  C   UNL     1      -9.940  15.366  68.841  1.00  0.00    -0.219 A  
BRANCH   8  13
HETATM   13  O   UNL     1      -7.592  12.699  67.977  1.00  0.00    -0.109 OA 
BRANCH  13  14
HETATM   14  C   UNL     1      -7.717  11.373  68.313  1.00  0.00    -0.124 A  
HETATM   15  C   UNL     1      -8.480  11.117  69.450  1.00  0.00     0.249 A  
HETATM   16  C   UNL     1      -8.741   9.803  69.843  1.00  0.00    -0.238 A  
HETATM   17  C   UNL     1      -8.245   8.728  69.104  1.00  0.00    -0.119 A  
HETATM   18  C   UNL     1      -7.226  10.308  67.564  1.00  0.00    -0.088 A  
HETATM   19  C   UNL     1      -7.465   8.989  67.973  1.00  0.00    -0.084 A  
BRANCH  17  20
HETATM   20  N   UNL     1      -8.501   7.379  69.437  1.00  0.00    -0.132 N  
HETATM   21  H   UNL     1      -7.744   6.860  69.882  1.00  0.00     0.000 HD 
HETATM   22  C   UNL     1      -9.679   6.701  69.215  1.00  0.00    -0.146 C  
HETATM   23  O   UNL     1     -10.681   7.103  68.646  1.00  0.00    -0.210 OA 
BRANCH  22  24
HETATM   24  C   UNL     1      -9.707   5.307  69.756  1.00  0.00    -0.257 C  
HETATM   25  C   UNL     1      -9.038   5.094  71.111  1.00  0.00    -0.174 C  
HETATM   26  C   UNL     1     -10.526   4.992  71.006  1.00  0.00    -0.211 C  
BRANCH  24  27
HETATM   27  C   UNL     1      -9.612   4.257  68.699  1.00  0.00    -0.142 C  
HETATM   28  O   UNL     1      -9.584   3.081  69.039  1.00  0.00    -0.147 OA 
HETATM   29  N   UNL     1      -9.563   4.743  67.407  1.00  0.00    -0.149 N  
HETATM   30  H   UNL     1      -9.521   5.754  67.271  1.00  0.00     0.000 HD 
BRANCH  29  31
HETATM   31  C   UNL     1      -9.568   3.915  66.272  1.00  0.00    -0.185 A  
HETATM   32  C   UNL     1      -8.654   2.864  66.125  1.00  0.00    -0.119 A  
HETATM   33  C   UNL     1      -8.637   2.105  64.955  1.00  0.00    -0.108 A  
HETATM   34  C   UNL     1      -9.518   2.418  63.929  1.00  0.00    -0.120 A  
HETATM   35  C   UNL     1     -10.453   3.437  64.075  1.00  0.00    -0.219 A  
HETATM   36  F   UNL     1      -9.462   1.732  62.780  1.00  0.00    -0.088 F  
HETATM   37  C   UNL     1     -10.505   4.165  65.266  1.00  0.00    -0.156 A  
ENDBRANCH  29  31
ENDBRANCH  24  27
ENDBRANCH  22  24
ENDBRANCH  17  20
ENDBRANCH  13  14
ENDBRANCH   8  13
BRANCH  10  38
HETATM   38  O   UNL     1     -10.675  10.817  64.555  1.00  0.00    -0.297 OA 
HETATM   39  C   UNL     1      -9.679  10.989  63.552  1.00  0.00    -0.337 C  
ENDBRANCH  10  38
ENDBRANCH   2   3
TORSDOF 8
ENDMDL
MODEL       87
REMARK 921   NORMALIZED FREE ENERGY PREDICTED BY IDOCK:   -4.36 KCAL/MOL
REMARK 922        TOTAL FREE ENERGY PREDICTED BY IDOCK:   -7.87 KCAL/MOL
REMARK 923 INTER-LIGAND FREE ENERGY PREDICTED BY IDOCK:   -6.99 KCAL/MOL
REMARK 924 INTRA-LIGAND FREE ENERGY PREDICTED BY IDOCK:   -0.88 KCAL/MOL
REMARK 927      BINDING AFFINITY PREDICTED BY RF-SCORE:    0.00 PKD
ROOT
HETATM    1  C   UNL     1      -5.581   7.737  63.391  1.00  0.00    -0.053 C  
HETATM    2  O   UNL     1      -6.733   6.903  63.316  1.00  0.00    -0.042 OA 
ENDROOT
BRANCH   2   3
HETATM    3  C   UNL     1      -7.525   6.827  64.431  1.00  0.00    -0.100 A  
HETATM    4  C   UNL     1      -7.506   5.734  65.307  1.00  0.00    -0.078 A  
HETATM    5  C   UNL     1      -8.347   5.639  66.403  1.00  0.00    -0.112 A  
HETATM    6  C   UNL     1      -9.220   6.703  66.686  1.00  0.00    -0.179 A  
HETATM    7  C   UNL     1      -9.211   7.835  65.842  1.00  0.00    -0.078 A  
HETATM    8  C   UNL     1     -10.076   6.544  67.798  1.00  0.00    -0.148 A  
HETATM    9  C   UNL     1     -10.026   5.382  68.565  1.00  0.00    -0.223 A  
HETATM   10  C   UNL     1      -8.408   7.882  64.696  1.00  0.00    -0.038 A  
HETATM   11  N   UNL     1      -8.299   4.516  67.136  1.00  0.00    -0.105 NA 
HETATM   12  C   UNL     1      -9.135   4.401  68.185  1.00  0.00    -0.127 A  
BRANCH   8  13
HETATM   13  O   UNL     1     -10.885   7.612  68.122  1.00  0.00    -0.110 OA 
BRANCH  13  14
HETATM   14  C   UNL     1     -10.356   8.872  68.264  1.00  0.00    -0.206 A  
HETATM   15  C   UNL     1      -9.236   8.957  69.088  1.00  0.00    -0.144 A  
HETATM   16  C   UNL     1      -8.566  10.172  69.245  1.00  0.00    -0.180 A  
HETATM   17  C   UNL     1      -9.006  11.318  68.580  1.00  0.00    -0.147 A  
HETATM   18  C   UNL     1     -10.797  10.007  67.590  1.00  0.00    -0.336 A  
HETATM   19  C   UNL     1     -10.142  11.232  67.768  1.00  0.00    -0.199 A  
BRANCH  17  20
HETATM   20  N   UNL     1      -8.353  12.566  68.678  1.00  0.00    -0.344 N  
HETATM   21  H   UNL     1      -8.773  13.263  69.294  1.00  0.00     0.000 HD 
HETATM   22  C   UNL     1      -7.200  12.929  68.017  1.00  0.00    -0.115 C  
HETATM   23  O   UNL     1      -6.571  12.284  67.194  1.00  0.00    -0.151 OA 
BRANCH  22  24
HETATM   24  C   UNL     1      -6.673  14.280  68.381  1.00  0.00    -0.104 C  
HETATM   25  C   UNL     1      -6.046  14.413  69.766  1.00  0.00    -0.131 C  
HETATM   26  C   UNL     1      -5.170  14.490  68.557  1.00  0.00    -0.103 C  
BRANCH  24  27
HETATM   27  C   UNL     1      -7.473  15.404  67.811  1.00  0.00    -0.155 C  
HETATM   28  O   UNL     1      -8.280  15.161  66.922  1.00  0.00    -0.215 OA 
HETATM   29  N   UNL     1      -7.207  16.640  68.367  1.00  0.00    -0.166 N  
HETATM   30  H   UNL     1      -6.455  16.711  69.053  1.00  0.00     0.000 HD 
BRANCH  29  31
HETATM   31  C   UNL     1      -7.920  17.805  68.034  1.00  0.00    -0.244 A  
HETATM   32  C   UNL     1      -7.453  18.701  67.065  1.00  0.00    -0.229 A  
HETATM   33  C   UNL     1      -8.146  19.884  66.807  1.00  0.00    -0.349 A  
HETATM   34  C   UNL     1      -9.289  20.174  67.539  1.00  0.00    -0.382 A  
HETATM   35  C   UNL     1      -9.783  19.277  68.481  1.00  0.00    -0.481 A  
HETATM   36  F   UNL     1      -9.922  21.337  67.339  1.00  0.00    -0.576 F  
HETATM   37  C   UNL     1      -9.117  18.069  68.704  1.00  0.00    -0.276 A  
ENDBRANCH  29  31
ENDBRANCH  24  27
ENDBRANCH  22  24
ENDBRANCH  17  20
ENDBRANCH  13  14
ENDBRANCH   8  13
BRANCH  10  38
HETATM   38  O   UNL     1      -8.556   9.030  63.960  1.00  0.00    -0.194 OA 
HETATM   39  C   UNL     1      -8.296  10.247  64.652  1.00  0.00    -0.169 C  
ENDBRANCH  10  38
ENDBRANCH   2   3
TORSDOF 8
ENDMDL
MODEL       88
REMARK 921   NORMALIZED FREE ENERGY PREDICTED BY IDOCK:   -4.22 KCAL/MOL
REMARK 922        TOTAL FREE ENERGY PREDICTED BY IDOCK:   -7.66 KCAL/MOL
REMARK 923 INTER-LIGAND FREE ENERGY PREDICTED BY IDOCK:   -6.34 KCAL/MOL
REMARK 924 INTRA-LIGAND FREE ENERGY PREDICTED BY IDOCK:   -1.33 KCAL/MOL
REMARK 927      BINDING AFFINITY PREDICTED BY RF-SCORE:    0.00 PKD
ROOT
HETATM    1  C   UNL     1     -12.680  15.670  70.237  1.00  0.00    -0.206 C  
HETATM    2  O   UNL     1     -12.019  16.025  69.028  1.00  0.00    -0.342 OA 
ENDROOT
BRANCH   2   3
HETATM    3  C   UNL     1     -10.794  15.458  68.793  1.00  0.00    -0.252 A  
HETATM    4  C   UNL     1      -9.597  16.004  69.274  1.00  0.00    -0.255 A  
HETATM    5  C   UNL     1      -8.357  15.455  68.990  1.00  0.00    -0.223 A  
HETATM    6  C   UNL     1      -8.292  14.273  68.234  1.00  0.00    -0.165 A  
HETATM    7  C   UNL     1      -9.495  13.682  67.789  1.00  0.00    -0.221 A  
HETATM    8  C   UNL     1      -7.004  13.771  67.949  1.00  0.00    -0.155 A  
HETATM    9  C   UNL     1      -5.871  14.432  68.417  1.00  0.00    -0.105 A  
HETATM   10  C   UNL     1     -10.735  14.290  68.022  1.00  0.00    -0.238 A  
HETATM   11  N   UNL     1      -7.268  16.099  69.438  1.00  0.00    -0.223 NA 
HETATM   12  C   UNL     1      -6.058  15.590  69.140  1.00  0.00    -0.110 A  
BRANCH   8  13
HETATM   13  O   UNL     1      -6.937  12.574  67.268  1.00  0.00    -0.149 OA 
BRANCH  13  14
HETATM   14  C   UNL     1      -7.457  11.427  67.817  1.00  0.00    -0.100 A  
HETATM   15  C   UNL     1      -8.182  10.624  66.940  1.00  0.00    -0.123 A  
HETATM   16  C   UNL     1      -8.692   9.395  67.365  1.00  0.00    -0.128 A  
HETATM   17  C   UNL     1      -8.481   8.953  68.672  1.00  0.00    -0.128 A  
HETATM   18  C   UNL     1      -7.234  10.990  69.120  1.00  0.00    -0.121 A  
HETATM   19  C   UNL     1      -7.768   9.770  69.555  1.00  0.00    -0.120 A  
BRANCH  17  20
HETATM   20  N   UNL     1      -8.947   7.708  69.150  1.00  0.00    -0.136 N  
HETATM   21  H   UNL     1      -9.877   7.691  69.570  1.00  0.00     0.000 HD 
HETATM   22  C   UNL     1      -8.260   6.515  69.102  1.00  0.00    -0.116 C  
HETATM   23  O   UNL     1      -7.123   6.319  68.705  1.00  0.00    -0.077 OA 
BRANCH  22  24
HETATM   24  C   UNL     1      -9.031   5.332  69.593  1.00  0.00    -0.133 C  
HETATM   25  C   UNL     1      -8.751   4.889  71.027  1.00  0.00    -0.143 C  
HETATM   26  C   UNL     1     -10.072   5.507  70.697  1.00  0.00    -0.288 C  
BRANCH  24  27
HETATM   27  C   UNL     1      -9.301   4.315  68.534  1.00  0.00    -0.151 C  
HETATM   28  O   UNL     1      -9.774   3.235  68.861  1.00  0.00    -0.098 OA 
HETATM   29  N   UNL     1      -8.974   4.719  67.254  1.00  0.00    -0.111 N  
HETATM   30  H   UNL     1      -8.518   5.623  67.131  1.00  0.00     0.000 HD 
BRANCH  29  31
HETATM   31  C   UNL     1      -9.240   3.944  66.111  1.00  0.00    -0.160 A  
HETATM   32  C   UNL     1      -8.431   2.858  65.756  1.00  0.00    -0.107 A  
HETATM   33  C   UNL     1      -8.677   2.153  64.578  1.00  0.00    -0.100 A  
HETATM   34  C   UNL     1      -9.716   2.555  63.749  1.00  0.00    -0.133 A  
HETATM   35  C   UNL     1     -10.547   3.611  64.107  1.00  0.00    -0.246 A  
HETATM   36  F   UNL     1      -9.916   1.920  62.587  1.00  0.00    -0.088 F  
HETATM   37  C   UNL     1     -10.333   4.286  65.311  1.00  0.00    -0.220 A  
ENDBRANCH  29  31
ENDBRANCH  24  27
ENDBRANCH  22  24
ENDBRANCH  17  20
ENDBRANCH  13  14
ENDBRANCH   8  13
BRANCH  10  38
HETATM   38  O   UNL     1     -11.798  13.613  67.481  1.00  0.00    -0.350 OA 
HETATM   39  C   UNL     1     -11.777  12.198  67.639  1.00  0.00    -0.316 C  
ENDBRANCH  10  38
ENDBRANCH   2   3
TORSDOF 8
ENDMDL
MODEL       89
REMARK 921   NORMALIZED FREE ENERGY PREDICTED BY IDOCK:   -4.07 KCAL/MOL
REMARK 922        TOTAL FREE ENERGY PREDICTED BY IDOCK:   -7.45 KCAL/MOL
REMARK 923 INTER-LIGAND FREE ENERGY PREDICTED BY IDOCK:   -6.17 KCAL/MOL
REMARK 924 INTRA-LIGAND FREE ENERGY PREDICTED BY IDOCK:   -1.28 KCAL/MOL
REMARK 927      BINDING AFFINITY PREDICTED BY RF-SCORE:    0.00 PKD
ROOT
HETATM    1  C   UNL     1     -10.805  18.281  64.865  1.00  0.00     1.562 C  
HETATM    2  O   UNL     1     -10.860  16.868  64.709  1.00  0.00    -0.787 OA 
ENDROOT
BRANCH   2   3
HETATM    3  C   UNL     1     -11.155  16.125  65.822  1.00  0.00     0.014 A  
HETATM    4  C   UNL     1     -10.975  16.601  67.126  1.00  0.00    -0.023 A  
HETATM    5  C   UNL     1     -11.226  15.827  68.247  1.00  0.00    -0.356 A  
HETATM    6  C   UNL     1     -11.733  14.528  68.078  1.00  0.00    -0.373 A  
HETATM    7  C   UNL     1     -11.972  14.054  66.769  1.00  0.00    -0.473 A  
HETATM    8  C   UNL     1     -11.946  13.771  69.251  1.00  0.00    -0.352 A  
HETATM    9  C   UNL     1     -11.666  14.316  70.501  1.00  0.00    -0.309 A  
HETATM   10  C   UNL     1     -11.642  14.823  65.646  1.00  0.00    -0.290 A  
HETATM   11  N   UNL     1     -10.949  16.355  69.449  1.00  0.00    -0.327 NA 
HETATM   12  C   UNL     1     -11.161  15.598  70.543  1.00  0.00    -0.362 A  
BRANCH   8  13
HETATM   13  O   UNL     1     -12.509  12.522  69.095  1.00  0.00     0.066 OA 
BRANCH  13  14
HETATM   14  C   UNL     1     -11.716  11.414  68.917  1.00  0.00    -0.343 A  
HETATM   15  C   UNL     1     -11.564  10.605  70.041  1.00  0.00    -0.406 A  
HETATM   16  C   UNL     1     -10.845   9.411  69.959  1.00  0.00    -0.271 A  
HETATM   17  C   UNL     1     -10.270   9.010  68.752  1.00  0.00    -0.208 A  
HETATM   18  C   UNL     1     -11.153  11.018  67.707  1.00  0.00    -0.356 A  
HETATM   19  C   UNL     1     -10.409   9.834  67.630  1.00  0.00    -0.281 A  
BRANCH  17  20
HETATM   20  N   UNL     1      -9.557   7.800  68.602  1.00  0.00    -0.152 N  
HETATM   21  H   UNL     1      -8.542   7.844  68.702  1.00  0.00     0.000 HD 
HETATM   22  C   UNL     1     -10.106   6.565  68.332  1.00  0.00    -0.160 C  
HETATM   23  O   UNL     1     -11.276   6.296  68.114  1.00  0.00    -0.327 OA 
BRANCH  22  24
HETATM   24  C   UNL     1      -9.126   5.436  68.321  1.00  0.00    -0.116 C  
HETATM   25  C   UNL     1      -9.435   4.281  67.373  1.00  0.00    -0.213 C  
HETATM   26  C   UNL     1      -8.276   5.178  67.079  1.00  0.00    -0.107 C  
BRANCH  24  27
HETATM   27  C   UNL     1      -8.513   5.168  69.656  1.00  0.00    -0.093 C  
HETATM   28  O   UNL     1      -8.511   6.061  70.493  1.00  0.00    -0.128 OA 
HETATM   29  N   UNL     1      -7.995   3.896  69.805  1.00  0.00    -0.054 N  
HETATM   30  H   UNL     1      -7.999   3.272  68.997  1.00  0.00     0.000 HD 
BRANCH  29  31
HETATM   31  C   UNL     1      -7.463   3.418  71.015  1.00  0.00    -0.037 A  
HETATM   32  C   UNL     1      -6.222   3.856  71.495  1.00  0.00    -0.014 A  
HETATM   33  C   UNL     1      -5.687   3.310  72.662  1.00  0.00    -0.008 A  
HETATM   34  C   UNL     1      -6.385   2.312  73.328  1.00  0.00    -0.013 A  
HETATM   35  C   UNL     1      -7.634   1.893  72.880  1.00  0.00    -0.033 A  
HETATM   36  F   UNL     1      -5.846   1.742  74.413  1.00  0.00    -0.003 F  
HETATM   37  C   UNL     1      -8.193   2.474  71.740  1.00  0.00    -0.060 A  
ENDBRANCH  29  31
ENDBRANCH  24  27
ENDBRANCH  22  24
ENDBRANCH  17  20
ENDBRANCH  13  14
ENDBRANCH   8  13
BRANCH  10  38
HETATM   38  O   UNL     1     -11.890  14.197  64.451  1.00  0.00    -0.415 OA 
HETATM   39  C   UNL     1     -11.459  12.843  64.360  1.00  0.00    -0.357 C  
ENDBRANCH  10  38
ENDBRANCH   2   3
TORSDOF 8
ENDMDL
MODEL       90
REMARK 921   NORMALIZED FREE ENERGY PREDICTED BY IDOCK:   -4.05 KCAL/MOL
REMARK 922        TOTAL FREE ENERGY PREDICTED BY IDOCK:   -7.41 KCAL/MOL
REMARK 923 INTER-LIGAND FREE ENERGY PREDICTED BY IDOCK:   -6.30 KCAL/MOL
REMARK 924 INTRA-LIGAND FREE ENERGY PREDICTED BY IDOCK:   -1.10 KCAL/MOL
REMARK 927      BINDING AFFINITY PREDICTED BY RF-SCORE:    0.00 PKD
ROOT
HETATM    1  C   UNL     1     -11.402  16.347  64.361  1.00  0.00    -0.027 C  
HETATM    2  O   UNL     1     -11.892  15.013  64.287  1.00  0.00    -0.380 OA 
ENDROOT
BRANCH   2   3
HETATM    3  C   UNL     1     -11.916  14.289  65.451  1.00  0.00    -0.383 A  
HETATM    4  C   UNL     1     -11.896  14.883  66.719  1.00  0.00    -0.187 A  
HETATM    5  C   UNL     1     -11.868  14.144  67.890  1.00  0.00    -0.370 A  
HETATM    6  C   UNL     1     -11.915  12.743  67.814  1.00  0.00    -0.316 A  
HETATM    7  C   UNL     1     -11.990  12.132  66.542  1.00  0.00    -0.198 A  
HETATM    8  C   UNL     1     -11.855  12.037  69.035  1.00  0.00    -0.315 A  
HETATM    9  C   UNL     1     -11.765  12.725  70.242  1.00  0.00    -0.188 A  
HETATM   10  C   UNL     1     -11.942  12.891  65.366  1.00  0.00    -0.426 A  
HETATM   11  N   UNL     1     -11.776  14.812  69.051  1.00  0.00    -0.299 NA 
HETATM   12  C   UNL     1     -11.716  14.102  70.193  1.00  0.00    -0.280 A  
BRANCH   8  13
HETATM   13  O   UNL     1     -11.972  10.664  68.970  1.00  0.00    -0.287 OA 
BRANCH  13  14
HETATM   14  C   UNL     1     -10.890   9.886  68.636  1.00  0.00    -0.209 A  
HETATM   15  C   UNL     1      -9.883   9.823  69.596  1.00  0.00    -0.241 A  
HETATM   16  C   UNL     1      -8.772   9.001  69.401  1.00  0.00    -0.142 A  
HETATM   17  C   UNL     1      -8.653   8.230  68.243  1.00  0.00    -0.133 A  
HETATM   18  C   UNL     1     -10.785   9.115  67.482  1.00  0.00    -0.255 A  
HETATM   19  C   UNL     1      -9.658   8.309  67.273  1.00  0.00    -0.215 A  
BRANCH  17  20
HETATM   20  N   UNL     1      -7.567   7.359  68.004  1.00  0.00    -0.112 N  
HETATM   21  H   UNL     1      -6.635   7.773  67.992  1.00  0.00     0.000 HD 
HETATM   22  C   UNL     1      -7.653   6.002  67.783  1.00  0.00    -0.096 C  
HETATM   23  O   UNL     1      -8.659   5.318  67.692  1.00  0.00    -0.106 OA 
BRANCH  22  24
HETATM   24  C   UNL     1      -6.335   5.308  67.654  1.00  0.00    -0.040 C  
HETATM   25  C   UNL     1      -5.858   5.020  66.233  1.00  0.00    -0.022 C  
HETATM   26  C   UNL     1      -5.142   6.046  67.051  1.00  0.00    -0.005 C  
BRANCH  24  27
HETATM   27  C   UNL     1      -6.069   4.326  68.746  1.00  0.00    -0.031 C  
HETATM   28  O   UNL     1      -5.143   3.535  68.615  1.00  0.00    -0.010 OA 
HETATM   29  N   UNL     1      -6.928   4.418  69.824  1.00  0.00    -0.041 N  
HETATM   30  H   UNL     1      -7.705   5.078  69.770  1.00  0.00     0.000 HD 
BRANCH  29  31
HETATM   31  C   UNL     1      -6.785   3.648  70.991  1.00  0.00    -0.032 A  
HETATM   32  C   UNL     1      -7.270   2.336  71.070  1.00  0.00    -0.033 A  
HETATM   33  C   UNL     1      -7.177   1.623  72.265  1.00  0.00    -0.030 A  
HETATM   34  C   UNL     1      -6.622   2.235  73.381  1.00  0.00    -0.018 A  
HETATM   35  C   UNL     1      -6.107   3.525  73.307  1.00  0.00    -0.011 A  
HETATM   36  F   UNL     1      -6.589   1.575  74.546  1.00  0.00    -0.013 F  
HETATM   37  C   UNL     1      -6.154   4.222  72.097  1.00  0.00    -0.020 A  
ENDBRANCH  29  31
ENDBRANCH  24  27
ENDBRANCH  22  24
ENDBRANCH  17  20
ENDBRANCH  13  14
ENDBRANCH   8  13
BRANCH  10  38
HETATM   38  O   UNL     1     -11.975  12.141  64.219  1.00  0.00    -0.380 OA 
HETATM   39  C   UNL     1     -10.737  12.010  63.528  1.00  0.00    -0.455 C  
ENDBRANCH  10  38
ENDBRANCH   2   3
TORSDOF 8
ENDMDL
MODEL       91
REMARK 921   NORMALIZED FREE ENERGY PREDICTED BY IDOCK:   -4.01 KCAL/MOL
REMARK 922        TOTAL FREE ENERGY PREDICTED BY IDOCK:   -7.35 KCAL/MOL
REMARK 923 INTER-LIGAND FREE ENERGY PREDICTED BY IDOCK:   -8.67 KCAL/MOL
REMARK 924 INTRA-LIGAND FREE ENERGY PREDICTED BY IDOCK:    1.32 KCAL/MOL
REMARK 927      BINDING AFFINITY PREDICTED BY RF-SCORE:    0.00 PKD
ROOT
HETATM    1  C   UNL     1     -11.026  12.961  63.892  1.00  0.00    -0.384 C  
HETATM    2  O   UNL     1     -10.107  13.284  64.929  1.00  0.00    -0.294 OA 
ENDROOT
BRANCH   2   3
HETATM    3  C   UNL     1     -10.626  13.518  66.176  1.00  0.00    -0.290 A  
HETATM    4  C   UNL     1     -10.381  14.695  66.895  1.00  0.00    -0.264 A  
HETATM    5  C   UNL     1     -10.866  14.903  68.176  1.00  0.00    -0.256 A  
HETATM    6  C   UNL     1     -11.680  13.921  68.764  1.00  0.00    -0.392 A  
HETATM    7  C   UNL     1     -11.980  12.753  68.029  1.00  0.00    -0.315 A  
HETATM    8  C   UNL     1     -12.125  14.170  70.081  1.00  0.00    -0.346 A  
HETATM    9  C   UNL     1     -11.764  15.345  70.736  1.00  0.00    -0.385 A  
HETATM   10  C   UNL     1     -11.421  12.526  66.765  1.00  0.00    -0.362 A  
HETATM   11  N   UNL     1     -10.511  16.034  68.804  1.00  0.00    -0.235 NA 
HETATM   12  C   UNL     1     -10.952  16.231  70.062  1.00  0.00    -0.355 A  
BRANCH   8  13
HETATM   13  O   UNL     1     -12.981  13.243  70.637  1.00  0.00    -0.105 OA 
BRANCH  13  14
HETATM   14  C   UNL     1     -12.584  11.940  70.812  1.00  0.00    -0.234 A  
HETATM   15  C   UNL     1     -11.425  11.575  70.130  1.00  0.00    -0.258 A  
HETATM   16  C   UNL     1     -10.883  10.299  70.293  1.00  0.00    -0.349 A  
HETATM   17  C   UNL     1     -11.489   9.372  71.142  1.00  0.00    -0.352 A  
HETATM   18  C   UNL     1     -13.191  11.026  71.667  1.00  0.00    -0.461 A  
HETATM   19  C   UNL     1     -12.662   9.736  71.812  1.00  0.00    -0.519 A  
BRANCH  17  20
HETATM   20  N   UNL     1     -10.971   8.078  71.369  1.00  0.00    -0.230 N  
HETATM   21  H   UNL     1     -11.357   7.318  70.808  1.00  0.00     0.000 HD 
HETATM   22  C   UNL     1      -9.991   7.748  72.280  1.00  0.00    -0.203 C  
HETATM   23  O   UNL     1      -9.441   8.478  73.089  1.00  0.00    -0.176 OA 
BRANCH  22  24
HETATM   24  C   UNL     1      -9.563   6.316  72.243  1.00  0.00    -0.159 C  
HETATM   25  C   UNL     1      -8.535   5.889  73.288  1.00  0.00    -0.118 C  
HETATM   26  C   UNL     1      -9.937   5.380  73.390  1.00  0.00    -0.188 C  
BRANCH  24  27
HETATM   27  C   UNL     1      -9.511   5.746  70.864  1.00  0.00    -0.165 C  
HETATM   28  O   UNL     1     -10.391   4.970  70.514  1.00  0.00    -0.254 OA 
HETATM   29  N   UNL     1      -8.437   6.171  70.106  1.00  0.00    -0.131 N  
HETATM   30  H   UNL     1      -7.736   6.765  70.549  1.00  0.00     0.000 HD 
BRANCH  29  31
HETATM   31  C   UNL     1      -8.262   5.824  68.755  1.00  0.00    -0.101 A  
HETATM   32  C   UNL     1      -8.988   6.453  67.736  1.00  0.00    -0.113 A  
HETATM   33  C   UNL     1      -8.845   6.039  66.412  1.00  0.00    -0.137 A  
HETATM   34  C   UNL     1      -7.996   4.979  66.119  1.00  0.00    -0.107 A  
HETATM   35  C   UNL     1      -7.245   4.368  67.118  1.00  0.00    -0.069 A  
HETATM   36  F   UNL     1      -7.905   4.537  64.858  1.00  0.00    -0.081 F  
HETATM   37  C   UNL     1      -7.349   4.816  68.437  1.00  0.00    -0.065 A  
ENDBRANCH  29  31
ENDBRANCH  24  27
ENDBRANCH  22  24
ENDBRANCH  17  20
ENDBRANCH  13  14
ENDBRANCH   8  13
BRANCH  10  38
HETATM   38  O   UNL     1     -11.773  11.323  66.209  1.00  0.00    -0.221 OA 
HETATM   39  C   UNL     1     -10.905  10.231  66.495  1.00  0.00     0.004 C  
ENDBRANCH  10  38
ENDBRANCH   2   3
TORSDOF 8
ENDMDL
MODEL       92
REMARK 921   NORMALIZED FREE ENERGY PREDICTED BY IDOCK:   -4.00 KCAL/MOL
REMARK 922        TOTAL FREE ENERGY PREDICTED BY IDOCK:   -7.34 KCAL/MOL
REMARK 923 INTER-LIGAND FREE ENERGY PREDICTED BY IDOCK:   -9.32 KCAL/MOL
REMARK 924 INTRA-LIGAND FREE ENERGY PREDICTED BY IDOCK:    1.97 KCAL/MOL
REMARK 927      BINDING AFFINITY PREDICTED BY RF-SCORE:    0.00 PKD
ROOT
HETATM    1  C   UNL     1     -12.410  16.222  73.533  1.00  0.00    -0.534 C  
HETATM    2  O   UNL     1     -12.517  15.064  72.712  1.00  0.00    -0.343 OA 
ENDROOT
BRANCH   2   3
HETATM    3  C   UNL     1     -11.983  15.138  71.452  1.00  0.00    -0.350 A  
HETATM    4  C   UNL     1     -11.294  16.263  70.981  1.00  0.00    -0.315 A  
HETATM    5  C   UNL     1     -10.802  16.352  69.689  1.00  0.00    -0.346 A  
HETATM    6  C   UNL     1     -10.949  15.253  68.826  1.00  0.00    -0.260 A  
HETATM    7  C   UNL     1     -11.593  14.091  69.306  1.00  0.00    -0.356 A  
HETATM    8  C   UNL     1     -10.455  15.406  67.513  1.00  0.00    -0.275 A  
HETATM    9  C   UNL     1      -9.847  16.597  67.123  1.00  0.00    -0.257 A  
HETATM   10  C   UNL     1     -12.150  14.046  70.590  1.00  0.00    -0.354 A  
HETATM   11  N   UNL     1     -10.222  17.504  69.316  1.00  0.00    -0.260 NA 
HETATM   12  C   UNL     1      -9.769  17.611  68.053  1.00  0.00    -0.301 A  
BRANCH   8  13
HETATM   13  O   UNL     1     -10.534  14.307  66.684  1.00  0.00    -0.273 OA 
BRANCH  13  14
HETATM   14  C   UNL     1     -10.658  13.043  67.208  1.00  0.00    -0.242 A  
HETATM   15  C   UNL     1      -9.505  12.526  67.794  1.00  0.00    -0.197 A  
HETATM   16  C   UNL     1      -9.533  11.283  68.429  1.00  0.00    -0.192 A  
HETATM   17  C   UNL     1     -10.713  10.541  68.488  1.00  0.00    -0.224 A  
HETATM   18  C   UNL     1     -11.842  12.314  67.269  1.00  0.00    -0.330 A  
HETATM   19  C   UNL     1     -11.865  11.055  67.882  1.00  0.00    -0.085 A  
BRANCH  17  20
HETATM   20  N   UNL     1     -10.809   9.291  69.140  1.00  0.00    -0.375 N  
HETATM   21  H   UNL     1     -10.731   8.457  68.558  1.00  0.00     0.000 HD 
HETATM   22  C   UNL     1     -10.998   9.097  70.491  1.00  0.00    -0.258 C  
HETATM   23  O   UNL     1     -11.177   9.942  71.353  1.00  0.00    -0.348 OA 
BRANCH  22  24
HETATM   24  C   UNL     1     -10.964   7.667  70.925  1.00  0.00    -0.261 C  
HETATM   25  C   UNL     1     -11.434   7.380  72.349  1.00  0.00    -0.343 C  
HETATM   26  C   UNL     1     -12.269   6.923  71.197  1.00  0.00    -0.428 C  
BRANCH  24  27
HETATM   27  C   UNL     1      -9.828   6.895  70.341  1.00  0.00    -0.179 C  
HETATM   28  O   UNL     1      -8.821   7.499  69.995  1.00  0.00    -0.142 OA 
HETATM   29  N   UNL     1     -10.044   5.533  70.250  1.00  0.00    -0.217 N  
HETATM   30  H   UNL     1     -10.962   5.170  70.509  1.00  0.00     0.000 HD 
BRANCH  29  31
HETATM   31  C   UNL     1      -9.063   4.624  69.818  1.00  0.00    -0.108 A  
HETATM   32  C   UNL     1      -7.946   4.319  70.606  1.00  0.00    -0.063 A  
HETATM   33  C   UNL     1      -6.954   3.468  70.121  1.00  0.00    -0.034 A  
HETATM   34  C   UNL     1      -7.072   2.948  68.839  1.00  0.00    -0.048 A  
HETATM   35  C   UNL     1      -8.191   3.217  68.059  1.00  0.00    -0.088 A  
HETATM   36  F   UNL     1      -6.091   2.182  68.345  1.00  0.00    -0.022 F  
HETATM   37  C   UNL     1      -9.210   4.028  68.563  1.00  0.00    -0.206 A  
ENDBRANCH  29  31
ENDBRANCH  24  27
ENDBRANCH  22  24
ENDBRANCH  17  20
ENDBRANCH  13  14
ENDBRANCH   8  13
BRANCH  10  38
HETATM   38  O   UNL     1     -12.783  12.865  70.881  1.00  0.00    -0.296 OA 
HETATM   39  C   UNL     1     -13.655  12.889  72.006  1.00  0.00    -0.408 C  
ENDBRANCH  10  38
ENDBRANCH   2   3
TORSDOF 8
ENDMDL
MODEL       93
REMARK 921   NORMALIZED FREE ENERGY PREDICTED BY IDOCK:   -3.93 KCAL/MOL
REMARK 922        TOTAL FREE ENERGY PREDICTED BY IDOCK:   -7.24 KCAL/MOL
REMARK 923 INTER-LIGAND FREE ENERGY PREDICTED BY IDOCK:   -7.23 KCAL/MOL
REMARK 924 INTRA-LIGAND FREE ENERGY PREDICTED BY IDOCK:   -0.01 KCAL/MOL
REMARK 927      BINDING AFFINITY PREDICTED BY RF-SCORE:    0.00 PKD
ROOT
HETATM    1  C   UNL     1     -12.998  15.250  69.637  1.00  0.00     0.339 C  
HETATM    2  O   UNL     1     -12.280  15.716  68.499  1.00  0.00    -0.130 OA 
ENDROOT
BRANCH   2   3
HETATM    3  C   UNL     1     -11.783  14.769  67.642  1.00  0.00    -0.341 A  
HETATM    4  C   UNL     1     -12.272  14.587  66.342  1.00  0.00    -0.274 A  
HETATM    5  C   UNL     1     -11.801  13.594  65.498  1.00  0.00    -0.362 A  
HETATM    6  C   UNL     1     -10.753  12.767  65.937  1.00  0.00    -0.294 A  
HETATM    7  C   UNL     1     -10.214  12.976  67.226  1.00  0.00    -0.239 A  
HETATM    8  C   UNL     1     -10.329  11.754  65.050  1.00  0.00    -0.281 A  
HETATM    9  C   UNL     1     -10.933  11.612  63.803  1.00  0.00    -0.495 A  
HETATM   10  C   UNL     1     -10.752  13.935  68.093  1.00  0.00    -0.250 A  
HETATM   11  N   UNL     1     -12.389  13.458  64.300  1.00  0.00    -0.595 NA 
HETATM   12  C   UNL     1     -11.958  12.476  63.485  1.00  0.00    -0.543 A  
BRANCH   8  13
HETATM   13  O   UNL     1      -9.256  10.985  65.447  1.00  0.00    -0.203 OA 
BRANCH  13  14
HETATM   14  C   UNL     1      -9.362  10.137  66.522  1.00  0.00    -0.164 A  
HETATM   15  C   UNL     1      -8.448  10.360  67.549  1.00  0.00    -0.115 A  
HETATM   16  C   UNL     1      -8.511   9.610  68.725  1.00  0.00    -0.123 A  
HETATM   17  C   UNL     1      -9.490   8.630  68.891  1.00  0.00    -0.146 A  
HETATM   18  C   UNL     1     -10.348   9.167  66.682  1.00  0.00    -0.289 A  
HETATM   19  C   UNL     1     -10.396   8.396  67.851  1.00  0.00    -0.279 A  
BRANCH  17  20
HETATM   20  N   UNL     1      -9.621   7.861  70.069  1.00  0.00    -0.168 N  
HETATM   21  H   UNL     1      -8.919   8.002  70.795  1.00  0.00     0.000 HD 
HETATM   22  C   UNL     1     -10.611   6.937  70.326  1.00  0.00    -0.218 C  
HETATM   23  O   UNL     1     -11.505   6.569  69.582  1.00  0.00    -0.382 OA 
BRANCH  22  24
HETATM   24  C   UNL     1     -10.563   6.338  71.695  1.00  0.00    -0.271 C  
HETATM   25  C   UNL     1     -11.121   7.194  72.829  1.00  0.00    -0.339 C  
HETATM   26  C   UNL     1     -11.861   5.965  72.408  1.00  0.00    -0.263 C  
BRANCH  24  27
HETATM   27  C   UNL     1      -9.366   5.476  71.925  1.00  0.00    -0.144 C  
HETATM   28  O   UNL     1      -8.476   5.467  71.085  1.00  0.00    -0.122 OA 
HETATM   29  N   UNL     1      -9.394   4.756  73.104  1.00  0.00    -0.121 N  
HETATM   30  H   UNL     1     -10.235   4.802  73.681  1.00  0.00     0.000 HD 
BRANCH  29  31
HETATM   31  C   UNL     1      -8.322   3.962  73.548  1.00  0.00    -0.088 A  
HETATM   32  C   UNL     1      -7.131   4.532  74.014  1.00  0.00    -0.072 A  
HETATM   33  C   UNL     1      -6.059   3.718  74.381  1.00  0.00    -0.021 A  
HETATM   34  C   UNL     1      -6.177   2.340  74.254  1.00  0.00    -0.008 A  
HETATM   35  C   UNL     1      -7.366   1.761  73.824  1.00  0.00    -0.028 A  
HETATM   36  F   UNL     1      -5.128   1.560  74.545  1.00  0.00     0.000 F  
HETATM   37  C   UNL     1      -8.457   2.572  73.505  1.00  0.00    -0.064 A  
ENDBRANCH  29  31
ENDBRANCH  24  27
ENDBRANCH  22  24
ENDBRANCH  17  20
ENDBRANCH  13  14
ENDBRANCH   8  13
BRANCH  10  38
HETATM   38  O   UNL     1     -10.146  13.975  69.323  1.00  0.00    -0.041 OA 
HETATM   39  C   UNL     1      -9.453  15.180  69.633  1.00  0.00    -0.095 C  
ENDBRANCH  10  38
ENDBRANCH   2   3
TORSDOF 8
ENDMDL
MODEL       94
REMARK 921   NORMALIZED FREE ENERGY PREDICTED BY IDOCK:   -3.93 KCAL/MOL
REMARK 922        TOTAL FREE ENERGY PREDICTED BY IDOCK:   -7.23 KCAL/MOL
REMARK 923 INTER-LIGAND FREE ENERGY PREDICTED BY IDOCK:   -5.92 KCAL/MOL
REMARK 924 INTRA-LIGAND FREE ENERGY PREDICTED BY IDOCK:   -1.31 KCAL/MOL
REMARK 927      BINDING AFFINITY PREDICTED BY RF-SCORE:    0.00 PKD
ROOT
HETATM    1  C   UNL     1      -5.778  17.456  70.623  1.00  0.00     0.044 C  
HETATM    2  O   UNL     1      -6.311  17.858  69.366  1.00  0.00    -0.239 OA 
ENDROOT
BRANCH   2   3
HETATM    3  C   UNL     1      -7.208  17.012  68.767  1.00  0.00    -0.226 A  
HETATM    4  C   UNL     1      -8.593  17.217  68.805  1.00  0.00    -0.230 A  
HETATM    5  C   UNL     1      -9.496  16.331  68.242  1.00  0.00    -0.214 A  
HETATM    6  C   UNL     1      -9.010  15.206  67.556  1.00  0.00    -0.187 A  
HETATM    7  C   UNL     1      -7.613  15.015  67.463  1.00  0.00    -0.216 A  
HETATM    8  C   UNL     1      -9.972  14.319  67.026  1.00  0.00    -0.258 A  
HETATM    9  C   UNL     1     -11.331  14.581  67.182  1.00  0.00    -0.361 A  
HETATM   10  C   UNL     1      -6.717  15.881  68.101  1.00  0.00    -0.123 A  
HETATM   11  N   UNL     1     -10.805  16.584  68.400  1.00  0.00    -0.335 NA 
HETATM   12  C   UNL     1     -11.691  15.711  67.883  1.00  0.00    -0.090 A  
BRANCH   8  13
HETATM   13  O   UNL     1      -9.501  13.252  66.292  1.00  0.00    -0.254 OA 
BRANCH  13  14
HETATM   14  C   UNL     1      -9.514  11.982  66.817  1.00  0.00    -0.208 A  
HETATM   15  C   UNL     1      -9.212  10.963  65.916  1.00  0.00    -0.214 A  
HETATM   16  C   UNL     1      -9.118   9.640  66.353  1.00  0.00    -0.191 A  
HETATM   17  C   UNL     1      -9.323   9.319  67.696  1.00  0.00    -0.128 A  
HETATM   18  C   UNL     1      -9.712  11.673  68.159  1.00  0.00    -0.189 A  
HETATM   19  C   UNL     1      -9.644  10.343  68.594  1.00  0.00    -0.166 A  
BRANCH  17  20
HETATM   20  N   UNL     1      -9.214   8.005  68.200  1.00  0.00    -0.134 N  
HETATM   21  H   UNL     1      -8.337   7.755  68.659  1.00  0.00     0.000 HD 
HETATM   22  C   UNL     1     -10.183   7.028  68.129  1.00  0.00    -0.181 C  
HETATM   23  O   UNL     1     -11.269   7.087  67.577  1.00  0.00    -0.198 OA 
BRANCH  22  24
HETATM   24  C   UNL     1      -9.836   5.755  68.833  1.00  0.00    -0.191 C  
HETATM   25  C   UNL     1      -9.243   5.894  70.232  1.00  0.00    -0.170 C  
HETATM   26  C   UNL     1     -10.620   5.333  70.074  1.00  0.00    -0.300 C  
BRANCH  24  27
HETATM   27  C   UNL     1      -9.350   4.682  67.916  1.00  0.00    -0.134 C  
HETATM   28  O   UNL     1      -9.787   3.546  68.054  1.00  0.00    -0.082 OA 
HETATM   29  N   UNL     1      -8.426   5.101  66.978  1.00  0.00    -0.107 N  
HETATM   30  H   UNL     1      -8.094   6.065  67.022  1.00  0.00     0.000 HD 
BRANCH  29  31
HETATM   31  C   UNL     1      -7.921   4.266  65.967  1.00  0.00    -0.098 A  
HETATM   32  C   UNL     1      -8.563   4.141  64.728  1.00  0.00    -0.119 A  
HETATM   33  C   UNL     1      -8.077   3.251  63.771  1.00  0.00    -0.085 A  
HETATM   34  C   UNL     1      -6.968   2.471  64.069  1.00  0.00    -0.040 A  
HETATM   35  C   UNL     1      -6.302   2.609  65.282  1.00  0.00    -0.024 A  
HETATM   36  F   UNL     1      -6.537   1.570  63.177  1.00  0.00    -0.012 F  
HETATM   37  C   UNL     1      -6.757   3.537  66.222  1.00  0.00    -0.049 A  
ENDBRANCH  29  31
ENDBRANCH  24  27
ENDBRANCH  22  24
ENDBRANCH  17  20
ENDBRANCH  13  14
ENDBRANCH   8  13
BRANCH  10  38
HETATM   38  O   UNL     1      -5.400  15.526  67.953  1.00  0.00    -0.121 OA 
HETATM   39  C   UNL     1      -5.128  14.129  67.977  1.00  0.00    -0.095 C  
ENDBRANCH  10  38
ENDBRANCH   2   3
TORSDOF 8
ENDMDL
MODEL       95
REMARK 921   NORMALIZED FREE ENERGY PREDICTED BY IDOCK:   -3.90 KCAL/MOL
REMARK 922        TOTAL FREE ENERGY PREDICTED BY IDOCK:   -7.20 KCAL/MOL
REMARK 923 INTER-LIGAND FREE ENERGY PREDICTED BY IDOCK:   -7.85 KCAL/MOL
REMARK 924 INTRA-LIGAND FREE ENERGY PREDICTED BY IDOCK:    0.65 KCAL/MOL
REMARK 927      BINDING AFFINITY PREDICTED BY RF-SCORE:    0.00 PKD
ROOT
HETATM    1  C   UNL     1      -5.125  11.142  68.702  1.00  0.00    -0.040 C  
HETATM    2  O   UNL     1      -5.204   9.828  69.243  1.00  0.00    -0.036 OA 
ENDROOT
BRANCH   2   3
HETATM    3  C   UNL     1      -6.360   9.487  69.895  1.00  0.00    -0.050 A  
HETATM    4  C   UNL     1      -6.414   9.242  71.273  1.00  0.00    -0.066 A  
HETATM    5  C   UNL     1      -7.574   8.846  71.918  1.00  0.00     0.079 A  
HETATM    6  C   UNL     1      -8.762   8.736  71.176  1.00  0.00    -0.265 A  
HETATM    7  C   UNL     1      -8.733   9.033  69.796  1.00  0.00    -0.148 A  
HETATM    8  C   UNL     1      -9.910   8.302  71.875  1.00  0.00    -0.232 A  
HETATM    9  C   UNL     1      -9.839   8.016  73.236  1.00  0.00    -0.281 A  
HETATM   10  C   UNL     1      -7.537   9.358  69.146  1.00  0.00    -0.074 A  
HETATM   11  N   UNL     1      -7.500   8.566  73.228  1.00  0.00    -0.344 NA 
HETATM   12  C   UNL     1      -8.616   8.151  73.857  1.00  0.00    -0.222 A  
BRANCH   8  13
HETATM   13  O   UNL     1     -11.093   8.259  71.168  1.00  0.00    -0.239 OA 
BRANCH  13  14
HETATM   14  C   UNL     1     -11.376   9.213  70.221  1.00  0.00    -0.188 A  
HETATM   15  C   UNL     1     -11.701  10.471  70.722  1.00  0.00    -0.454 A  
HETATM   16  C   UNL     1     -11.931  11.540  69.854  1.00  0.00    -0.426 A  
HETATM   17  C   UNL     1     -11.839  11.365  68.472  1.00  0.00    -0.294 A  
HETATM   18  C   UNL     1     -11.274   9.031  68.845  1.00  0.00     0.253 A  
HETATM   19  C   UNL     1     -11.531  10.096  67.971  1.00  0.00     0.007 A  
BRANCH  17  20
HETATM   20  N   UNL     1     -12.034  12.414  67.546  1.00  0.00    -0.280 N  
HETATM   21  H   UNL     1     -12.930  12.900  67.578  1.00  0.00     0.000 HD 
HETATM   22  C   UNL     1     -11.123  12.840  66.605  1.00  0.00    -0.276 C  
HETATM   23  O   UNL     1     -10.027  12.366  66.352  1.00  0.00    -0.231 OA 
BRANCH  22  24
HETATM   24  C   UNL     1     -11.554  14.036  65.818  1.00  0.00    -0.339 C  
HETATM   25  C   UNL     1     -12.276  13.757  64.503  1.00  0.00    -0.441 C  
HETATM   26  C   UNL     1     -13.041  14.339  65.647  1.00  0.00    -0.045 C  
BRANCH  24  27
HETATM   27  C   UNL     1     -10.613  15.190  65.926  1.00  0.00    -0.337 C  
HETATM   28  O   UNL     1     -10.048  15.586  64.914  1.00  0.00    -0.351 OA 
HETATM   29  N   UNL     1     -10.475  15.702  67.201  1.00  0.00    -0.297 N  
HETATM   30  H   UNL     1     -10.951  15.227  67.969  1.00  0.00     0.000 HD 
BRANCH  29  31
HETATM   31  C   UNL     1      -9.711  16.846  67.494  1.00  0.00    -0.249 A  
HETATM   32  C   UNL     1     -10.134  18.127  67.117  1.00  0.00    -0.358 A  
HETATM   33  C   UNL     1      -9.321  19.235  67.358  1.00  0.00    -0.368 A  
HETATM   34  C   UNL     1      -8.079  19.050  67.951  1.00  0.00    -0.278 A  
HETATM   35  C   UNL     1      -7.663  17.788  68.361  1.00  0.00    -0.278 A  
HETATM   36  F   UNL     1      -7.270  20.103  68.127  1.00  0.00    -0.306 F  
HETATM   37  C   UNL     1      -8.497  16.685  68.166  1.00  0.00    -0.198 A  
ENDBRANCH  29  31
ENDBRANCH  24  27
ENDBRANCH  22  24
ENDBRANCH  17  20
ENDBRANCH  13  14
ENDBRANCH   8  13
BRANCH  10  38
HETATM   38  O   UNL     1      -7.674   9.568  67.798  1.00  0.00    -0.088 OA 
HETATM   39  C   UNL     1      -8.247   8.494  67.059  1.00  0.00    -0.107 C  
ENDBRANCH  10  38
ENDBRANCH   2   3
TORSDOF 8
ENDMDL
MODEL       96
REMARK 921   NORMALIZED FREE ENERGY PREDICTED BY IDOCK:   -3.90 KCAL/MOL
REMARK 922        TOTAL FREE ENERGY PREDICTED BY IDOCK:   -7.19 KCAL/MOL
REMARK 923 INTER-LIGAND FREE ENERGY PREDICTED BY IDOCK:   -6.05 KCAL/MOL
REMARK 924 INTRA-LIGAND FREE ENERGY PREDICTED BY IDOCK:   -1.14 KCAL/MOL
REMARK 927      BINDING AFFINITY PREDICTED BY RF-SCORE:    0.00 PKD
ROOT
HETATM    1  C   UNL     1     -11.139   1.867  73.591  1.00  0.00    -0.183 C  
HETATM    2  O   UNL     1      -9.954   1.513  72.886  1.00  0.00    -0.085 OA 
ENDROOT
BRANCH   2   3
HETATM    3  C   UNL     1      -9.364   2.486  72.123  1.00  0.00    -0.098 A  
HETATM    4  C   UNL     1      -9.418   2.495  70.724  1.00  0.00    -0.210 A  
HETATM    5  C   UNL     1      -8.775   3.452  69.956  1.00  0.00    -0.072 A  
HETATM    6  C   UNL     1      -8.083   4.491  70.601  1.00  0.00    -0.074 A  
HETATM    7  C   UNL     1      -8.067   4.525  72.013  1.00  0.00    -0.100 A  
HETATM    8  C   UNL     1      -7.422   5.425  69.774  1.00  0.00    -0.066 A  
HETATM    9  C   UNL     1      -7.480   5.301  68.388  1.00  0.00    -0.075 A  
HETATM   10  C   UNL     1      -8.659   3.508  72.773  1.00  0.00    -0.086 A  
HETATM   11  N   UNL     1      -8.829   3.326  68.621  1.00  0.00    -0.103 NA 
HETATM   12  C   UNL     1      -8.181   4.235  67.868  1.00  0.00    -0.094 A  
BRANCH   8  13
HETATM   13  O   UNL     1      -6.802   6.485  70.400  1.00  0.00    -0.058 OA 
BRANCH  13  14
HETATM   14  C   UNL     1      -7.140   7.778  70.085  1.00  0.00    -0.054 A  
HETATM   15  C   UNL     1      -6.225   8.454  69.281  1.00  0.00    -0.038 A  
HETATM   16  C   UNL     1      -6.499   9.747  68.833  1.00  0.00    -0.045 A  
HETATM   17  C   UNL     1      -7.693  10.382  69.181  1.00  0.00    -0.126 A  
HETATM   18  C   UNL     1      -8.337   8.399  70.431  1.00  0.00    -0.121 A  
HETATM   19  C   UNL     1      -8.602   9.707  70.003  1.00  0.00    -0.237 A  
BRANCH  17  20
HETATM   20  N   UNL     1      -8.038  11.677  68.734  1.00  0.00    -0.296 N  
HETATM   21  H   UNL     1      -8.924  11.776  68.239  1.00  0.00     0.000 HD 
HETATM   22  C   UNL     1      -7.285  12.818  68.906  1.00  0.00    -0.039 C  
HETATM   23  O   UNL     1      -6.177  12.918  69.407  1.00  0.00    -0.101 OA 
BRANCH  22  24
HETATM   24  C   UNL     1      -7.936  14.072  68.417  1.00  0.00    -0.143 C  
HETATM   25  C   UNL     1      -7.805  15.298  69.317  1.00  0.00    -0.221 C  
HETATM   26  C   UNL     1      -7.077  15.268  68.012  1.00  0.00    -0.139 C  
BRANCH  24  27
HETATM   27  C   UNL     1      -9.199  13.831  67.659  1.00  0.00    -0.207 C  
HETATM   28  O   UNL     1     -10.269  14.059  68.210  1.00  0.00    -0.235 OA 
HETATM   29  N   UNL     1      -9.018  13.358  66.374  1.00  0.00    -0.460 N  
HETATM   30  H   UNL     1      -8.069  13.143  66.066  1.00  0.00     0.000 HD 
BRANCH  29  31
HETATM   31  C   UNL     1     -10.075  13.160  65.469  1.00  0.00    -0.261 A  
HETATM   32  C   UNL     1     -10.715  14.235  64.840  1.00  0.00    -0.448 A  
HETATM   33  C   UNL     1     -11.807  14.010  64.002  1.00  0.00    -0.339 A  
HETATM   34  C   UNL     1     -12.269  12.714  63.820  1.00  0.00    -0.514 A  
HETATM   35  C   UNL     1     -11.622  11.635  64.413  1.00  0.00    -0.270 A  
HETATM   36  F   UNL     1     -13.356  12.501  63.067  1.00  0.00     0.023 F  
HETATM   37  C   UNL     1     -10.497  11.853  65.211  1.00  0.00    -0.317 A  
ENDBRANCH  29  31
ENDBRANCH  24  27
ENDBRANCH  22  24
ENDBRANCH  17  20
ENDBRANCH  13  14
ENDBRANCH   8  13
BRANCH  10  38
HETATM   38  O   UNL     1      -8.510   3.666  74.127  1.00  0.00    -0.085 OA 
HETATM   39  C   UNL     1      -7.228   4.110  74.561  1.00  0.00    -0.070 C  
ENDBRANCH  10  38
ENDBRANCH   2   3
TORSDOF 8
ENDMDL
MODEL       97
REMARK 921   NORMALIZED FREE ENERGY PREDICTED BY IDOCK:   -3.87 KCAL/MOL
REMARK 922        TOTAL FREE ENERGY PREDICTED BY IDOCK:   -7.15 KCAL/MOL
REMARK 923 INTER-LIGAND FREE ENERGY PREDICTED BY IDOCK:   -6.00 KCAL/MOL
REMARK 924 INTRA-LIGAND FREE ENERGY PREDICTED BY IDOCK:   -1.15 KCAL/MOL
REMARK 927      BINDING AFFINITY PREDICTED BY RF-SCORE:    0.00 PKD
ROOT
HETATM    1  C   UNL     1     -12.772  15.335  63.869  1.00  0.00     0.746 C  
HETATM    2  O   UNL     1     -12.803  14.403  64.944  1.00  0.00    -0.645 OA 
ENDROOT
BRANCH   2   3
HETATM    3  C   UNL     1     -11.649  14.238  65.664  1.00  0.00    -0.346 A  
HETATM    4  C   UNL     1     -11.443  14.827  66.919  1.00  0.00    -0.354 A  
HETATM    5  C   UNL     1     -10.254  14.699  67.618  1.00  0.00    -0.232 A  
HETATM    6  C   UNL     1      -9.228  13.906  67.080  1.00  0.00    -0.257 A  
HETATM    7  C   UNL     1      -9.443  13.262  65.841  1.00  0.00    -0.045 A  
HETATM    8  C   UNL     1      -8.027  13.832  67.819  1.00  0.00    -0.169 A  
HETATM    9  C   UNL     1      -7.900  14.516  69.025  1.00  0.00    -0.106 A  
HETATM   10  C   UNL     1     -10.621  13.462  65.112  1.00  0.00    -0.343 A  
HETATM   11  N   UNL     1     -10.135  15.364  68.778  1.00  0.00    -0.206 NA 
HETATM   12  C   UNL     1      -8.971  15.272  69.450  1.00  0.00    -0.225 A  
BRANCH   8  13
HETATM   13  O   UNL     1      -7.043  12.999  67.330  1.00  0.00    -0.157 OA 
BRANCH  13  14
HETATM   14  C   UNL     1      -7.240  11.641  67.275  1.00  0.00    -0.137 A  
HETATM   15  C   UNL     1      -7.849  11.082  68.396  1.00  0.00    -0.127 A  
HETATM   16  C   UNL     1      -8.171   9.724  68.421  1.00  0.00    -0.105 A  
HETATM   17  C   UNL     1      -7.890   8.907  67.325  1.00  0.00    -0.096 A  
HETATM   18  C   UNL     1      -6.963  10.836  66.174  1.00  0.00    -0.124 A  
HETATM   19  C   UNL     1      -7.262   9.468  66.208  1.00  0.00    -0.093 A  
BRANCH  17  20
HETATM   20  N   UNL     1      -8.218   7.533  67.281  1.00  0.00    -0.114 N  
HETATM   21  H   UNL     1      -9.079   7.277  66.799  1.00  0.00     0.000 HD 
HETATM   22  C   UNL     1      -7.480   6.508  67.832  1.00  0.00    -0.094 C  
HETATM   23  O   UNL     1      -6.462   6.591  68.500  1.00  0.00    -0.045 OA 
BRANCH  22  24
HETATM   24  C   UNL     1      -8.011   5.139  67.552  1.00  0.00    -0.100 C  
HETATM   25  C   UNL     1      -8.228   4.783  66.084  1.00  0.00    -0.107 C  
HETATM   26  C   UNL     1      -7.131   4.111  66.845  1.00  0.00    -0.067 C  
BRANCH  24  27
HETATM   27  C   UNL     1      -8.964   4.647  68.591  1.00  0.00    -0.109 C  
HETATM   28  O   UNL     1     -10.087   4.305  68.244  1.00  0.00    -0.021 OA 
HETATM   29  N   UNL     1      -8.457   4.631  69.875  1.00  0.00    -0.073 N  
HETATM   30  H   UNL     1      -7.524   5.013  70.033  1.00  0.00     0.000 HD 
BRANCH  29  31
HETATM   31  C   UNL     1      -9.162   4.114  70.976  1.00  0.00    -0.135 A  
HETATM   32  C   UNL     1      -9.364   2.737  71.138  1.00  0.00    -0.211 A  
HETATM   33  C   UNL     1     -10.129   2.259  72.202  1.00  0.00    -0.223 A  
HETATM   34  C   UNL     1     -10.708   3.162  73.083  1.00  0.00    -0.161 A  
HETATM   35  C   UNL     1     -10.488   4.530  72.952  1.00  0.00    -0.254 A  
HETATM   36  F   UNL     1     -11.495   2.710  74.068  1.00  0.00    -0.259 F  
HETATM   37  C   UNL     1      -9.680   5.007  71.917  1.00  0.00    -0.212 A  
ENDBRANCH  29  31
ENDBRANCH  24  27
ENDBRANCH  22  24
ENDBRANCH  17  20
ENDBRANCH  13  14
ENDBRANCH   8  13
BRANCH  10  38
HETATM   38  O   UNL     1     -10.649  12.806  63.908  1.00  0.00    -0.414 OA 
HETATM   39  C   UNL     1     -10.311  11.423  63.949  1.00  0.00    -0.379 C  
ENDBRANCH  10  38
ENDBRANCH   2   3
TORSDOF 8
ENDMDL
MODEL       98
REMARK 921   NORMALIZED FREE ENERGY PREDICTED BY IDOCK:   -3.85 KCAL/MOL
REMARK 922        TOTAL FREE ENERGY PREDICTED BY IDOCK:   -7.12 KCAL/MOL
REMARK 923 INTER-LIGAND FREE ENERGY PREDICTED BY IDOCK:   -6.74 KCAL/MOL
REMARK 924 INTRA-LIGAND FREE ENERGY PREDICTED BY IDOCK:   -0.39 KCAL/MOL
REMARK 927      BINDING AFFINITY PREDICTED BY RF-SCORE:    0.00 PKD
ROOT
HETATM    1  C   UNL     1      -8.333   5.130  73.274  1.00  0.00    -0.111 C  
HETATM    2  O   UNL     1      -7.281   5.813  72.601  1.00  0.00    -0.087 OA 
ENDROOT
BRANCH   2   3
HETATM    3  C   UNL     1      -7.312   5.819  71.231  1.00  0.00    -0.079 A  
HETATM    4  C   UNL     1      -6.238   5.387  70.443  1.00  0.00    -0.023 A  
HETATM    5  C   UNL     1      -6.256   5.445  69.059  1.00  0.00    -0.033 A  
HETATM    6  C   UNL     1      -7.416   5.902  68.411  1.00  0.00    -0.086 A  
HETATM    7  C   UNL     1      -8.526   6.288  69.193  1.00  0.00    -0.120 A  
HETATM    8  C   UNL     1      -7.372   5.967  67.001  1.00  0.00    -0.076 A  
HETATM    9  C   UNL     1      -6.224   5.580  66.314  1.00  0.00    -0.034 A  
HETATM   10  C   UNL     1      -8.464   6.295  70.592  1.00  0.00    -0.134 A  
HETATM   11  N   UNL     1      -5.146   5.076  68.401  1.00  0.00     0.000 NA 
HETATM   12  C   UNL     1      -5.144   5.157  67.057  1.00  0.00    -0.004 A  
BRANCH   8  13
HETATM   13  O   UNL     1      -8.530   6.348  66.357  1.00  0.00    -0.114 OA 
BRANCH  13  14
HETATM   14  C   UNL     1      -9.045   7.609  66.533  1.00  0.00    -0.167 A  
HETATM   15  C   UNL     1      -8.194   8.654  66.181  1.00  0.00    -0.121 A  
HETATM   16  C   UNL     1      -8.637   9.977  66.242  1.00  0.00    -0.137 A  
HETATM   17  C   UNL     1      -9.937  10.273  66.655  1.00  0.00    -0.216 A  
HETATM   18  C   UNL     1     -10.346   7.893  66.938  1.00  0.00    -0.400 A  
HETATM   19  C   UNL     1     -10.783   9.222  67.025  1.00  0.00    -0.199 A  
BRANCH  17  20
HETATM   20  N   UNL     1     -10.449  11.588  66.711  1.00  0.00    -0.230 N  
HETATM   21  H   UNL     1     -10.726  11.940  67.627  1.00  0.00     0.000 HD 
HETATM   22  C   UNL     1     -10.610  12.438  65.639  1.00  0.00    -0.265 C  
HETATM   23  O   UNL     1     -10.405  12.205  64.458  1.00  0.00    -0.279 OA 
BRANCH  22  24
HETATM   24  C   UNL     1     -11.084  13.810  65.998  1.00  0.00    -0.291 C  
HETATM   25  C   UNL     1     -12.539  14.132  65.666  1.00  0.00    -0.495 C  
HETATM   26  C   UNL     1     -12.129  13.990  67.097  1.00  0.00    -0.436 C  
BRANCH  24  27
HETATM   27  C   UNL     1     -10.033  14.860  65.853  1.00  0.00    -0.331 C  
HETATM   28  O   UNL     1      -9.879  15.393  64.762  1.00  0.00    -0.153 OA 
HETATM   29  N   UNL     1      -9.322  15.124  67.008  1.00  0.00    -0.220 N  
HETATM   30  H   UNL     1      -9.505  14.552  67.832  1.00  0.00     0.000 HD 
BRANCH  29  31
HETATM   31  C   UNL     1      -8.357  16.143  67.102  1.00  0.00    -0.197 A  
HETATM   32  C   UNL     1      -7.024  15.864  67.430  1.00  0.00    -0.233 A  
HETATM   33  C   UNL     1      -6.107  16.903  67.586  1.00  0.00    -0.161 A  
HETATM   34  C   UNL     1      -6.534  18.215  67.438  1.00  0.00    -0.177 A  
HETATM   35  C   UNL     1      -7.847  18.504  67.080  1.00  0.00    -0.236 A  
HETATM   36  F   UNL     1      -5.671  19.217  67.650  1.00  0.00    -0.182 F  
HETATM   37  C   UNL     1      -8.755  17.463  66.874  1.00  0.00    -0.265 A  
ENDBRANCH  29  31
ENDBRANCH  24  27
ENDBRANCH  22  24
ENDBRANCH  17  20
ENDBRANCH  13  14
ENDBRANCH   8  13
BRANCH  10  38
HETATM   38  O   UNL     1      -9.609   6.745  71.197  1.00  0.00    -0.173 OA 
HETATM   39  C   UNL     1     -10.819   6.521  70.480  1.00  0.00    -0.271 C  
ENDBRANCH  10  38
ENDBRANCH   2   3
TORSDOF 8
ENDMDL
MODEL       99
REMARK 921   NORMALIZED FREE ENERGY PREDICTED BY IDOCK:   -3.83 KCAL/MOL
REMARK 922        TOTAL FREE ENERGY PREDICTED BY IDOCK:   -7.09 KCAL/MOL
REMARK 923 INTER-LIGAND FREE ENERGY PREDICTED BY IDOCK:   -6.92 KCAL/MOL
REMARK 924 INTRA-LIGAND FREE ENERGY PREDICTED BY IDOCK:   -0.17 KCAL/MOL
REMARK 927      BINDING AFFINITY PREDICTED BY RF-SCORE:    0.00 PKD
ROOT
HETATM    1  C   UNL     1     -11.205  16.663  64.706  1.00  0.00    -0.066 C  
HETATM    2  O   UNL     1     -11.111  17.897  65.408  1.00  0.00    -0.298 OA 
ENDROOT
BRANCH   2   3
HETATM    3  C   UNL     1      -9.987  18.106  66.163  1.00  0.00    -0.299 A  
HETATM    4  C   UNL     1      -9.131  19.197  65.970  1.00  0.00    -0.094 A  
HETATM    5  C   UNL     1      -7.968  19.373  66.702  1.00  0.00    -0.286 A  
HETATM    6  C   UNL     1      -7.655  18.455  67.717  1.00  0.00    -0.238 A  
HETATM    7  C   UNL     1      -8.539  17.380  67.959  1.00  0.00    -0.240 A  
HETATM    8  C   UNL     1      -6.445  18.664  68.414  1.00  0.00    -0.226 A  
HETATM    9  C   UNL     1      -5.627  19.745  68.094  1.00  0.00    -0.226 A  
HETATM   10  C   UNL     1      -9.671  17.174  67.161  1.00  0.00    -0.261 A  
HETATM   11  N   UNL     1      -7.180  20.413  66.386  1.00  0.00    -0.257 NA 
HETATM   12  C   UNL     1      -6.032  20.575  67.071  1.00  0.00    -0.192 A  
BRANCH   8  13
HETATM   13  O   UNL     1      -6.169  17.807  69.458  1.00  0.00    -0.238 OA 
BRANCH  13  14
HETATM   14  C   UNL     1      -6.127  16.449  69.255  1.00  0.00    -0.169 A  
HETATM   15  C   UNL     1      -7.006  15.703  70.035  1.00  0.00     0.057 A  
HETATM   16  C   UNL     1      -7.108  14.322  69.861  1.00  0.00     0.106 A  
HETATM   17  C   UNL     1      -6.333  13.668  68.902  1.00  0.00    -0.097 A  
HETATM   18  C   UNL     1      -5.355  15.807  68.290  1.00  0.00    -0.109 A  
HETATM   19  C   UNL     1      -5.437  14.417  68.132  1.00  0.00    -0.122 A  
BRANCH  17  20
HETATM   20  N   UNL     1      -6.413  12.278  68.661  1.00  0.00    -0.067 N  
HETATM   21  H   UNL     1      -6.536  11.982  67.692  1.00  0.00     0.000 HD 
HETATM   22  C   UNL     1      -6.341  11.286  69.614  1.00  0.00    -0.124 C  
HETATM   23  O   UNL     1      -6.259  11.414  70.825  1.00  0.00    -0.343 OA 
BRANCH  22  24
HETATM   24  C   UNL     1      -6.357   9.895  69.068  1.00  0.00    -0.040 C  
HETATM   25  C   UNL     1      -5.429   9.620  67.888  1.00  0.00    -0.040 C  
HETATM   26  C   UNL     1      -5.125   9.004  69.216  1.00  0.00    -0.036 C  
BRANCH  24  27
HETATM   27  C   UNL     1      -7.700   9.246  69.132  1.00  0.00    -0.078 C  
HETATM   28  O   UNL     1      -8.094   8.610  68.163  1.00  0.00    -0.112 OA 
HETATM   29  N   UNL     1      -8.377   9.442  70.320  1.00  0.00    -0.178 N  
HETATM   30  H   UNL     1      -7.961  10.057  71.020  1.00  0.00     0.000 HD 
BRANCH  29  31
HETATM   31  C   UNL     1      -9.612   8.836  70.612  1.00  0.00    -0.199 A  
HETATM   32  C   UNL     1      -9.789   7.450  70.520  1.00  0.00    -0.180 A  
HETATM   33  C   UNL     1     -11.044   6.885  70.747  1.00  0.00    -0.317 A  
HETATM   34  C   UNL     1     -12.119   7.713  71.040  1.00  0.00    -0.258 A  
HETATM   35  C   UNL     1     -11.949   9.088  71.167  1.00  0.00    -0.356 A  
HETATM   36  F   UNL     1     -13.338   7.180  71.196  1.00  0.00    -0.422 F  
HETATM   37  C   UNL     1     -10.683   9.649  70.990  1.00  0.00    -0.393 A  
ENDBRANCH  29  31
ENDBRANCH  24  27
ENDBRANCH  22  24
ENDBRANCH  17  20
ENDBRANCH  13  14
ENDBRANCH   8  13
BRANCH  10  38
HETATM   38  O   UNL     1     -10.394  16.059  67.497  1.00  0.00    -0.273 OA 
HETATM   39  C   UNL     1     -10.654  15.884  68.886  1.00  0.00    -0.244 C  
ENDBRANCH  10  38
ENDBRANCH   2   3
TORSDOF 8
ENDMDL
MODEL      100
REMARK 921   NORMALIZED FREE ENERGY PREDICTED BY IDOCK:   -3.80 KCAL/MOL
REMARK 922        TOTAL FREE ENERGY PREDICTED BY IDOCK:   -7.05 KCAL/MOL
REMARK 923 INTER-LIGAND FREE ENERGY PREDICTED BY IDOCK:   -6.99 KCAL/MOL
REMARK 924 INTRA-LIGAND FREE ENERGY PREDICTED BY IDOCK:   -0.05 KCAL/MOL
REMARK 927      BINDING AFFINITY PREDICTED BY RF-SCORE:    0.00 PKD
ROOT
HETATM    1  C   UNL     1      -7.909  20.590  67.244  1.00  0.00    -0.323 C  
HETATM    2  O   UNL     1      -7.787  19.446  68.082  1.00  0.00    -0.287 OA 
ENDROOT
BRANCH   2   3
HETATM    3  C   UNL     1      -8.526  18.342  67.747  1.00  0.00    -0.249 A  
HETATM    4  C   UNL     1      -9.597  17.878  68.522  1.00  0.00    -0.327 A  
HETATM    5  C   UNL     1     -10.307  16.732  68.206  1.00  0.00    -0.319 A  
HETATM    6  C   UNL     1      -9.981  16.029  67.034  1.00  0.00    -0.257 A  
HETATM    7  C   UNL     1      -8.939  16.516  66.215  1.00  0.00    -0.359 A  
HETATM    8  C   UNL     1     -10.716  14.852  66.772  1.00  0.00    -0.312 A  
HETATM    9  C   UNL     1     -11.717  14.439  67.648  1.00  0.00    -0.421 A  
HETATM   10  C   UNL     1      -8.182  17.634  66.588  1.00  0.00    -0.260 A  
HETATM   11  N   UNL     1     -11.267  16.334  69.055  1.00  0.00    -0.335 NA 
HETATM   12  C   UNL     1     -11.942  15.204  68.772  1.00  0.00    -0.250 A  
BRANCH   8  13
HETATM   13  O   UNL     1     -10.448  14.198  65.589  1.00  0.00    -0.294 OA 
BRANCH  13  14
HETATM   14  C   UNL     1     -10.124  12.863  65.586  1.00  0.00    -0.272 A  
HETATM   15  C   UNL     1      -8.819  12.567  65.972  1.00  0.00     0.255 A  
HETATM   16  C   UNL     1      -8.399  11.240  66.083  1.00  0.00    -0.111 A  
HETATM   17  C   UNL     1      -9.279  10.191  65.809  1.00  0.00    -0.178 A  
HETATM   18  C   UNL     1     -11.011  11.824  65.319  1.00  0.00    -0.350 A  
HETATM   19  C   UNL     1     -10.583  10.493  65.404  1.00  0.00    -0.143 A  
BRANCH  17  20
HETATM   20  N   UNL     1      -8.920   8.831  65.931  1.00  0.00    -0.184 N  
HETATM   21  H   UNL     1      -9.156   8.365  66.808  1.00  0.00     0.000 HD 
HETATM   22  C   UNL     1      -8.280   8.075  64.973  1.00  0.00    -0.141 C  
HETATM   23  O   UNL     1      -7.854   8.440  63.890  1.00  0.00    -0.135 OA 
BRANCH  22  24
HETATM   24  C   UNL     1      -8.109   6.633  65.330  1.00  0.00    -0.129 C  
HETATM   25  C   UNL     1      -8.612   5.618  64.307  1.00  0.00     0.034 C  
HETATM   26  C   UNL     1      -7.141   5.761  64.532  1.00  0.00    -0.053 C  
BRANCH  24  27
HETATM   27  C   UNL     1      -8.254   6.360  66.791  1.00  0.00    -0.110 C  
HETATM   28  O   UNL     1      -8.849   5.350  67.145  1.00  0.00    -0.111 OA 
HETATM   29  N   UNL     1      -7.681   7.310  67.613  1.00  0.00    -0.110 N  
HETATM   30  H   UNL     1      -7.277   8.143  67.184  1.00  0.00     0.000 HD 
BRANCH  29  31
HETATM   31  C   UNL     1      -7.627   7.187  69.012  1.00  0.00    -0.100 A  
HETATM   32  C   UNL     1      -8.639   6.540  69.732  1.00  0.00    -0.136 A  
HETATM   33  C   UNL     1      -8.593   6.496  71.125  1.00  0.00    -0.130 A  
HETATM   34  C   UNL     1      -7.548   7.121  71.791  1.00  0.00    -0.087 A  
HETATM   35  C   UNL     1      -6.519   7.737  71.087  1.00  0.00    -0.038 A  
HETATM   36  F   UNL     1      -7.534   7.135  73.130  1.00  0.00    -0.073 F  
HETATM   37  C   UNL     1      -6.537   7.739  69.690  1.00  0.00    -0.035 A  
ENDBRANCH  29  31
ENDBRANCH  24  27
ENDBRANCH  22  24
ENDBRANCH  17  20
ENDBRANCH  13  14
ENDBRANCH   8  13
BRANCH  10  38
HETATM   38  O   UNL     1      -7.178  17.945  65.708  1.00  0.00    -0.470 OA 
HETATM   39  C   UNL     1      -5.863  17.578  66.114  1.00  0.00    -0.190 C  
ENDBRANCH  10  38
ENDBRANCH   2   3
TORSDOF 8
ENDMDL
MODEL      101
REMARK 921   NORMALIZED FREE ENERGY PREDICTED BY IDOCK:   -3.79 KCAL/MOL
REMARK 922        TOTAL FREE ENERGY PREDICTED BY IDOCK:   -7.04 KCAL/MOL
REMARK 923 INTER-LIGAND FREE ENERGY PREDICTED BY IDOCK:   -6.29 KCAL/MOL
REMARK 924 INTRA-LIGAND FREE ENERGY PREDICTED BY IDOCK:   -0.75 KCAL/MOL
REMARK 927      BINDING AFFINITY PREDICTED BY RF-SCORE:    0.00 PKD
ROOT
HETATM    1  C   UNL     1      -7.849   3.696  71.900  1.00  0.00    -0.062 C  
HETATM    2  O   UNL     1      -8.636   3.064  70.896  1.00  0.00    -0.063 OA 
ENDROOT
BRANCH   2   3
HETATM    3  C   UNL     1      -8.617   3.619  69.643  1.00  0.00    -0.066 A  
HETATM    4  C   UNL     1      -7.856   3.097  68.590  1.00  0.00    -0.060 A  
HETATM    5  C   UNL     1      -7.801   3.693  67.340  1.00  0.00    -0.079 A  
HETATM    6  C   UNL     1      -8.577   4.837  67.096  1.00  0.00    -0.104 A  
HETATM    7  C   UNL     1      -9.391   5.343  68.133  1.00  0.00    -0.131 A  
HETATM    8  C   UNL     1      -8.462   5.422  65.816  1.00  0.00    -0.131 A  
HETATM    9  C   UNL     1      -7.620   4.861  64.859  1.00  0.00    -0.077 A  
HETATM   10  C   UNL     1      -9.378   4.773  69.412  1.00  0.00    -0.134 A  
HETATM   11  N   UNL     1      -6.983   3.152  66.424  1.00  0.00    -0.053 NA 
HETATM   12  C   UNL     1      -6.898   3.743  65.216  1.00  0.00    -0.053 A  
BRANCH   8  13
HETATM   13  O   UNL     1      -9.274   6.503  65.548  1.00  0.00     0.060 OA 
BRANCH  13  14
HETATM   14  C   UNL     1      -8.808   7.785  65.711  1.00  0.00    -0.106 A  
HETATM   15  C   UNL     1      -9.733   8.694  66.220  1.00  0.00    -0.322 A  
HETATM   16  C   UNL     1      -9.351  10.007  66.502  1.00  0.00    -0.201 A  
HETATM   17  C   UNL     1      -8.039  10.428  66.279  1.00  0.00    -0.136 A  
HETATM   18  C   UNL     1      -7.496   8.194  65.493  1.00  0.00    -0.081 A  
HETATM   19  C   UNL     1      -7.118   9.518  65.751  1.00  0.00    -0.096 A  
BRANCH  17  20
HETATM   20  N   UNL     1      -7.588  11.734  66.572  1.00  0.00    -0.366 N  
HETATM   21  H   UNL     1      -7.332  12.325  65.780  1.00  0.00     0.000 HD 
HETATM   22  C   UNL     1      -7.460  12.283  67.829  1.00  0.00    -0.126 C  
HETATM   23  O   UNL     1      -7.646  11.742  68.907  1.00  0.00    -0.121 OA 
BRANCH  22  24
HETATM   24  C   UNL     1      -7.051  13.721  67.842  1.00  0.00    -0.161 C  
HETATM   25  C   UNL     1      -6.261  14.190  69.062  1.00  0.00    -0.094 C  
HETATM   26  C   UNL     1      -5.573  14.093  67.738  1.00  0.00    -0.049 C  
BRANCH  24  27
HETATM   27  C   UNL     1      -8.047  14.629  67.201  1.00  0.00    -0.185 C  
HETATM   28  O   UNL     1      -9.089  14.150  66.772  1.00  0.00    -0.254 OA 
HETATM   29  N   UNL     1      -7.671  15.957  67.158  1.00  0.00    -0.191 N  
HETATM   30  H   UNL     1      -6.738  16.208  67.488  1.00  0.00     0.000 HD 
BRANCH  29  31
HETATM   31  C   UNL     1      -8.509  16.981  66.682  1.00  0.00    -0.248 A  
HETATM   32  C   UNL     1      -8.130  18.328  66.741  1.00  0.00    -0.268 A  
HETATM   33  C   UNL     1      -9.011  19.325  66.326  1.00  0.00    -0.347 A  
HETATM   34  C   UNL     1     -10.277  18.971  65.878  1.00  0.00    -0.311 A  
HETATM   35  C   UNL     1     -10.653  17.635  65.783  1.00  0.00    -0.177 A  
HETATM   36  F   UNL     1     -11.148  19.929  65.539  1.00  0.00    -0.512 F  
HETATM   37  C   UNL     1      -9.753  16.633  66.150  1.00  0.00    -0.329 A  
ENDBRANCH  29  31
ENDBRANCH  24  27
ENDBRANCH  22  24
ENDBRANCH  17  20
ENDBRANCH  13  14
ENDBRANCH   8  13
BRANCH  10  38
HETATM   38  O   UNL     1     -10.186   5.414  70.316  1.00  0.00    -0.224 OA 
HETATM   39  C   UNL     1     -11.218   6.223  69.760  1.00  0.00    -0.430 C  
ENDBRANCH  10  38
ENDBRANCH   2   3
TORSDOF 8
ENDMDL
MODEL      102
REMARK 921   NORMALIZED FREE ENERGY PREDICTED BY IDOCK:   -3.78 KCAL/MOL
REMARK 922        TOTAL FREE ENERGY PREDICTED BY IDOCK:   -7.01 KCAL/MOL
REMARK 923 INTER-LIGAND FREE ENERGY PREDICTED BY IDOCK:   -6.27 KCAL/MOL
REMARK 924 INTRA-LIGAND FREE ENERGY PREDICTED BY IDOCK:   -0.74 KCAL/MOL
REMARK 927      BINDING AFFINITY PREDICTED BY RF-SCORE:    0.00 PKD
ROOT
HETATM    1  C   UNL     1     -12.776  14.169  65.591  1.00  0.00    -0.441 C  
HETATM    2  O   UNL     1     -12.508  12.988  66.340  1.00  0.00    -0.401 OA 
ENDROOT
BRANCH   2   3
HETATM    3  C   UNL     1     -11.195  12.625  66.490  1.00  0.00    -0.296 A  
HETATM    4  C   UNL     1     -10.383  13.111  67.522  1.00  0.00    -0.225 A  
HETATM    5  C   UNL     1      -9.043  12.782  67.638  1.00  0.00    -0.193 A  
HETATM    6  C   UNL     1      -8.481  11.881  66.717  1.00  0.00    -0.167 A  
HETATM    7  C   UNL     1      -9.302  11.341  65.704  1.00  0.00    -0.245 A  
HETATM    8  C   UNL     1      -7.105  11.601  66.862  1.00  0.00    -0.124 A  
HETATM    9  C   UNL     1      -6.369  12.195  67.884  1.00  0.00    -0.078 A  
HETATM   10  C   UNL     1     -10.636  11.743  65.557  1.00  0.00    -0.276 A  
HETATM   11  N   UNL     1      -8.337  13.361  68.621  1.00  0.00    -0.072 NA 
HETATM   12  C   UNL     1      -7.025  13.070  68.722  1.00  0.00    -0.103 A  
BRANCH   8  13
HETATM   13  O   UNL     1      -6.564  10.665  66.006  1.00  0.00    -0.118 OA 
BRANCH  13  14
HETATM   14  C   UNL     1      -6.957   9.350  66.069  1.00  0.00    -0.090 A  
HETATM   15  C   UNL     1      -7.114   8.837  67.354  1.00  0.00    -0.079 A  
HETATM   16  C   UNL     1      -7.585   7.536  67.542  1.00  0.00    -0.113 A  
HETATM   17  C   UNL     1      -7.907   6.732  66.448  1.00  0.00    -0.104 A  
HETATM   18  C   UNL     1      -7.283   8.558  64.971  1.00  0.00    -0.084 A  
HETATM   19  C   UNL     1      -7.731   7.244  65.159  1.00  0.00    -0.113 A  
BRANCH  17  20
HETATM   20  N   UNL     1      -8.414   5.420  66.577  1.00  0.00    -0.112 N  
HETATM   21  H   UNL     1      -9.384   5.268  66.299  1.00  0.00     0.000 HD 
HETATM   22  C   UNL     1      -7.719   4.327  67.046  1.00  0.00    -0.092 C  
HETATM   23  O   UNL     1      -6.582   4.293  67.487  1.00  0.00    -0.044 OA 
BRANCH  22  24
HETATM   24  C   UNL     1      -8.472   3.037  66.984  1.00  0.00    -0.101 C  
HETATM   25  C   UNL     1      -9.168   2.721  65.663  1.00  0.00    -0.103 C  
HETATM   26  C   UNL     1      -7.981   1.911  66.076  1.00  0.00    -0.078 C  
BRANCH  24  27
HETATM   27  C   UNL     1      -9.114   2.661  68.278  1.00  0.00    -0.179 C  
HETATM   28  O   UNL     1      -9.709   1.593  68.352  1.00  0.00    -0.182 OA 
HETATM   29  N   UNL     1      -8.964   3.592  69.287  1.00  0.00    -0.103 N  
HETATM   30  H   UNL     1      -8.505   4.477  69.066  1.00  0.00     0.000 HD 
BRANCH  29  31
HETATM   31  C   UNL     1      -9.413   3.383  70.603  1.00  0.00    -0.173 A  
HETATM   32  C   UNL     1      -9.413   2.109  71.184  1.00  0.00    -0.212 A  
HETATM   33  C   UNL     1      -9.930   1.920  72.466  1.00  0.00    -0.203 A  
HETATM   34  C   UNL     1     -10.468   3.004  73.147  1.00  0.00    -0.165 A  
HETATM   35  C   UNL     1     -10.444   4.280  72.594  1.00  0.00    -0.241 A  
HETATM   36  F   UNL     1     -11.023   2.815  74.351  1.00  0.00    -0.221 F  
HETATM   37  C   UNL     1      -9.880   4.479  71.332  1.00  0.00    -0.264 A  
ENDBRANCH  29  31
ENDBRANCH  24  27
ENDBRANCH  22  24
ENDBRANCH  17  20
ENDBRANCH  13  14
ENDBRANCH   8  13
BRANCH  10  38
HETATM   38  O   UNL     1     -11.278  11.161  64.494  1.00  0.00    -0.197 OA 
HETATM   39  C   UNL     1     -10.977  11.708  63.214  1.00  0.00    -0.279 C  
ENDBRANCH  10  38
ENDBRANCH   2   3
TORSDOF 8
ENDMDL
MODEL      103
REMARK 921   NORMALIZED FREE ENERGY PREDICTED BY IDOCK:   -3.77 KCAL/MOL
REMARK 922        TOTAL FREE ENERGY PREDICTED BY IDOCK:   -7.00 KCAL/MOL
REMARK 923 INTER-LIGAND FREE ENERGY PREDICTED BY IDOCK:   -7.06 KCAL/MOL
REMARK 924 INTRA-LIGAND FREE ENERGY PREDICTED BY IDOCK:    0.05 KCAL/MOL
REMARK 927      BINDING AFFINITY PREDICTED BY RF-SCORE:    0.00 PKD
ROOT
HETATM    1  C   UNL     1      -7.275   1.493  69.178  1.00  0.00    -0.036 C  
HETATM    2  O   UNL     1      -7.250   2.916  69.144  1.00  0.00    -0.044 OA 
ENDROOT
BRANCH   2   3
HETATM    3  C   UNL     1      -8.053   3.578  70.035  1.00  0.00    -0.045 A  
HETATM    4  C   UNL     1      -8.053   3.305  71.409  1.00  0.00    -0.061 A  
HETATM    5  C   UNL     1      -8.904   3.942  72.298  1.00  0.00    -0.105 A  
HETATM    6  C   UNL     1      -9.766   4.942  71.818  1.00  0.00    -0.223 A  
HETATM    7  C   UNL     1      -9.737   5.266  70.444  1.00  0.00    -0.259 A  
HETATM    8  C   UNL     1     -10.632   5.539  72.760  1.00  0.00    -0.225 A  
HETATM    9  C   UNL     1     -10.603   5.143  74.094  1.00  0.00    -0.322 A  
HETATM   10  C   UNL     1      -8.924   4.560  69.547  1.00  0.00    -0.094 A  
HETATM   11  N   UNL     1      -8.876   3.552  73.582  1.00  0.00    -0.088 NA 
HETATM   12  C   UNL     1      -9.721   4.144  74.447  1.00  0.00    -0.126 A  
BRANCH   8  13
HETATM   13  O   UNL     1     -11.431   6.569  72.309  1.00  0.00    -0.267 OA 
BRANCH  13  14
HETATM   14  C   UNL     1     -10.899   7.586  71.554  1.00  0.00    -0.227 A  
HETATM   15  C   UNL     1      -9.860   8.293  72.154  1.00  0.00    -0.342 A  
HETATM   16  C   UNL     1      -9.191   9.298  71.453  1.00  0.00    -0.091 A  
HETATM   17  C   UNL     1      -9.551   9.608  70.140  1.00  0.00    -0.254 A  
HETATM   18  C   UNL     1     -11.260   7.882  70.242  1.00  0.00    -0.206 A  
HETATM   19  C   UNL     1     -10.607   8.908  69.546  1.00  0.00    -0.233 A  
BRANCH  17  20
HETATM   20  N   UNL     1      -8.892  10.592  69.371  1.00  0.00    -0.366 N  
HETATM   21  H   UNL     1      -9.480  11.248  68.856  1.00  0.00     0.000 HD 
HETATM   22  C   UNL     1      -7.528  10.748  69.253  1.00  0.00    -0.135 C  
HETATM   23  O   UNL     1      -6.650  10.046  69.726  1.00  0.00    -0.054 OA 
BRANCH  22  24
HETATM   24  C   UNL     1      -7.104  11.936  68.450  1.00  0.00    -0.086 C  
HETATM   25  C   UNL     1      -5.818  12.628  68.893  1.00  0.00    -0.071 C  
HETATM   26  C   UNL     1      -5.834  11.869  67.606  1.00  0.00    -0.083 C  
BRANCH  24  27
HETATM   27  C   UNL     1      -8.248  12.741  67.930  1.00  0.00    -0.168 C  
HETATM   28  O   UNL     1      -8.499  13.817  68.458  1.00  0.00    -0.160 OA 
HETATM   29  N   UNL     1      -8.923  12.165  66.872  1.00  0.00    -0.197 N  
HETATM   30  H   UNL     1      -8.651  11.227  66.576  1.00  0.00     0.000 HD 
BRANCH  29  31
HETATM   31  C   UNL     1      -9.966  12.807  66.182  1.00  0.00    -0.266 A  
HETATM   32  C   UNL     1     -11.275  12.307  66.199  1.00  0.00    -0.372 A  
HETATM   33  C   UNL     1     -12.274  12.926  65.447  1.00  0.00    -0.528 A  
HETATM   34  C   UNL     1     -11.951  14.025  64.662  1.00  0.00    -0.430 A  
HETATM   35  C   UNL     1     -10.664  14.551  64.663  1.00  0.00    -0.332 A  
HETATM   36  F   UNL     1     -12.893  14.582  63.891  1.00  0.00    -0.242 F  
HETATM   37  C   UNL     1      -9.674  13.963  65.454  1.00  0.00    -0.096 A  
ENDBRANCH  29  31
ENDBRANCH  24  27
ENDBRANCH  22  24
ENDBRANCH  17  20
ENDBRANCH  13  14
ENDBRANCH   8  13
BRANCH  10  38
HETATM   38  O   UNL     1      -9.052   4.966  68.244  1.00  0.00    -0.107 OA 
HETATM   39  C   UNL     1      -8.264   6.090  67.865  1.00  0.00    -0.112 C  
ENDBRANCH  10  38
ENDBRANCH   2   3
TORSDOF 8
ENDMDL
MODEL      104
REMARK 921   NORMALIZED FREE ENERGY PREDICTED BY IDOCK:   -3.74 KCAL/MOL
REMARK 922        TOTAL FREE ENERGY PREDICTED BY IDOCK:   -6.96 KCAL/MOL
REMARK 923 INTER-LIGAND FREE ENERGY PREDICTED BY IDOCK:   -9.02 KCAL/MOL
REMARK 924 INTRA-LIGAND FREE ENERGY PREDICTED BY IDOCK:    2.06 KCAL/MOL
REMARK 927      BINDING AFFINITY PREDICTED BY RF-SCORE:    0.00 PKD
ROOT
HETATM    1  C   UNL     1     -11.119   8.099  72.472  1.00  0.00    -0.377 C  
HETATM    2  O   UNL     1     -12.256   8.601  71.780  1.00  0.00    -0.302 OA 
ENDROOT
BRANCH   2   3
HETATM    3  C   UNL     1     -12.213   9.908  71.368  1.00  0.00    -0.408 A  
HETATM    4  C   UNL     1     -12.868  10.942  72.047  1.00  0.00    -0.322 A  
HETATM    5  C   UNL     1     -12.864  12.253  71.598  1.00  0.00    -0.273 A  
HETATM    6  C   UNL     1     -12.131  12.575  70.444  1.00  0.00    -0.380 A  
HETATM    7  C   UNL     1     -11.420  11.550  69.780  1.00  0.00    -0.362 A  
HETATM    8  C   UNL     1     -12.182  13.918  70.012  1.00  0.00    -0.344 A  
HETATM    9  C   UNL     1     -12.925  14.858  70.723  1.00  0.00    -0.418 A  
HETATM   10  C   UNL     1     -11.496  10.218  70.205  1.00  0.00    -0.317 A  
HETATM   11  N   UNL     1     -13.586  13.153  72.283  1.00  0.00    -0.581 NA 
HETATM   12  C   UNL     1     -13.613  14.423  71.835  1.00  0.00    -0.403 A  
BRANCH   8  13
HETATM   13  O   UNL     1     -11.409  14.254  68.921  1.00  0.00    -0.244 OA 
BRANCH  13  14
HETATM   14  C   UNL     1     -11.024  13.296  68.015  1.00  0.00    -0.244 A  
HETATM   15  C   UNL     1      -9.696  12.887  68.110  1.00  0.00    -0.227 A  
HETATM   16  C   UNL     1      -9.212  11.863  67.293  1.00  0.00    -0.179 A  
HETATM   17  C   UNL     1     -10.051  11.233  66.372  1.00  0.00    -0.220 A  
HETATM   18  C   UNL     1     -11.870  12.668  67.106  1.00  0.00    -0.399 A  
HETATM   19  C   UNL     1     -11.379  11.658  66.267  1.00  0.00    -0.293 A  
BRANCH  17  20
HETATM   20  N   UNL     1      -9.626  10.173  65.540  1.00  0.00    -0.229 N  
HETATM   21  H   UNL     1     -10.253   9.897  64.785  1.00  0.00     0.000 HD 
HETATM   22  C   UNL     1      -8.442   9.478  65.657  1.00  0.00    -0.133 C  
HETATM   23  O   UNL     1      -7.583   9.598  66.516  1.00  0.00    -0.096 OA 
BRANCH  22  24
HETATM   24  C   UNL     1      -8.204   8.468  64.581  1.00  0.00    -0.162 C  
HETATM   25  C   UNL     1      -8.621   8.872  63.169  1.00  0.00    -0.123 C  
HETATM   26  C   UNL     1      -7.168   8.744  63.494  1.00  0.00    -0.094 C  
BRANCH  24  27
HETATM   27  C   UNL     1      -8.378   7.058  65.039  1.00  0.00    -0.046 C  
HETATM   28  O   UNL     1      -8.118   6.150  64.261  1.00  0.00    -0.124 OA 
HETATM   29  N   UNL     1      -8.830   6.927  66.338  1.00  0.00    -0.140 N  
HETATM   30  H   UNL     1      -9.078   7.773  66.853  1.00  0.00     0.000 HD 
BRANCH  29  31
HETATM   31  C   UNL     1      -8.967   5.687  66.985  1.00  0.00    -0.114 A  
HETATM   32  C   UNL     1      -9.023   4.486  66.266  1.00  0.00    -0.119 A  
HETATM   33  C   UNL     1      -9.230   3.277  66.931  1.00  0.00    -0.196 A  
HETATM   34  C   UNL     1      -9.406   3.280  68.308  1.00  0.00    -0.184 A  
HETATM   35  C   UNL     1      -9.319   4.462  69.037  1.00  0.00    -0.219 A  
HETATM   36  F   UNL     1      -9.668   2.130  68.941  1.00  0.00    -0.214 F  
HETATM   37  C   UNL     1      -9.061   5.666  68.378  1.00  0.00    -0.121 A  
ENDBRANCH  29  31
ENDBRANCH  24  27
ENDBRANCH  22  24
ENDBRANCH  17  20
ENDBRANCH  13  14
ENDBRANCH   8  13
BRANCH  10  38
HETATM   38  O   UNL     1     -10.789   9.343  69.422  1.00  0.00    -0.228 OA 
HETATM   39  C   UNL     1      -9.415   9.182  69.758  1.00  0.00    -0.182 C  
ENDBRANCH  10  38
ENDBRANCH   2   3
TORSDOF 8
ENDMDL
MODEL      105
REMARK 921   NORMALIZED FREE ENERGY PREDICTED BY IDOCK:   -3.72 KCAL/MOL
REMARK 922        TOTAL FREE ENERGY PREDICTED BY IDOCK:   -6.93 KCAL/MOL
REMARK 923 INTER-LIGAND FREE ENERGY PREDICTED BY IDOCK:   -6.69 KCAL/MOL
REMARK 924 INTRA-LIGAND FREE ENERGY PREDICTED BY IDOCK:   -0.25 KCAL/MOL
REMARK 927      BINDING AFFINITY PREDICTED BY RF-SCORE:    0.00 PKD
ROOT
HETATM    1  C   UNL     1      -9.099   3.019  68.285  1.00  0.00    -0.164 C  
HETATM    2  O   UNL     1      -8.321   2.792  67.115  1.00  0.00    -0.085 OA 
ENDROOT
BRANCH   2   3
HETATM    3  C   UNL     1      -7.884   3.895  66.429  1.00  0.00    -0.090 A  
HETATM    4  C   UNL     1      -7.764   3.926  65.034  1.00  0.00    -0.085 A  
HETATM    5  C   UNL     1      -7.271   5.026  64.350  1.00  0.00    -0.055 A  
HETATM    6  C   UNL     1      -6.927   6.180  65.073  1.00  0.00    -0.055 A  
HETATM    7  C   UNL     1      -7.095   6.181  66.476  1.00  0.00    -0.068 A  
HETATM    8  C   UNL     1      -6.404   7.262  64.333  1.00  0.00    -0.040 A  
HETATM    9  C   UNL     1      -6.258   7.164  62.951  1.00  0.00    -0.052 A  
HETATM   10  C   UNL     1      -7.523   5.035  67.158  1.00  0.00    -0.087 A  
HETATM   11  N   UNL     1      -7.127   4.925  63.020  1.00  0.00    -0.042 NA 
HETATM   12  C   UNL     1      -6.621   5.978  62.351  1.00  0.00    -0.033 A  
BRANCH   8  13
HETATM   13  O   UNL     1      -6.131   8.421  65.028  1.00  0.00    -0.051 OA 
BRANCH  13  14
HETATM   14  C   UNL     1      -7.128   9.327  65.296  1.00  0.00    -0.090 A  
HETATM   15  C   UNL     1      -7.088   9.896  66.567  1.00  0.00    -0.094 A  
HETATM   16  C   UNL     1      -8.003  10.887  66.926  1.00  0.00    -0.138 A  
HETATM   17  C   UNL     1      -8.969  11.324  66.018  1.00  0.00    -0.200 A  
HETATM   18  C   UNL     1      -8.082   9.762  64.382  1.00  0.00    -0.150 A  
HETATM   19  C   UNL     1      -9.018  10.738  64.749  1.00  0.00    -0.194 A  
BRANCH  17  20
HETATM   20  N   UNL     1      -9.902  12.342  66.315  1.00  0.00    -0.243 N  
HETATM   21  H   UNL     1     -10.790  12.318  65.813  1.00  0.00     0.000 HD 
HETATM   22  C   UNL     1      -9.722  13.366  67.219  1.00  0.00    -0.232 C  
HETATM   23  O   UNL     1      -8.725  13.621  67.874  1.00  0.00    -0.163 OA 
BRANCH  22  24
HETATM   24  C   UNL     1     -10.913  14.250  67.405  1.00  0.00    -0.301 C  
HETATM   25  C   UNL     1     -12.168  13.867  66.626  1.00  0.00    -0.465 C  
HETATM   26  C   UNL     1     -12.156  13.713  68.112  1.00  0.00    -0.310 C  
BRANCH  24  27
HETATM   27  C   UNL     1     -10.563  15.688  67.602  1.00  0.00    -0.294 C  
HETATM   28  O   UNL     1     -11.219  16.350  68.396  1.00  0.00    -0.362 OA 
HETATM   29  N   UNL     1      -9.499  16.130  66.840  1.00  0.00    -0.223 N  
HETATM   30  H   UNL     1      -9.087  15.487  66.163  1.00  0.00     0.000 HD 
BRANCH  29  31
HETATM   31  C   UNL     1      -8.956  17.422  66.951  1.00  0.00    -0.245 A  
HETATM   32  C   UNL     1      -7.609  17.627  67.276  1.00  0.00    -0.217 A  
HETATM   33  C   UNL     1      -7.117  18.920  67.450  1.00  0.00    -0.216 A  
HETATM   34  C   UNL     1      -7.981  20.000  67.321  1.00  0.00    -0.313 A  
HETATM   35  C   UNL     1      -9.312  19.811  66.966  1.00  0.00    -0.460 A  
HETATM   36  F   UNL     1      -7.526  21.239  67.549  1.00  0.00    -0.401 F  
HETATM   37  C   UNL     1      -9.795  18.520  66.742  1.00  0.00    -0.359 A  
ENDBRANCH  29  31
ENDBRANCH  24  27
ENDBRANCH  22  24
ENDBRANCH  17  20
ENDBRANCH  13  14
ENDBRANCH   8  13
BRANCH  10  38
HETATM   38  O   UNL     1      -7.585   5.189  68.519  1.00  0.00    -0.077 OA 
HETATM   39  C   UNL     1      -6.333   5.230  69.196  1.00  0.00    -0.034 C  
ENDBRANCH  10  38
ENDBRANCH   2   3
TORSDOF 8
ENDMDL
MODEL      106
REMARK 921   NORMALIZED FREE ENERGY PREDICTED BY IDOCK:   -3.59 KCAL/MOL
REMARK 922        TOTAL FREE ENERGY PREDICTED BY IDOCK:   -6.74 KCAL/MOL
REMARK 923 INTER-LIGAND FREE ENERGY PREDICTED BY IDOCK:   -6.09 KCAL/MOL
REMARK 924 INTRA-LIGAND FREE ENERGY PREDICTED BY IDOCK:   -0.65 KCAL/MOL
REMARK 927      BINDING AFFINITY PREDICTED BY RF-SCORE:    0.00 PKD
ROOT
HETATM    1  C   UNL     1     -12.148   1.884  73.261  1.00  0.00     0.067 C  
HETATM    2  O   UNL     1     -11.077   2.737  73.649  1.00  0.00    -0.201 OA 
ENDROOT
BRANCH   2   3
HETATM    3  C   UNL     1     -10.843   3.842  72.874  1.00  0.00    -0.079 A  
HETATM    4  C   UNL     1     -11.696   4.953  72.853  1.00  0.00    -0.172 A  
HETATM    5  C   UNL     1     -11.481   6.045  72.028  1.00  0.00    -0.287 A  
HETATM    6  C   UNL     1     -10.335   6.071  71.216  1.00  0.00    -0.266 A  
HETATM    7  C   UNL     1      -9.437   4.981  71.268  1.00  0.00    -0.209 A  
HETATM    8  C   UNL     1     -10.178   7.193  70.373  1.00  0.00    -0.193 A  
HETATM    9  C   UNL     1     -11.125   8.214  70.377  1.00  0.00    -0.239 A  
HETATM   10  C   UNL     1      -9.708   3.853  72.052  1.00  0.00    -0.164 A  
HETATM   11  N   UNL     1     -12.400   7.023  72.030  1.00  0.00    -0.296 NA 
HETATM   12  C   UNL     1     -12.215   8.074  71.209  1.00  0.00    -0.287 A  
BRANCH   8  13
HETATM   13  O   UNL     1      -9.021   7.257  69.627  1.00  0.00    -0.141 OA 
BRANCH  13  14
HETATM   14  C   UNL     1      -8.487   8.470  69.268  1.00  0.00    -0.128 A  
HETATM   15  C   UNL     1      -8.966   9.001  68.072  1.00  0.00    -0.133 A  
HETATM   16  C   UNL     1      -8.555  10.265  67.645  1.00  0.00    -0.118 A  
HETATM   17  C   UNL     1      -7.659  11.016  68.408  1.00  0.00    -0.108 A  
HETATM   18  C   UNL     1      -7.600   9.215  70.039  1.00  0.00    -0.080 A  
HETATM   19  C   UNL     1      -7.166  10.472  69.599  1.00  0.00    -0.148 A  
BRANCH  17  20
HETATM   20  N   UNL     1      -7.229  12.310  68.041  1.00  0.00    -0.092 N  
HETATM   21  H   UNL     1      -7.372  12.589  67.070  1.00  0.00     0.000 HD 
HETATM   22  C   UNL     1      -6.633  13.231  68.876  1.00  0.00    -0.107 C  
HETATM   23  O   UNL     1      -6.313  13.087  70.044  1.00  0.00    -0.098 OA 
BRANCH  22  24
HETATM   24  C   UNL     1      -6.368  14.561  68.247  1.00  0.00    -0.121 C  
HETATM   25  C   UNL     1      -5.127  15.304  68.733  1.00  0.00    -0.095 C  
HETATM   26  C   UNL     1      -5.149  14.748  67.346  1.00  0.00     0.359 C  
BRANCH  24  27
HETATM   27  C   UNL     1      -7.610  15.317  67.909  1.00  0.00    -0.139 C  
HETATM   28  O   UNL     1      -8.671  14.710  67.846  1.00  0.00    -0.158 OA 
HETATM   29  N   UNL     1      -7.420  16.669  67.694  1.00  0.00    -0.145 N  
HETATM   30  H   UNL     1      -6.466  17.032  67.707  1.00  0.00     0.000 HD 
BRANCH  29  31
HETATM   31  C   UNL     1      -8.474  17.567  67.458  1.00  0.00    -0.213 A  
HETATM   32  C   UNL     1      -8.792  18.582  68.369  1.00  0.00    -0.346 A  
HETATM   33  C   UNL     1      -9.889  19.414  68.142  1.00  0.00    -0.485 A  
HETATM   34  C   UNL     1     -10.676  19.208  67.018  1.00  0.00    -0.448 A  
HETATM   35  C   UNL     1     -10.352  18.225  66.088  1.00  0.00    -0.414 A  
HETATM   36  F   UNL     1     -11.766  19.963  66.829  1.00  0.00    -0.050 F  
HETATM   37  C   UNL     1      -9.225  17.425  66.288  1.00  0.00    -0.234 A  
ENDBRANCH  29  31
ENDBRANCH  24  27
ENDBRANCH  22  24
ENDBRANCH  17  20
ENDBRANCH  13  14
ENDBRANCH   8  13
BRANCH  10  38
HETATM   38  O   UNL     1      -8.762   2.866  71.951  1.00  0.00    -0.071 OA 
HETATM   39  C   UNL     1      -7.418   3.309  71.797  1.00  0.00    -0.051 C  
ENDBRANCH  10  38
ENDBRANCH   2   3
TORSDOF 8
ENDMDL
MODEL      107
REMARK 921   NORMALIZED FREE ENERGY PREDICTED BY IDOCK:   -3.58 KCAL/MOL
REMARK 922        TOTAL FREE ENERGY PREDICTED BY IDOCK:   -6.72 KCAL/MOL
REMARK 923 INTER-LIGAND FREE ENERGY PREDICTED BY IDOCK:   -5.44 KCAL/MOL
REMARK 924 INTRA-LIGAND FREE ENERGY PREDICTED BY IDOCK:   -1.27 KCAL/MOL
REMARK 927      BINDING AFFINITY PREDICTED BY RF-SCORE:    0.00 PKD
ROOT
HETATM    1  C   UNL     1     -10.674   3.570  64.000  1.00  0.00    -0.212 C  
HETATM    2  O   UNL     1      -9.336   3.107  64.144  1.00  0.00    -0.121 OA 
ENDROOT
BRANCH   2   3
HETATM    3  C   UNL     1      -8.488   3.866  64.908  1.00  0.00    -0.109 A  
HETATM    4  C   UNL     1      -8.017   3.456  66.161  1.00  0.00    -0.092 A  
HETATM    5  C   UNL     1      -7.203   4.250  66.951  1.00  0.00    -0.068 A  
HETATM    6  C   UNL     1      -6.784   5.498  66.460  1.00  0.00    -0.058 A  
HETATM    7  C   UNL     1      -7.207   5.901  65.174  1.00  0.00    -0.066 A  
HETATM    8  C   UNL     1      -5.978   6.280  67.315  1.00  0.00    -0.017 A  
HETATM    9  C   UNL     1      -5.624   5.807  68.576  1.00  0.00    -0.008 A  
HETATM   10  C   UNL     1      -8.091   5.118  64.420  1.00  0.00    -0.121 A  
HETATM   11  N   UNL     1      -6.868   3.792  68.167  1.00  0.00    -0.046 NA 
HETATM   12  C   UNL     1      -6.102   4.571  68.955  1.00  0.00    -0.030 A  
BRANCH   8  13
HETATM   13  O   UNL     1      -5.507   7.474  66.811  1.00  0.00    -0.023 OA 
BRANCH  13  14
HETATM   14  C   UNL     1      -6.326   8.574  66.738  1.00  0.00    -0.056 A  
HETATM   15  C   UNL     1      -7.072   8.838  67.884  1.00  0.00    -0.079 A  
HETATM   16  C   UNL     1      -7.880   9.974  67.955  1.00  0.00    -0.089 A  
HETATM   17  C   UNL     1      -7.952  10.863  66.882  1.00  0.00    -0.138 A  
HETATM   18  C   UNL     1      -6.385   9.459  65.665  1.00  0.00    -0.068 A  
HETATM   19  C   UNL     1      -7.216  10.585  65.725  1.00  0.00    -0.135 A  
BRANCH  17  20
HETATM   20  N   UNL     1      -8.729  12.042  66.906  1.00  0.00    -0.190 N  
HETATM   21  H   UNL     1      -9.709  11.957  66.636  1.00  0.00     0.000 HD 
HETATM   22  C   UNL     1      -8.284  13.296  67.262  1.00  0.00    -0.158 C  
HETATM   23  O   UNL     1      -7.149  13.634  67.556  1.00  0.00    -0.167 OA 
BRANCH  22  24
HETATM   24  C   UNL     1      -9.345  14.349  67.292  1.00  0.00    -0.211 C  
HETATM   25  C   UNL     1     -10.327  14.354  66.123  1.00  0.00    -0.305 C  
HETATM   26  C   UNL     1     -10.808  13.950  67.480  1.00  0.00    -0.274 C  
BRANCH  24  27
HETATM   27  C   UNL     1      -8.890  15.637  67.894  1.00  0.00    -0.171 C  
HETATM   28  O   UNL     1      -9.151  15.863  69.068  1.00  0.00    -0.210 OA 
HETATM   29  N   UNL     1      -8.199  16.463  67.028  1.00  0.00    -0.179 N  
HETATM   30  H   UNL     1      -8.115  16.180  66.051  1.00  0.00     0.000 HD 
BRANCH  29  31
HETATM   31  C   UNL     1      -7.607  17.674  67.428  1.00  0.00    -0.198 A  
HETATM   32  C   UNL     1      -6.450  17.700  68.217  1.00  0.00    -0.188 A  
HETATM   33  C   UNL     1      -5.926  18.916  68.656  1.00  0.00    -0.228 A  
HETATM   34  C   UNL     1      -6.577  20.096  68.325  1.00  0.00    -0.294 A  
HETATM   35  C   UNL     1      -7.707  20.086  67.514  1.00  0.00    -0.333 A  
HETATM   36  F   UNL     1      -6.113  21.260  68.797  1.00  0.00    -0.346 F  
HETATM   37  C   UNL     1      -8.204  18.873  67.031  1.00  0.00    -0.281 A  
ENDBRANCH  29  31
ENDBRANCH  24  27
ENDBRANCH  22  24
ENDBRANCH  17  20
ENDBRANCH  13  14
ENDBRANCH   8  13
BRANCH  10  38
HETATM   38  O   UNL     1      -8.442   5.676  63.218  1.00  0.00    -0.092 OA 
HETATM   39  C   UNL     1      -7.987   7.008  62.996  1.00  0.00    -0.080 C  
ENDBRANCH  10  38
ENDBRANCH   2   3
TORSDOF 8
ENDMDL
MODEL      108
REMARK 921   NORMALIZED FREE ENERGY PREDICTED BY IDOCK:   -3.48 KCAL/MOL
REMARK 922        TOTAL FREE ENERGY PREDICTED BY IDOCK:   -6.58 KCAL/MOL
REMARK 923 INTER-LIGAND FREE ENERGY PREDICTED BY IDOCK:   -6.37 KCAL/MOL
REMARK 924 INTRA-LIGAND FREE ENERGY PREDICTED BY IDOCK:   -0.21 KCAL/MOL
REMARK 927      BINDING AFFINITY PREDICTED BY RF-SCORE:    0.00 PKD
ROOT
HETATM    1  C   UNL     1     -13.029  15.270  70.782  1.00  0.00    -0.436 C  
HETATM    2  O   UNL     1     -12.742  15.648  69.440  1.00  0.00     0.023 OA 
ENDROOT
BRANCH   2   3
HETATM    3  C   UNL     1     -11.445  15.519  69.017  1.00  0.00    -0.352 A  
HETATM    4  C   UNL     1     -10.474  16.507  69.222  1.00  0.00    -0.326 A  
HETATM    5  C   UNL     1      -9.179  16.393  68.746  1.00  0.00    -0.239 A  
HETATM    6  C   UNL     1      -8.800  15.218  68.075  1.00  0.00    -0.169 A  
HETATM    7  C   UNL     1      -9.754  14.190  67.909  1.00  0.00    -0.224 A  
HETATM    8  C   UNL     1      -7.477  15.164  67.585  1.00  0.00    -0.181 A  
HETATM    9  C   UNL     1      -6.609  16.236  67.782  1.00  0.00    -0.162 A  
HETATM   10  C   UNL     1     -11.080  14.353  68.331  1.00  0.00    -0.255 A  
HETATM   11  N   UNL     1      -8.348  17.430  68.933  1.00  0.00    -0.214 NA 
HETATM   12  C   UNL     1      -7.095  17.341  68.446  1.00  0.00    -0.209 A  
BRANCH   8  13
HETATM   13  O   UNL     1      -7.079  13.987  66.988  1.00  0.00    -0.012 OA 
BRANCH  13  14
HETATM   14  C   UNL     1      -7.066  12.812  67.700  1.00  0.00    -0.145 A  
HETATM   15  C   UNL     1      -7.809  11.772  67.145  1.00  0.00    -0.166 A  
HETATM   16  C   UNL     1      -7.806  10.508  67.739  1.00  0.00    -0.104 A  
HETATM   17  C   UNL     1      -7.059  10.267  68.893  1.00  0.00    -0.075 A  
HETATM   18  C   UNL     1      -6.311  12.579  68.846  1.00  0.00    -0.086 A  
HETATM   19  C   UNL     1      -6.329  11.318  69.457  1.00  0.00    -0.109 A  
BRANCH  17  20
HETATM   20  N   UNL     1      -6.995   9.003  69.520  1.00  0.00    -0.050 N  
HETATM   21  H   UNL     1      -7.676   8.816  70.257  1.00  0.00     0.000 HD 
HETATM   22  C   UNL     1      -6.097   8.000  69.229  1.00  0.00    -0.034 C  
HETATM   23  O   UNL     1      -5.168   8.031  68.438  1.00  0.00    -0.030 OA 
BRANCH  22  24
HETATM   24  C   UNL     1      -6.318   6.728  69.982  1.00  0.00    -0.039 C  
HETATM   25  C   UNL     1      -5.233   5.662  69.845  1.00  0.00    -0.004 C  
HETATM   26  C   UNL     1      -5.405   6.367  71.152  1.00  0.00    -0.019 C  
BRANCH  24  27
HETATM   27  C   UNL     1      -7.754   6.328  70.067  1.00  0.00    -0.101 C  
HETATM   28  O   UNL     1      -8.092   5.245  69.609  1.00  0.00    -0.088 OA 
HETATM   29  N   UNL     1      -8.574   7.258  70.676  1.00  0.00    -0.141 N  
HETATM   30  H   UNL     1      -8.171   8.156  70.948  1.00  0.00     0.000 HD 
BRANCH  29  31
HETATM   31  C   UNL     1      -9.936   7.030  70.937  1.00  0.00    -0.193 A  
HETATM   32  C   UNL     1     -10.940   7.786  70.318  1.00  0.00    -0.252 A  
HETATM   33  C   UNL     1     -12.279   7.585  70.651  1.00  0.00    -0.068 A  
HETATM   34  C   UNL     1     -12.604   6.646  71.620  1.00  0.00    -0.264 A  
HETATM   35  C   UNL     1     -11.620   5.865  72.218  1.00  0.00    -0.338 A  
HETATM   36  F   UNL     1     -13.883   6.494  71.988  1.00  0.00    -0.350 F  
HETATM   37  C   UNL     1     -10.283   6.031  71.849  1.00  0.00    -0.237 A  
ENDBRANCH  29  31
ENDBRANCH  24  27
ENDBRANCH  22  24
ENDBRANCH  17  20
ENDBRANCH  13  14
ENDBRANCH   8  13
BRANCH  10  38
HETATM   38  O   UNL     1     -11.888  13.282  68.050  1.00  0.00    -0.340 OA 
HETATM   39  C   UNL     1     -11.813  12.780  66.719  1.00  0.00    -0.382 C  
ENDBRANCH  10  38
ENDBRANCH   2   3
TORSDOF 8
ENDMDL
MODEL      109
REMARK 921   NORMALIZED FREE ENERGY PREDICTED BY IDOCK:   -3.48 KCAL/MOL
REMARK 922        TOTAL FREE ENERGY PREDICTED BY IDOCK:   -6.58 KCAL/MOL
REMARK 923 INTER-LIGAND FREE ENERGY PREDICTED BY IDOCK:   -7.83 KCAL/MOL
REMARK 924 INTRA-LIGAND FREE ENERGY PREDICTED BY IDOCK:    1.25 KCAL/MOL
REMARK 927      BINDING AFFINITY PREDICTED BY RF-SCORE:    0.00 PKD
ROOT
HETATM    1  C   UNL     1      -5.787   8.821  72.329  1.00  0.00    -0.071 C  
HETATM    2  O   UNL     1      -7.025   9.404  71.935  1.00  0.00    -0.311 OA 
ENDROOT
BRANCH   2   3
HETATM    3  C   UNL     1      -7.631   8.894  70.818  1.00  0.00    -0.103 A  
HETATM    4  C   UNL     1      -8.241   7.633  70.790  1.00  0.00    -0.109 A  
HETATM    5  C   UNL     1      -8.807   7.101  69.642  1.00  0.00    -0.141 A  
HETATM    6  C   UNL     1      -8.821   7.873  68.469  1.00  0.00    -0.134 A  
HETATM    7  C   UNL     1      -8.258   9.168  68.497  1.00  0.00    -0.115 A  
HETATM    8  C   UNL     1      -9.383   7.273  67.321  1.00  0.00    -0.132 A  
HETATM    9  C   UNL     1      -9.901   5.982  67.383  1.00  0.00    -0.147 A  
HETATM   10  C   UNL     1      -7.624   9.660  69.645  1.00  0.00    -0.114 A  
HETATM   11  N   UNL     1      -9.299   5.854  69.706  1.00  0.00    -0.146 NA 
HETATM   12  C   UNL     1      -9.823   5.317  68.587  1.00  0.00    -0.155 A  
BRANCH   8  13
HETATM   13  O   UNL     1      -9.463   8.051  66.185  1.00  0.00    -0.190 OA 
BRANCH  13  14
HETATM   14  C   UNL     1      -9.506   9.421  66.277  1.00  0.00    -0.214 A  
HETATM   15  C   UNL     1     -10.687   9.946  66.797  1.00  0.00    -0.154 A  
HETATM   16  C   UNL     1     -10.815  11.320  67.010  1.00  0.00    -0.332 A  
HETATM   17  C   UNL     1      -9.764  12.187  66.709  1.00  0.00    -0.207 A  
HETATM   18  C   UNL     1      -8.449  10.277  65.982  1.00  0.00    -0.144 A  
HETATM   19  C   UNL     1      -8.586  11.658  66.171  1.00  0.00    -0.053 A  
BRANCH  17  20
HETATM   20  N   UNL     1      -9.825  13.580  66.930  1.00  0.00    -0.250 N  
HETATM   21  H   UNL     1      -9.168  13.973  67.604  1.00  0.00     0.000 HD 
HETATM   22  C   UNL     1     -10.692  14.459  66.317  1.00  0.00    -0.307 C  
HETATM   23  O   UNL     1     -11.592  14.202  65.534  1.00  0.00    -0.322 OA 
BRANCH  22  24
HETATM   24  C   UNL     1     -10.473  15.896  66.667  1.00  0.00    -0.306 C  
HETATM   25  C   UNL     1      -9.275  16.577  66.011  1.00  0.00    -0.295 C  
HETATM   26  C   UNL     1     -10.657  16.975  65.602  1.00  0.00    -0.206 C  
BRANCH  24  27
HETATM   27  C   UNL     1     -10.848  16.230  68.072  1.00  0.00    -0.339 C  
HETATM   28  O   UNL     1     -10.701  17.381  68.463  1.00  0.00    -0.348 OA 
HETATM   29  N   UNL     1     -11.338  15.167  68.806  1.00  0.00    -0.283 N  
HETATM   30  H   UNL     1     -11.339  14.241  68.376  1.00  0.00     0.000 HD 
BRANCH  29  31
HETATM   31  C   UNL     1     -11.833  15.296  70.115  1.00  0.00    -0.323 A  
HETATM   32  C   UNL     1     -11.006  15.133  71.233  1.00  0.00    -0.155 A  
HETATM   33  C   UNL     1     -11.541  15.197  72.519  1.00  0.00    -0.448 A  
HETATM   34  C   UNL     1     -12.905  15.399  72.679  1.00  0.00    -0.402 A  
HETATM   35  C   UNL     1     -13.732  15.597  71.578  1.00  0.00    -0.431 A  
HETATM   36  F   UNL     1     -13.432  15.398  73.910  1.00  0.00    -0.377 F  
HETATM   37  C   UNL     1     -13.189  15.583  70.291  1.00  0.00     0.089 A  
ENDBRANCH  29  31
ENDBRANCH  24  27
ENDBRANCH  22  24
ENDBRANCH  17  20
ENDBRANCH  13  14
ENDBRANCH   8  13
BRANCH  10  38
HETATM   38  O   UNL     1      -7.087  10.912  69.490  1.00  0.00    -0.115 OA 
HETATM   39  C   UNL     1      -5.753  10.958  68.994  1.00  0.00    -0.040 C  
ENDBRANCH  10  38
ENDBRANCH   2   3
TORSDOF 8
ENDMDL
MODEL      110
REMARK 921   NORMALIZED FREE ENERGY PREDICTED BY IDOCK:   -3.21 KCAL/MOL
REMARK 922        TOTAL FREE ENERGY PREDICTED BY IDOCK:   -6.18 KCAL/MOL
REMARK 923 INTER-LIGAND FREE ENERGY PREDICTED BY IDOCK:   -5.92 KCAL/MOL
REMARK 924 INTRA-LIGAND FREE ENERGY PREDICTED BY IDOCK:   -0.26 KCAL/MOL
REMARK 927      BINDING AFFINITY PREDICTED BY RF-SCORE:    0.00 PKD
ROOT
HETATM    1  C   UNL     1     -11.099   1.551  72.807  1.00  0.00    -0.098 C  
HETATM    2  O   UNL     1     -10.111   1.623  71.784  1.00  0.00    -0.149 OA 
ENDROOT
BRANCH   2   3
HETATM    3  C   UNL     1      -9.782   2.868  71.317  1.00  0.00    -0.135 A  
HETATM    4  C   UNL     1      -9.470   3.121  69.976  1.00  0.00    -0.219 A  
HETATM    5  C   UNL     1      -9.087   4.372  69.520  1.00  0.00    -0.115 A  
HETATM    6  C   UNL     1      -9.060   5.448  70.423  1.00  0.00    -0.170 A  
HETATM    7  C   UNL     1      -9.426   5.218  71.768  1.00  0.00    -0.183 A  
HETATM    8  C   UNL     1      -8.636   6.694  69.914  1.00  0.00    -0.140 A  
HETATM    9  C   UNL     1      -8.278   6.823  68.574  1.00  0.00    -0.120 A  
HETATM   10  C   UNL     1      -9.738   3.932  72.227  1.00  0.00    -0.154 A  
HETATM   11  N   UNL     1      -8.738   4.490  68.229  1.00  0.00    -0.098 NA 
HETATM   12  C   UNL     1      -8.334   5.695  67.785  1.00  0.00    -0.100 A  
BRANCH   8  13
HETATM   13  O   UNL     1      -8.675   7.768  70.779  1.00  0.00    -0.132 OA 
BRANCH  13  14
HETATM   14  C   UNL     1      -8.384   9.035  70.334  1.00  0.00    -0.164 A  
HETATM   15  C   UNL     1      -7.119   9.508  70.673  1.00  0.00    -0.128 A  
HETATM   16  C   UNL     1      -6.683  10.751  70.210  1.00  0.00    -0.052 A  
HETATM   17  C   UNL     1      -7.505  11.536  69.400  1.00  0.00     0.110 A  
HETATM   18  C   UNL     1      -9.208   9.806  69.520  1.00  0.00    -0.226 A  
HETATM   19  C   UNL     1      -8.782  11.065  69.076  1.00  0.00    -0.072 A  
BRANCH  17  20
HETATM   20  N   UNL     1      -7.108  12.787  68.878  1.00  0.00    -0.176 N  
HETATM   21  H   UNL     1      -7.181  12.913  67.869  1.00  0.00     0.000 HD 
HETATM   22  C   UNL     1      -6.630  13.853  69.610  1.00  0.00    -0.082 C  
HETATM   23  O   UNL     1      -6.404  13.900  70.808  1.00  0.00    -0.094 OA 
BRANCH  22  24
HETATM   24  C   UNL     1      -6.376  15.091  68.812  1.00  0.00    -0.082 C  
HETATM   25  C   UNL     1      -5.163  15.924  69.220  1.00  0.00    -0.109 C  
HETATM   26  C   UNL     1      -5.138  15.183  67.922  1.00  0.00    -0.100 C  
BRANCH  24  27
HETATM   27  C   UNL     1      -7.624  15.765  68.345  1.00  0.00    -0.130 C  
HETATM   28  O   UNL     1      -8.693  15.186  68.487  1.00  0.00    -0.158 OA 
HETATM   29  N   UNL     1      -7.429  17.011  67.781  1.00  0.00    -0.163 N  
HETATM   30  H   UNL     1      -6.471  17.343  67.659  1.00  0.00     0.000 HD 
BRANCH  29  31
HETATM   31  C   UNL     1      -8.483  17.843  67.369  1.00  0.00    -0.235 A  
HETATM   32  C   UNL     1      -9.467  17.396  66.478  1.00  0.00    -0.288 A  
HETATM   33  C   UNL     1     -10.460  18.267  66.031  1.00  0.00    -0.380 A  
HETATM   34  C   UNL     1     -10.449  19.588  66.459  1.00  0.00    -0.493 A  
HETATM   35  C   UNL     1      -9.498  20.036  67.370  1.00  0.00    -0.508 A  
HETATM   36  F   UNL     1     -11.363  20.443  65.984  1.00  0.00     0.001 F  
HETATM   37  C   UNL     1      -8.532  19.151  67.857  1.00  0.00    -0.335 A  
ENDBRANCH  29  31
ENDBRANCH  24  27
ENDBRANCH  22  24
ENDBRANCH  17  20
ENDBRANCH  13  14
ENDBRANCH   8  13
BRANCH  10  38
HETATM   38  O   UNL     1     -10.021   3.874  73.568  1.00  0.00    -0.116 OA 
HETATM   39  C   UNL     1      -9.502   4.939  74.358  1.00  0.00    -0.127 C  
ENDBRANCH  10  38
ENDBRANCH   2   3
TORSDOF 8
ENDMDL
MODEL      111
REMARK 921   NORMALIZED FREE ENERGY PREDICTED BY IDOCK:   -3.21 KCAL/MOL
REMARK 922        TOTAL FREE ENERGY PREDICTED BY IDOCK:   -6.18 KCAL/MOL
REMARK 923 INTER-LIGAND FREE ENERGY PREDICTED BY IDOCK:   -7.28 KCAL/MOL
REMARK 924 INTRA-LIGAND FREE ENERGY PREDICTED BY IDOCK:    1.10 KCAL/MOL
REMARK 927      BINDING AFFINITY PREDICTED BY RF-SCORE:    0.00 PKD
ROOT
HETATM    1  C   UNL     1      -5.334   2.810  68.520  1.00  0.00    -0.013 C  
HETATM    2  O   UNL     1      -5.132   3.845  69.477  1.00  0.00    -0.003 OA 
ENDROOT
BRANCH   2   3
HETATM    3  C   UNL     1      -6.205   4.199  70.253  1.00  0.00    -0.026 A  
HETATM    4  C   UNL     1      -6.122   4.353  71.643  1.00  0.00    -0.017 A  
HETATM    5  C   UNL     1      -7.222   4.660  72.427  1.00  0.00    -0.080 A  
HETATM    6  C   UNL     1      -8.463   4.880  71.807  1.00  0.00    -0.124 A  
HETATM    7  C   UNL     1      -8.548   4.781  70.400  1.00  0.00    -0.117 A  
HETATM    8  C   UNL     1      -9.556   5.162  72.653  1.00  0.00    -0.147 A  
HETATM    9  C   UNL     1      -9.380   5.222  74.034  1.00  0.00    -0.129 A  
HETATM   10  C   UNL     1      -7.444   4.397  69.629  1.00  0.00    -0.051 A  
HETATM   11  N   UNL     1      -7.049   4.712  73.757  1.00  0.00    -0.071 NA 
HETATM   12  C   UNL     1      -8.118   4.979  74.531  1.00  0.00    -0.098 A  
BRANCH   8  13
HETATM   13  O   UNL     1     -10.760   5.447  72.045  1.00  0.00    -0.224 OA 
BRANCH  13  14
HETATM   14  C   UNL     1     -10.879   6.524  71.201  1.00  0.00    -0.249 A  
HETATM   15  C   UNL     1     -12.170   7.029  71.058  1.00  0.00    -0.419 A  
HETATM   16  C   UNL     1     -12.400   8.170  70.287  1.00  0.00     0.642 A  
HETATM   17  C   UNL     1     -11.344   8.823  69.651  1.00  0.00     0.179 A  
HETATM   18  C   UNL     1      -9.818   7.174  70.577  1.00  0.00    -0.181 A  
HETATM   19  C   UNL     1     -10.052   8.304  69.783  1.00  0.00    -0.197 A  
BRANCH  17  20
HETATM   20  N   UNL     1     -11.512   9.996  68.883  1.00  0.00    -0.491 N  
HETATM   21  H   UNL     1     -12.340  10.047  68.289  1.00  0.00     0.000 HD 
HETATM   22  C   UNL     1     -10.659  11.078  68.863  1.00  0.00    -0.207 C  
HETATM   23  O   UNL     1      -9.591  11.203  69.439  1.00  0.00     0.002 OA 
BRANCH  22  24
HETATM   24  C   UNL     1     -11.131  12.228  68.031  1.00  0.00    -0.285 C  
HETATM   25  C   UNL     1     -10.410  12.445  66.704  1.00  0.00    -0.245 C  
HETATM   26  C   UNL     1     -11.826  11.967  66.697  1.00  0.00    -0.239 C  
BRANCH  24  27
HETATM   27  C   UNL     1     -11.584  13.399  68.839  1.00  0.00    -0.314 C  
HETATM   28  O   UNL     1     -11.838  14.449  68.261  1.00  0.00    -0.325 OA 
HETATM   29  N   UNL     1     -11.670  13.163  70.197  1.00  0.00    -0.527 N  
HETATM   30  H   UNL     1     -11.357  12.259  70.553  1.00  0.00     0.000 HD 
BRANCH  29  31
HETATM   31  C   UNL     1     -12.166  14.107  71.113  1.00  0.00    -0.358 A  
HETATM   32  C   UNL     1     -11.424  15.236  71.479  1.00  0.00    -0.457 A  
HETATM   33  C   UNL     1     -11.912  16.117  72.444  1.00  0.00    -0.649 A  
HETATM   34  C   UNL     1     -13.130  15.849  73.055  1.00  0.00    -0.541 A  
HETATM   35  C   UNL     1     -13.893  14.749  72.676  1.00  0.00    -0.506 A  
HETATM   36  F   UNL     1     -13.572  16.658  74.026  1.00  0.00    -0.181 F  
HETATM   37  C   UNL     1     -13.428  13.894  71.674  1.00  0.00    -0.428 A  
ENDBRANCH  29  31
ENDBRANCH  24  27
ENDBRANCH  22  24
ENDBRANCH  17  20
ENDBRANCH  13  14
ENDBRANCH   8  13
BRANCH  10  38
HETATM   38  O   UNL     1      -7.708   4.301  68.287  1.00  0.00    -0.073 OA 
HETATM   39  C   UNL     1      -8.981   3.762  67.944  1.00  0.00    -0.127 C  
ENDBRANCH  10  38
ENDBRANCH   2   3
TORSDOF 8
ENDMDL
MODEL      112
REMARK 921   NORMALIZED FREE ENERGY PREDICTED BY IDOCK:   -3.17 KCAL/MOL
REMARK 922        TOTAL FREE ENERGY PREDICTED BY IDOCK:   -6.12 KCAL/MOL
REMARK 923 INTER-LIGAND FREE ENERGY PREDICTED BY IDOCK:   -6.51 KCAL/MOL
REMARK 924 INTRA-LIGAND FREE ENERGY PREDICTED BY IDOCK:    0.39 KCAL/MOL
REMARK 927      BINDING AFFINITY PREDICTED BY RF-SCORE:    0.00 PKD
ROOT
HETATM    1  C   UNL     1     -12.971  13.522  65.066  1.00  0.00    -0.153 C  
HETATM    2  O   UNL     1     -12.658  12.385  65.863  1.00  0.00    -0.475 OA 
ENDROOT
BRANCH   2   3
HETATM    3  C   UNL     1     -11.341  12.194  66.192  1.00  0.00    -0.361 A  
HETATM    4  C   UNL     1     -10.403  11.660  65.301  1.00  0.00    -0.316 A  
HETATM    5  C   UNL     1      -9.085  11.420  65.657  1.00  0.00    -0.161 A  
HETATM    6  C   UNL     1      -8.652  11.775  66.945  1.00  0.00    -0.177 A  
HETATM    7  C   UNL     1      -9.575  12.366  67.836  1.00  0.00    -0.205 A  
HETATM    8  C   UNL     1      -7.308  11.485  67.266  1.00  0.00    -0.131 A  
HETATM    9  C   UNL     1      -6.474  10.884  66.327  1.00  0.00    -0.129 A  
HETATM   10  C   UNL     1     -10.921  12.532  67.485  1.00  0.00    -0.251 A  
HETATM   11  N   UNL     1      -8.287  10.836  64.750  1.00  0.00    -0.065 NA 
HETATM   12  C   UNL     1      -7.013  10.572  65.098  1.00  0.00    -0.023 A  
BRANCH   8  13
HETATM   13  O   UNL     1      -6.859  11.895  68.504  1.00  0.00    -0.065 OA 
BRANCH  13  14
HETATM   14  C   UNL     1      -6.682  13.229  68.776  1.00  0.00    -0.099 A  
HETATM   15  C   UNL     1      -6.091  13.972  67.756  1.00  0.00    -0.134 A  
HETATM   16  C   UNL     1      -5.932  15.352  67.889  1.00  0.00    -0.165 A  
HETATM   17  C   UNL     1      -6.362  16.009  69.043  1.00  0.00    -0.140 A  
HETATM   18  C   UNL     1      -7.122  13.877  69.927  1.00  0.00     0.301 A  
HETATM   19  C   UNL     1      -6.939  15.258  70.072  1.00  0.00    -0.054 A  
BRANCH  17  20
HETATM   20  N   UNL     1      -6.254  17.406  69.222  1.00  0.00    -0.226 N  
HETATM   21  H   UNL     1      -6.627  17.999  68.480  1.00  0.00     0.000 HD 
HETATM   22  C   UNL     1      -5.690  18.041  70.307  1.00  0.00    -0.203 C  
HETATM   23  O   UNL     1      -5.133  17.534  71.267  1.00  0.00    -0.425 OA 
BRANCH  22  24
HETATM   24  C   UNL     1      -5.796  19.532  70.280  1.00  0.00    -0.293 C  
HETATM   25  C   UNL     1      -6.735  20.162  71.306  1.00  0.00     0.297 C  
HETATM   26  C   UNL     1      -5.259  20.354  71.450  1.00  0.00    -0.326 C  
BRANCH  24  27
HETATM   27  C   UNL     1      -5.686  20.113  68.909  1.00  0.00    -0.264 C  
HETATM   28  O   UNL     1      -5.128  21.194  68.771  1.00  0.00    -0.287 OA 
HETATM   29  N   UNL     1      -6.245  19.339  67.911  1.00  0.00    -0.206 N  
HETATM   30  H   UNL     1      -6.745  18.490  68.177  1.00  0.00     0.000 HD 
BRANCH  29  31
HETATM   31  C   UNL     1      -6.161  19.665  66.546  1.00  0.00    -0.167 A  
HETATM   32  C   UNL     1      -5.398  18.901  65.654  1.00  0.00    -0.189 A  
HETATM   33  C   UNL     1      -5.276  19.290  64.320  1.00  0.00    -0.248 A  
HETATM   34  C   UNL     1      -5.899  20.455  63.893  1.00  0.00    -0.274 A  
HETATM   35  C   UNL     1      -6.687  21.204  64.760  1.00  0.00     0.115 A  
HETATM   36  F   UNL     1      -5.733  20.865  62.629  1.00  0.00    -0.213 F  
HETATM   37  C   UNL     1      -6.851  20.788  66.083  1.00  0.00    -0.202 A  
ENDBRANCH  29  31
ENDBRANCH  24  27
ENDBRANCH  22  24
ENDBRANCH  17  20
ENDBRANCH  13  14
ENDBRANCH   8  13
BRANCH  10  38
HETATM   38  O   UNL     1     -11.693  13.074  68.481  1.00  0.00    -0.302 OA 
HETATM   39  C   UNL     1     -11.661  12.391  69.730  1.00  0.00    -0.291 C  
ENDBRANCH  10  38
ENDBRANCH   2   3
TORSDOF 8
ENDMDL
MODEL      113
REMARK 921   NORMALIZED FREE ENERGY PREDICTED BY IDOCK:   -3.15 KCAL/MOL
REMARK 922        TOTAL FREE ENERGY PREDICTED BY IDOCK:   -6.09 KCAL/MOL
REMARK 923 INTER-LIGAND FREE ENERGY PREDICTED BY IDOCK:   -7.07 KCAL/MOL
REMARK 924 INTRA-LIGAND FREE ENERGY PREDICTED BY IDOCK:    0.98 KCAL/MOL
REMARK 927      BINDING AFFINITY PREDICTED BY RF-SCORE:    0.00 PKD
ROOT
HETATM    1  C   UNL     1      -8.695   9.264  62.344  1.00  0.00    -0.235 C  
HETATM    2  O   UNL     1      -7.372   8.966  62.775  1.00  0.00    -0.096 OA 
ENDROOT
BRANCH   2   3
HETATM    3  C   UNL     1      -7.223   7.956  63.689  1.00  0.00    -0.090 A  
HETATM    4  C   UNL     1      -7.041   6.617  63.323  1.00  0.00    -0.055 A  
HETATM    5  C   UNL     1      -6.943   5.594  64.253  1.00  0.00    -0.051 A  
HETATM    6  C   UNL     1      -6.973   5.911  65.621  1.00  0.00    -0.068 A  
HETATM    7  C   UNL     1      -7.101   7.265  66.004  1.00  0.00    -0.066 A  
HETATM    8  C   UNL     1      -6.898   4.830  66.526  1.00  0.00    -0.058 A  
HETATM    9  C   UNL     1      -6.790   3.524  66.054  1.00  0.00    -0.060 A  
HETATM   10  C   UNL     1      -7.274   8.277  65.052  1.00  0.00    -0.080 A  
HETATM   11  N   UNL     1      -6.845   4.337  63.794  1.00  0.00    -0.043 NA 
HETATM   12  C   UNL     1      -6.781   3.333  64.690  1.00  0.00    -0.040 A  
BRANCH   8  13
HETATM   13  O   UNL     1      -6.857   5.141  67.868  1.00  0.00    -0.057 OA 
BRANCH  13  14
HETATM   14  C   UNL     1      -7.863   5.874  68.448  1.00  0.00    -0.105 A  
HETATM   15  C   UNL     1      -7.444   6.859  69.339  1.00  0.00    -0.094 A  
HETATM   16  C   UNL     1      -8.373   7.718  69.929  1.00  0.00    -0.130 A  
HETATM   17  C   UNL     1      -9.733   7.604  69.636  1.00  0.00    -0.171 A  
HETATM   18  C   UNL     1      -9.216   5.758  68.143  1.00  0.00    -0.110 A  
HETATM   19  C   UNL     1     -10.152   6.602  68.755  1.00  0.00    -0.168 A  
BRANCH  17  20
HETATM   20  N   UNL     1     -10.715   8.462  70.180  1.00  0.00    -0.234 N  
HETATM   21  H   UNL     1     -10.541   9.465  70.116  1.00  0.00     0.000 HD 
HETATM   22  C   UNL     1     -11.886   8.067  70.789  1.00  0.00    -0.162 C  
HETATM   23  O   UNL     1     -12.262   6.931  71.026  1.00  0.00    -0.373 OA 
BRANCH  22  24
HETATM   24  C   UNL     1     -12.790   9.189  71.187  1.00  0.00    -0.251 C  
HETATM   25  C   UNL     1     -14.234   8.814  71.508  1.00  0.00    -0.364 C  
HETATM   26  C   UNL     1     -13.332   9.260  72.613  1.00  0.00    -0.352 C  
BRANCH  24  27
HETATM   27  C   UNL     1     -12.486  10.474  70.490  1.00  0.00    -0.347 C  
HETATM   28  O   UNL     1     -12.693  11.527  71.080  1.00  0.00    -0.393 OA 
HETATM   29  N   UNL     1     -11.989  10.330  69.210  1.00  0.00    -0.515 N  
HETATM   30  H   UNL     1     -11.934   9.391  68.813  1.00  0.00     0.000 HD 
BRANCH  29  31
HETATM   31  C   UNL     1     -11.553  11.413  68.426  1.00  0.00    -0.315 A  
HETATM   32  C   UNL     1     -10.953  11.220  67.175  1.00  0.00    -0.348 A  
HETATM   33  C   UNL     1     -10.467  12.310  66.453  1.00  0.00    -0.263 A  
HETATM   34  C   UNL     1     -10.562  13.583  66.998  1.00  0.00    -0.269 A  
HETATM   35  C   UNL     1     -11.185  13.792  68.224  1.00  0.00    -0.301 A  
HETATM   36  F   UNL     1     -10.040  14.623  66.336  1.00  0.00    -0.249 F  
HETATM   37  C   UNL     1     -11.718  12.707  68.925  1.00  0.00    -0.370 A  
ENDBRANCH  29  31
ENDBRANCH  24  27
ENDBRANCH  22  24
ENDBRANCH  17  20
ENDBRANCH  13  14
ENDBRANCH   8  13
BRANCH  10  38
HETATM   38  O   UNL     1      -7.434   9.527  65.593  1.00  0.00    -0.091 OA 
HETATM   39  C   UNL     1      -6.233  10.210  65.941  1.00  0.00    -0.096 C  
ENDBRANCH  10  38
ENDBRANCH   2   3
TORSDOF 8
ENDMDL
MODEL      114
REMARK 921   NORMALIZED FREE ENERGY PREDICTED BY IDOCK:   -3.13 KCAL/MOL
REMARK 922        TOTAL FREE ENERGY PREDICTED BY IDOCK:   -6.06 KCAL/MOL
REMARK 923 INTER-LIGAND FREE ENERGY PREDICTED BY IDOCK:   -7.11 KCAL/MOL
REMARK 924 INTRA-LIGAND FREE ENERGY PREDICTED BY IDOCK:    1.06 KCAL/MOL
REMARK 927      BINDING AFFINITY PREDICTED BY RF-SCORE:    0.00 PKD
ROOT
HETATM    1  C   UNL     1     -12.647  15.955  72.213  1.00  0.00    -0.454 C  
HETATM    2  O   UNL     1     -13.160  15.450  70.985  1.00  0.00    -0.454 OA 
ENDROOT
BRANCH   2   3
HETATM    3  C   UNL     1     -12.250  15.111  70.018  1.00  0.00    -0.338 A  
HETATM    4  C   UNL     1     -11.878  15.980  68.984  1.00  0.00    -0.258 A  
HETATM    5  C   UNL     1     -10.998  15.613  67.980  1.00  0.00    -0.318 A  
HETATM    6  C   UNL     1     -10.409  14.338  68.021  1.00  0.00    -0.229 A  
HETATM    7  C   UNL     1     -10.734  13.472  69.089  1.00  0.00    -0.118 A  
HETATM    8  C   UNL     1      -9.541  14.004  66.959  1.00  0.00    -0.253 A  
HETATM    9  C   UNL     1      -9.292  14.918  65.939  1.00  0.00    -0.216 A  
HETATM   10  C   UNL     1     -11.682  13.831  70.054  1.00  0.00    -0.257 A  
HETATM   11  N   UNL     1     -10.765  16.495  66.996  1.00  0.00    -0.247 NA 
HETATM   12  C   UNL     1      -9.935  16.136  65.998  1.00  0.00    -0.348 A  
BRANCH   8  13
HETATM   13  O   UNL     1      -8.906  12.782  67.032  1.00  0.00    -0.206 OA 
BRANCH  13  14
HETATM   14  C   UNL     1      -9.524  11.707  67.623  1.00  0.00    -0.177 A  
HETATM   15  C   UNL     1      -8.766  11.037  68.580  1.00  0.00    -0.161 A  
HETATM   16  C   UNL     1      -9.317   9.978  69.304  1.00  0.00    -0.224 A  
HETATM   17  C   UNL     1     -10.635   9.575  69.080  1.00  0.00    -0.222 A  
HETATM   18  C   UNL     1     -10.842  11.318  67.399  1.00  0.00    -0.311 A  
HETATM   19  C   UNL     1     -11.388  10.238  68.105  1.00  0.00    -0.233 A  
BRANCH  17  20
HETATM   20  N   UNL     1     -11.255   8.530  69.800  1.00  0.00    -0.445 N  
HETATM   21  H   UNL     1     -11.457   7.671  69.289  1.00  0.00     0.000 HD 
HETATM   22  C   UNL     1     -11.613   8.566  71.131  1.00  0.00    -0.281 C  
HETATM   23  O   UNL     1     -11.524   9.504  71.906  1.00  0.00    -0.355 OA 
BRANCH  22  24
HETATM   24  C   UNL     1     -12.166   7.283  71.661  1.00  0.00    -0.377 C  
HETATM   25  C   UNL     1     -13.506   7.372  72.388  1.00  0.00     0.245 C  
HETATM   26  C   UNL     1     -13.440   6.695  71.057  1.00  0.00     0.411 C  
BRANCH  24  27
HETATM   27  C   UNL     1     -11.117   6.335  72.139  1.00  0.00    -0.269 C  
HETATM   28  O   UNL     1     -11.003   6.140  73.343  1.00  0.00    -0.246 OA 
HETATM   29  N   UNL     1     -10.361   5.760  71.136  1.00  0.00    -0.217 N  
HETATM   30  H   UNL     1     -10.516   6.069  70.175  1.00  0.00     0.000 HD 
BRANCH  29  31
HETATM   31  C   UNL     1      -9.390   4.772  71.372  1.00  0.00    -0.147 A  
HETATM   32  C   UNL     1      -9.741   3.435  71.596  1.00  0.00    -0.234 A  
HETATM   33  C   UNL     1      -8.760   2.491  71.898  1.00  0.00    -0.105 A  
HETATM   34  C   UNL     1      -7.436   2.896  72.001  1.00  0.00    -0.048 A  
HETATM   35  C   UNL     1      -7.070   4.214  71.748  1.00  0.00    -0.049 A  
HETATM   36  F   UNL     1      -6.500   2.005  72.353  1.00  0.00    -0.012 F  
HETATM   37  C   UNL     1      -8.045   5.150  71.395  1.00  0.00    -0.114 A  
ENDBRANCH  29  31
ENDBRANCH  24  27
ENDBRANCH  22  24
ENDBRANCH  17  20
ENDBRANCH  13  14
ENDBRANCH   8  13
BRANCH  10  38
HETATM   38  O   UNL     1     -11.918  12.858  70.991  1.00  0.00    -0.112 OA 
HETATM   39  C   UNL     1     -13.102  12.089  70.801  1.00  0.00     0.267 C  
ENDBRANCH  10  38
ENDBRANCH   2   3
TORSDOF 8
ENDMDL
MODEL      115
REMARK 921   NORMALIZED FREE ENERGY PREDICTED BY IDOCK:   -3.06 KCAL/MOL
REMARK 922        TOTAL FREE ENERGY PREDICTED BY IDOCK:   -5.97 KCAL/MOL
REMARK 923 INTER-LIGAND FREE ENERGY PREDICTED BY IDOCK:   -6.52 KCAL/MOL
REMARK 924 INTRA-LIGAND FREE ENERGY PREDICTED BY IDOCK:    0.56 KCAL/MOL
REMARK 927      BINDING AFFINITY PREDICTED BY RF-SCORE:    0.00 PKD
ROOT
HETATM    1  C   UNL     1      -5.939   1.467  71.088  1.00  0.00    -0.017 C  
HETATM    2  O   UNL     1      -6.281   2.662  70.394  1.00  0.00    -0.022 OA 
ENDROOT
BRANCH   2   3
HETATM    3  C   UNL     1      -7.389   3.343  70.826  1.00  0.00    -0.037 A  
HETATM    4  C   UNL     1      -7.653   3.589  72.179  1.00  0.00    -0.058 A  
HETATM    5  C   UNL     1      -8.801   4.232  72.613  1.00  0.00    -0.104 A  
HETATM    6  C   UNL     1      -9.717   4.708  71.660  1.00  0.00    -0.235 A  
HETATM    7  C   UNL     1      -9.436   4.515  70.289  1.00  0.00    -0.241 A  
HETATM    8  C   UNL     1     -10.883   5.331  72.155  1.00  0.00    -0.188 A  
HETATM    9  C   UNL     1     -11.083   5.462  73.527  1.00  0.00    -0.273 A  
HETATM   10  C   UNL     1      -8.309   3.797  69.871  1.00  0.00    -0.055 A  
HETATM   11  N   UNL     1      -8.992   4.351  73.936  1.00  0.00    -0.103 NA 
HETATM   12  C   UNL     1     -10.120   4.947  74.367  1.00  0.00    -0.235 A  
BRANCH   8  13
HETATM   13  O   UNL     1     -11.751   5.862  71.224  1.00  0.00    -0.142 OA 
BRANCH  13  14
HETATM   14  C   UNL     1     -11.291   6.700  70.238  1.00  0.00    -0.374 A  
HETATM   15  C   UNL     1     -10.666   7.860  70.687  1.00  0.00    -0.230 A  
HETATM   16  C   UNL     1     -10.090   8.749  69.777  1.00  0.00    -0.198 A  
HETATM   17  C   UNL     1     -10.130   8.489  68.407  1.00  0.00    -0.194 A  
HETATM   18  C   UNL     1     -11.329   6.427  68.873  1.00  0.00    -0.292 A  
HETATM   19  C   UNL     1     -10.775   7.332  67.958  1.00  0.00    -0.209 A  
BRANCH  17  20
HETATM   20  N   UNL     1      -9.540   9.336  67.442  1.00  0.00    -0.145 N  
HETATM   21  H   UNL     1      -9.674   9.086  66.462  1.00  0.00     0.000 HD 
HETATM   22  C   UNL     1      -8.801  10.469  67.705  1.00  0.00    -0.131 C  
HETATM   23  O   UNL     1      -8.468  10.912  68.792  1.00  0.00    -0.142 OA 
BRANCH  22  24
HETATM   24  C   UNL     1      -8.377  11.231  66.491  1.00  0.00    -0.168 C  
HETATM   25  C   UNL     1      -7.099  10.756  65.805  1.00  0.00    -0.053 C  
HETATM   26  C   UNL     1      -8.413  10.560  65.119  1.00  0.00    -0.170 C  
BRANCH  24  27
HETATM   27  C   UNL     1      -8.692  12.689  66.564  1.00  0.00    -0.003 C  
HETATM   28  O   UNL     1      -9.710  13.099  66.022  1.00  0.00    -0.279 OA 
HETATM   29  N   UNL     1      -7.766  13.443  67.258  1.00  0.00    -0.329 N  
HETATM   30  H   UNL     1      -6.921  12.981  67.598  1.00  0.00     0.000 HD 
BRANCH  29  31
HETATM   31  C   UNL     1      -7.929  14.814  67.519  1.00  0.00    -0.188 A  
HETATM   32  C   UNL     1      -7.133  15.483  68.457  1.00  0.00    -0.115 A  
HETATM   33  C   UNL     1      -7.366  16.827  68.747  1.00  0.00    -0.227 A  
HETATM   34  C   UNL     1      -8.411  17.487  68.115  1.00  0.00    -0.249 A  
HETATM   35  C   UNL     1      -9.188  16.844  67.157  1.00  0.00    -0.238 A  
HETATM   36  F   UNL     1      -8.677  18.760  68.437  1.00  0.00    -0.313 F  
HETATM   37  C   UNL     1      -8.923  15.512  66.829  1.00  0.00    -0.295 A  
ENDBRANCH  29  31
ENDBRANCH  24  27
ENDBRANCH  22  24
ENDBRANCH  17  20
ENDBRANCH  13  14
ENDBRANCH   8  13
BRANCH  10  38
HETATM   38  O   UNL     1      -8.210   3.658  68.511  1.00  0.00    -0.072 OA 
HETATM   39  C   UNL     1      -9.384   3.198  67.849  1.00  0.00    -0.201 C  
ENDBRANCH  10  38
ENDBRANCH   2   3
TORSDOF 8
ENDMDL
MODEL      116
REMARK 921   NORMALIZED FREE ENERGY PREDICTED BY IDOCK:   -2.87 KCAL/MOL
REMARK 922        TOTAL FREE ENERGY PREDICTED BY IDOCK:   -5.67 KCAL/MOL
REMARK 923 INTER-LIGAND FREE ENERGY PREDICTED BY IDOCK:   -5.51 KCAL/MOL
REMARK 924 INTRA-LIGAND FREE ENERGY PREDICTED BY IDOCK:   -0.17 KCAL/MOL
REMARK 927      BINDING AFFINITY PREDICTED BY RF-SCORE:    0.00 PKD
ROOT
HETATM    1  C   UNL     1     -13.571   7.000  71.412  1.00  0.00    -0.212 C  
HETATM    2  O   UNL     1     -13.047   6.701  72.701  1.00  0.00     0.411 OA 
ENDROOT
BRANCH   2   3
HETATM    3  C   UNL     1     -11.740   6.297  72.769  1.00  0.00    -0.039 A  
HETATM    4  C   UNL     1     -11.363   4.971  73.017  1.00  0.00    -0.374 A  
HETATM    5  C   UNL     1     -10.039   4.579  73.135  1.00  0.00    -0.156 A  
HETATM    6  C   UNL     1      -9.026   5.534  72.947  1.00  0.00    -0.123 A  
HETATM    7  C   UNL     1      -9.392   6.864  72.642  1.00  0.00    -0.155 A  
HETATM    8  C   UNL     1      -7.696   5.090  73.107  1.00  0.00    -0.093 A  
HETATM    9  C   UNL     1      -7.432   3.760  73.425  1.00  0.00    -0.069 A  
HETATM   10  C   UNL     1     -10.735   7.259  72.600  1.00  0.00    -0.278 A  
HETATM   11  N   UNL     1      -9.790   3.298  73.448  1.00  0.00    -0.108 NA 
HETATM   12  C   UNL     1      -8.507   2.915  73.596  1.00  0.00    -0.073 A  
BRANCH   8  13
HETATM   13  O   UNL     1      -6.697   6.005  72.855  1.00  0.00    -0.071 OA 
BRANCH  13  14
HETATM   14  C   UNL     1      -6.785   6.860  71.783  1.00  0.00    -0.053 A  
HETATM   15  C   UNL     1      -6.605   8.208  72.080  1.00  0.00    -0.073 A  
HETATM   16  C   UNL     1      -6.596   9.161  71.060  1.00  0.00    -0.086 A  
HETATM   17  C   UNL     1      -6.765   8.779  69.729  1.00  0.00    -0.045 A  
HETATM   18  C   UNL     1      -6.946   6.467  70.457  1.00  0.00    -0.064 A  
HETATM   19  C   UNL     1      -6.963   7.425  69.435  1.00  0.00    -0.061 A  
BRANCH  17  20
HETATM   20  N   UNL     1      -6.736   9.693  68.653  1.00  0.00    -0.052 N  
HETATM   21  H   UNL     1      -5.824  10.060  68.380  1.00  0.00     0.000 HD 
HETATM   22  C   UNL     1      -7.828  10.135  67.938  1.00  0.00    -0.101 C  
HETATM   23  O   UNL     1      -9.005   9.878  68.130  1.00  0.00    -0.119 OA 
BRANCH  22  24
HETATM   24  C   UNL     1      -7.497  11.029  66.786  1.00  0.00    -0.139 C  
HETATM   25  C   UNL     1      -6.026  11.106  66.388  1.00  0.00    -0.145 C  
HETATM   26  C   UNL     1      -6.996  10.428  65.475  1.00  0.00    -0.134 C  
BRANCH  24  27
HETATM   27  C   UNL     1      -8.357  12.247  66.712  1.00  0.00    -0.087 C  
HETATM   28  O   UNL     1      -9.415  12.185  66.097  1.00  0.00    -0.234 OA 
HETATM   29  N   UNL     1      -7.849  13.351  67.368  1.00  0.00    -0.241 N  
HETATM   30  H   UNL     1      -6.918  13.284  67.781  1.00  0.00     0.000 HD 
BRANCH  29  31
HETATM   31  C   UNL     1      -8.550  14.563  67.495  1.00  0.00    -0.189 A  
HETATM   32  C   UNL     1      -9.186  14.921  68.691  1.00  0.00    -0.193 A  
HETATM   33  C   UNL     1      -9.934  16.096  68.765  1.00  0.00    -0.231 A  
HETATM   34  C   UNL     1     -10.063  16.892  67.635  1.00  0.00    -0.278 A  
HETATM   35  C   UNL     1      -9.410  16.564  66.451  1.00  0.00    -0.316 A  
HETATM   36  F   UNL     1     -10.832  17.987  67.684  1.00  0.00    -0.402 F  
HETATM   37  C   UNL     1      -8.619  15.415  66.390  1.00  0.00    -0.244 A  
ENDBRANCH  29  31
ENDBRANCH  24  27
ENDBRANCH  22  24
ENDBRANCH  17  20
ENDBRANCH  13  14
ENDBRANCH   8  13
BRANCH  10  38
HETATM   38  O   UNL     1     -10.915   8.593  72.340  1.00  0.00    -0.353 OA 
HETATM   39  C   UNL     1     -10.188   9.112  71.231  1.00  0.00    -0.329 C  
ENDBRANCH  10  38
ENDBRANCH   2   3
TORSDOF 8
ENDMDL
MODEL      117
REMARK 921   NORMALIZED FREE ENERGY PREDICTED BY IDOCK:   -2.80 KCAL/MOL
REMARK 922        TOTAL FREE ENERGY PREDICTED BY IDOCK:   -5.58 KCAL/MOL
REMARK 923 INTER-LIGAND FREE ENERGY PREDICTED BY IDOCK:   -7.00 KCAL/MOL
REMARK 924 INTRA-LIGAND FREE ENERGY PREDICTED BY IDOCK:    1.41 KCAL/MOL
REMARK 927      BINDING AFFINITY PREDICTED BY RF-SCORE:    0.00 PKD
ROOT
HETATM    1  C   UNL     1     -10.609   4.811  66.982  1.00  0.00     0.086 C  
HETATM    2  O   UNL     1     -10.200   6.158  66.774  1.00  0.00    -0.181 OA 
ENDROOT
BRANCH   2   3
HETATM    3  C   UNL     1      -9.397   6.724  67.730  1.00  0.00    -0.116 A  
HETATM    4  C   UNL     1      -9.474   6.388  69.087  1.00  0.00    -0.137 A  
HETATM    5  C   UNL     1      -8.696   7.001  70.055  1.00  0.00    -0.142 A  
HETATM    6  C   UNL     1      -7.750   7.962  69.661  1.00  0.00    -0.103 A  
HETATM    7  C   UNL     1      -7.624   8.272  68.288  1.00  0.00    -0.101 A  
HETATM    8  C   UNL     1      -7.003   8.577  70.688  1.00  0.00    -0.043 A  
HETATM    9  C   UNL     1      -7.208   8.219  72.019  1.00  0.00    -0.106 A  
HETATM   10  C   UNL     1      -8.470   7.697  67.332  1.00  0.00    -0.122 A  
HETATM   11  N   UNL     1      -8.901   6.657  71.335  1.00  0.00    -0.139 NA 
HETATM   12  C   UNL     1      -8.170   7.270  72.286  1.00  0.00    -0.101 A  
BRANCH   8  13
HETATM   13  O   UNL     1      -6.025   9.470  70.302  1.00  0.00    -0.039 OA 
BRANCH  13  14
HETATM   14  C   UNL     1      -6.331  10.530  69.485  1.00  0.00    -0.064 A  
HETATM   15  C   UNL     1      -7.632  11.015  69.600  1.00  0.00     0.080 A  
HETATM   16  C   UNL     1      -8.033  12.139  68.876  1.00  0.00     0.096 A  
HETATM   17  C   UNL     1      -7.139  12.796  68.029  1.00  0.00    -0.111 A  
HETATM   18  C   UNL     1      -5.429  11.183  68.649  1.00  0.00    -0.043 A  
HETATM   19  C   UNL     1      -5.838  12.296  67.902  1.00  0.00    -0.079 A  
BRANCH  17  20
HETATM   20  N   UNL     1      -7.478  13.953  67.295  1.00  0.00    -0.339 N  
HETATM   21  H   UNL     1      -7.614  13.842  66.290  1.00  0.00     0.000 HD 
HETATM   22  C   UNL     1      -7.644  15.220  67.813  1.00  0.00    -0.154 C  
HETATM   23  O   UNL     1      -7.471  15.588  68.963  1.00  0.00    -0.142 OA 
BRANCH  22  24
HETATM   24  C   UNL     1      -8.099  16.243  66.822  1.00  0.00    -0.299 C  
HETATM   25  C   UNL     1      -7.979  17.702  67.252  1.00  0.00    -0.222 C  
HETATM   26  C   UNL     1      -7.083  17.181  66.175  1.00  0.00    -0.223 C  
BRANCH  24  27
HETATM   27  C   UNL     1      -9.262  15.798  65.999  1.00  0.00    -0.344 C  
HETATM   28  O   UNL     1      -9.882  16.634  65.355  1.00  0.00    -0.538 OA 
HETATM   29  N   UNL     1      -9.522  14.442  66.056  1.00  0.00    -0.493 N  
HETATM   30  H   UNL     1      -8.968  13.868  66.692  1.00  0.00     0.000 HD 
BRANCH  29  31
HETATM   31  C   UNL     1     -10.512  13.814  65.280  1.00  0.00    -0.363 A  
HETATM   32  C   UNL     1     -11.873  13.944  65.582  1.00  0.00    -0.383 A  
HETATM   33  C   UNL     1     -12.828  13.251  64.837  1.00  0.00    -0.321 A  
HETATM   34  C   UNL     1     -12.412  12.413  63.811  1.00  0.00    -0.492 A  
HETATM   35  C   UNL     1     -11.066  12.302  63.480  1.00  0.00    -0.533 A  
HETATM   36  F   UNL     1     -13.321  11.698  63.135  1.00  0.00    -0.486 F  
HETATM   37  C   UNL     1     -10.113  13.034  64.192  1.00  0.00    -0.146 A  
ENDBRANCH  29  31
ENDBRANCH  24  27
ENDBRANCH  22  24
ENDBRANCH  17  20
ENDBRANCH  13  14
ENDBRANCH   8  13
BRANCH  10  38
HETATM   38  O   UNL     1      -8.249   8.142  66.054  1.00  0.00    -0.108 OA 
HETATM   39  C   UNL     1      -8.382   7.166  65.026  1.00  0.00    -0.046 C  
ENDBRANCH  10  38
ENDBRANCH   2   3
TORSDOF 8
ENDMDL
MODEL      118
REMARK 921   NORMALIZED FREE ENERGY PREDICTED BY IDOCK:   -2.69 KCAL/MOL
REMARK 922        TOTAL FREE ENERGY PREDICTED BY IDOCK:   -5.42 KCAL/MOL
REMARK 923 INTER-LIGAND FREE ENERGY PREDICTED BY IDOCK:   -5.04 KCAL/MOL
REMARK 924 INTRA-LIGAND FREE ENERGY PREDICTED BY IDOCK:   -0.38 KCAL/MOL
REMARK 927      BINDING AFFINITY PREDICTED BY RF-SCORE:    0.00 PKD
ROOT
HETATM    1  C   UNL     1     -13.066  15.252  71.111  1.00  0.00    -0.479 C  
HETATM    2  O   UNL     1     -12.767  15.596  69.762  1.00  0.00    -0.165 OA 
ENDROOT
BRANCH   2   3
HETATM    3  C   UNL     1     -11.462  15.484  69.361  1.00  0.00    -0.337 A  
HETATM    4  C   UNL     1     -10.525  16.513  69.520  1.00  0.00    -0.298 A  
HETATM    5  C   UNL     1      -9.220  16.412  69.065  1.00  0.00    -0.247 A  
HETATM    6  C   UNL     1      -8.797  15.214  68.468  1.00  0.00    -0.185 A  
HETATM    7  C   UNL     1      -9.717  14.148  68.351  1.00  0.00    -0.226 A  
HETATM    8  C   UNL     1      -7.466  15.173  67.997  1.00  0.00    -0.120 A  
HETATM    9  C   UNL     1      -6.635  16.281  68.140  1.00  0.00    -0.133 A  
HETATM   10  C   UNL     1     -11.052  14.292  68.748  1.00  0.00    -0.256 A  
HETATM   11  N   UNL     1      -8.424  17.484  69.201  1.00  0.00    -0.010 NA 
HETATM   12  C   UNL     1      -7.164  17.407  68.734  1.00  0.00    -0.249 A  
BRANCH   8  13
HETATM   13  O   UNL     1      -7.025  13.976  67.474  1.00  0.00    -0.177 OA 
BRANCH  13  14
HETATM   14  C   UNL     1      -7.049  12.831  68.231  1.00  0.00    -0.104 A  
HETATM   15  C   UNL     1      -7.878  11.819  67.753  1.00  0.00    -0.135 A  
HETATM   16  C   UNL     1      -7.925  10.581  68.396  1.00  0.00    -0.116 A  
HETATM   17  C   UNL     1      -7.142  10.337  69.525  1.00  0.00    -0.107 A  
HETATM   18  C   UNL     1      -6.258  12.595  69.352  1.00  0.00    -0.113 A  
HETATM   19  C   UNL     1      -6.324  11.361  70.013  1.00  0.00    -0.132 A  
BRANCH  17  20
HETATM   20  N   UNL     1      -7.125   9.097  70.200  1.00  0.00    -0.051 N  
HETATM   21  H   UNL     1      -7.756   8.993  70.995  1.00  0.00     0.000 HD 
HETATM   22  C   UNL     1      -6.334   8.014  69.883  1.00  0.00    -0.030 C  
HETATM   23  O   UNL     1      -5.474   7.940  69.021  1.00  0.00    -0.028 OA 
BRANCH  22  24
HETATM   24  C   UNL     1      -6.591   6.792  70.706  1.00  0.00    -0.053 C  
HETATM   25  C   UNL     1      -5.558   6.471  71.782  1.00  0.00    -0.032 C  
HETATM   26  C   UNL     1      -6.920   6.930  72.191  1.00  0.00    -0.066 C  
BRANCH  24  27
HETATM   27  C   UNL     1      -7.248   5.689  69.944  1.00  0.00    -0.069 C  
HETATM   28  O   UNL     1      -7.325   4.582  70.460  1.00  0.00    -0.047 OA 
HETATM   29  N   UNL     1      -7.713   6.050  68.694  1.00  0.00    -0.094 N  
HETATM   30  H   UNL     1      -7.516   6.993  68.358  1.00  0.00     0.000 HD 
BRANCH  29  31
HETATM   31  C   UNL     1      -8.442   5.182  67.863  1.00  0.00    -0.104 A  
HETATM   32  C   UNL     1      -8.113   3.826  67.748  1.00  0.00    -0.088 A  
HETATM   33  C   UNL     1      -8.811   3.006  66.862  1.00  0.00    -0.158 A  
HETATM   34  C   UNL     1      -9.816   3.554  66.077  1.00  0.00     0.059 A  
HETATM   35  C   UNL     1     -10.175   4.891  66.206  1.00  0.00    -0.312 A  
HETATM   36  F   UNL     1     -10.445   2.784  65.180  1.00  0.00     0.326 F  
HETATM   37  C   UNL     1      -9.512   5.702  67.130  1.00  0.00    -0.120 A  
ENDBRANCH  29  31
ENDBRANCH  24  27
ENDBRANCH  22  24
ENDBRANCH  17  20
ENDBRANCH  13  14
ENDBRANCH   8  13
BRANCH  10  38
HETATM   38  O   UNL     1     -11.823  13.182  68.521  1.00  0.00    -0.323 OA 
HETATM   39  C   UNL     1     -11.178  11.928  68.719  1.00  0.00    -0.259 C  
ENDBRANCH  10  38
ENDBRANCH   2   3
TORSDOF 8
ENDMDL
MODEL      119
REMARK 921   NORMALIZED FREE ENERGY PREDICTED BY IDOCK:   -2.40 KCAL/MOL
REMARK 922        TOTAL FREE ENERGY PREDICTED BY IDOCK:   -5.00 KCAL/MOL
REMARK 923 INTER-LIGAND FREE ENERGY PREDICTED BY IDOCK:   -6.69 KCAL/MOL
REMARK 924 INTRA-LIGAND FREE ENERGY PREDICTED BY IDOCK:    1.69 KCAL/MOL
REMARK 927      BINDING AFFINITY PREDICTED BY RF-SCORE:    0.00 PKD
ROOT
HETATM    1  C   UNL     1      -8.350   2.798  65.213  1.00  0.00    -0.094 C  
HETATM    2  O   UNL     1      -7.358   3.705  64.746  1.00  0.00    -0.065 OA 
ENDROOT
BRANCH   2   3
HETATM    3  C   UNL     1      -7.723   5.019  64.613  1.00  0.00    -0.081 A  
HETATM    4  C   UNL     1      -7.088   5.901  63.730  1.00  0.00    -0.052 A  
HETATM    5  C   UNL     1      -7.427   7.241  63.638  1.00  0.00    -0.097 A  
HETATM    6  C   UNL     1      -8.486   7.731  64.419  1.00  0.00     0.128 A  
HETATM    7  C   UNL     1      -9.171   6.840  65.274  1.00  0.00     0.494 A  
HETATM    8  C   UNL     1      -8.773   9.109  64.309  1.00  0.00    -0.150 A  
HETATM    9  C   UNL     1      -8.030   9.916  63.450  1.00  0.00    -0.153 A  
HETATM   10  C   UNL     1      -8.767   5.506  65.410  1.00  0.00    -0.148 A  
HETATM   11  N   UNL     1      -6.705   8.015  62.813  1.00  0.00    -0.084 NA 
HETATM   12  C   UNL     1      -7.007   9.326  62.740  1.00  0.00    -0.091 A  
BRANCH   8  13
HETATM   13  O   UNL     1      -9.855   9.581  65.020  1.00  0.00    -0.203 OA 
BRANCH  13  14
HETATM   14  C   UNL     1      -9.837  10.841  65.567  1.00  0.00    -0.255 A  
HETATM   15  C   UNL     1      -8.927  11.026  66.605  1.00  0.00    -0.176 A  
HETATM   16  C   UNL     1      -8.764  12.285  67.185  1.00  0.00    -0.193 A  
HETATM   17  C   UNL     1      -9.508  13.377  66.735  1.00  0.00    -0.261 A  
HETATM   18  C   UNL     1     -10.578  11.925  65.105  1.00  0.00    -0.333 A  
HETATM   19  C   UNL     1     -10.434  13.183  65.704  1.00  0.00    -0.290 A  
BRANCH  17  20
HETATM   20  N   UNL     1      -9.366  14.679  67.263  1.00  0.00    -0.201 N  
HETATM   21  H   UNL     1      -9.355  14.769  68.279  1.00  0.00     0.000 HD 
HETATM   22  C   UNL     1      -9.241  15.840  66.531  1.00  0.00    -0.283 C  
HETATM   23  O   UNL     1      -9.291  15.971  65.319  1.00  0.00    -0.255 OA 
BRANCH  22  24
HETATM   24  C   UNL     1      -9.007  17.069  67.348  1.00  0.00    -0.216 C  
HETATM   25  C   UNL     1      -7.582  17.616  67.357  1.00  0.00    -0.213 C  
HETATM   26  C   UNL     1      -8.656  18.386  66.658  1.00  0.00    -0.289 C  
BRANCH  24  27
HETATM   27  C   UNL     1      -9.841  17.129  68.585  1.00  0.00    -0.300 C  
HETATM   28  O   UNL     1     -10.167  18.225  69.023  1.00  0.00    -0.376 OA 
HETATM   29  N   UNL     1     -10.164  15.898  69.121  1.00  0.00    -0.219 N  
HETATM   30  H   UNL     1      -9.763  15.062  68.693  1.00  0.00     0.000 HD 
BRANCH  29  31
HETATM   31  C   UNL     1     -11.017  15.738  70.226  1.00  0.00    -0.357 A  
HETATM   32  C   UNL     1     -10.994  16.629  71.307  1.00  0.00     0.584 A  
HETATM   33  C   UNL     1     -11.802  16.404  72.421  1.00  0.00    -0.548 A  
HETATM   34  C   UNL     1     -12.610  15.276  72.458  1.00  0.00    -0.359 A  
HETATM   35  C   UNL     1     -12.668  14.402  71.378  1.00  0.00    -0.413 A  
HETATM   36  F   UNL     1     -13.340  15.024  73.553  1.00  0.00    -0.529 F  
HETATM   37  C   UNL     1     -11.897  14.653  70.240  1.00  0.00    -0.363 A  
ENDBRANCH  29  31
ENDBRANCH  24  27
ENDBRANCH  22  24
ENDBRANCH  17  20
ENDBRANCH  13  14
ENDBRANCH   8  13
BRANCH  10  38
HETATM   38  O   UNL     1      -9.506   4.791  66.317  1.00  0.00    -0.137 OA 
HETATM   39  C   UNL     1      -9.025   4.805  67.657  1.00  0.00    -0.110 C  
ENDBRANCH  10  38
ENDBRANCH   2   3
TORSDOF 8
ENDMDL
MODEL      120
REMARK 921   NORMALIZED FREE ENERGY PREDICTED BY IDOCK:   -2.32 KCAL/MOL
REMARK 922        TOTAL FREE ENERGY PREDICTED BY IDOCK:   -4.88 KCAL/MOL
REMARK 923 INTER-LIGAND FREE ENERGY PREDICTED BY IDOCK:   -6.21 KCAL/MOL
REMARK 924 INTRA-LIGAND FREE ENERGY PREDICTED BY IDOCK:    1.34 KCAL/MOL
REMARK 927      BINDING AFFINITY PREDICTED BY RF-SCORE:    0.00 PKD
ROOT
HETATM    1  C   UNL     1      -8.078   6.769  72.922  1.00  0.00    -0.105 C  
HETATM    2  O   UNL     1      -7.064   7.046  71.961  1.00  0.00    -0.071 OA 
ENDROOT
BRANCH   2   3
HETATM    3  C   UNL     1      -7.207   6.482  70.720  1.00  0.00    -0.071 A  
HETATM    4  C   UNL     1      -6.358   5.478  70.238  1.00  0.00    -0.030 A  
HETATM    5  C   UNL     1      -6.475   4.949  68.962  1.00  0.00    -0.036 A  
HETATM    6  C   UNL     1      -7.517   5.395  68.133  1.00  0.00    -0.076 A  
HETATM    7  C   UNL     1      -8.414   6.368  68.627  1.00  0.00    -0.123 A  
HETATM    8  C   UNL     1      -7.575   4.845  66.834  1.00  0.00    -0.088 A  
HETATM    9  C   UNL     1      -6.636   3.901  66.427  1.00  0.00    -0.041 A  
HETATM   10  C   UNL     1      -8.236   6.945  69.891  1.00  0.00    -0.127 A  
HETATM   11  N   UNL     1      -5.565   4.044  68.573  1.00  0.00    -0.013 NA 
HETATM   12  C   UNL     1      -5.652   3.547  67.324  1.00  0.00    -0.021 A  
BRANCH   8  13
HETATM   13  O   UNL     1      -8.637   5.226  66.040  1.00  0.00    -0.117 OA 
BRANCH  13  14
HETATM   14  C   UNL     1      -9.142   6.501  66.114  1.00  0.00    -0.124 A  
HETATM   15  C   UNL     1      -8.444   7.461  65.386  1.00  0.00    -0.101 A  
HETATM   16  C   UNL     1      -8.910   8.776  65.322  1.00  0.00    -0.205 A  
HETATM   17  C   UNL     1     -10.080   9.148  65.985  1.00  0.00    -0.134 A  
HETATM   18  C   UNL     1     -10.315   6.860  66.771  1.00  0.00    -0.287 A  
HETATM   19  C   UNL     1     -10.769   8.185  66.730  1.00  0.00    -0.070 A  
BRANCH  17  20
HETATM   20  N   UNL     1     -10.615  10.454  65.933  1.00  0.00    -0.108 N  
HETATM   21  H   UNL     1     -11.081  10.798  66.773  1.00  0.00     0.000 HD 
HETATM   22  C   UNL     1     -10.564  11.307  64.852  1.00  0.00    -0.300 C  
HETATM   23  O   UNL     1     -10.115  11.082  63.740  1.00  0.00    -0.302 OA 
BRANCH  22  24
HETATM   24  C   UNL     1     -11.125  12.669  65.106  1.00  0.00    -0.329 C  
HETATM   25  C   UNL     1     -11.760  13.373  63.910  1.00  0.00    -0.455 C  
HETATM   26  C   UNL     1     -12.633  12.898  65.027  1.00  0.00    -0.538 C  
BRANCH  24  27
HETATM   27  C   UNL     1     -10.351  13.453  66.113  1.00  0.00    -0.295 C  
HETATM   28  O   UNL     1     -10.887  14.413  66.651  1.00  0.00    -0.295 OA 
HETATM   29  N   UNL     1      -9.067  12.995  66.336  1.00  0.00    -0.434 N  
HETATM   30  H   UNL     1      -8.721  12.224  65.763  1.00  0.00     0.000 HD 
BRANCH  29  31
HETATM   31  C   UNL     1      -8.214  13.537  67.312  1.00  0.00    -0.154 A  
HETATM   32  C   UNL     1      -7.432  12.721  68.140  1.00  0.00    -0.124 A  
HETATM   33  C   UNL     1      -6.649  13.285  69.147  1.00  0.00    -0.105 A  
HETATM   34  C   UNL     1      -6.673  14.661  69.337  1.00  0.00    -0.147 A  
HETATM   35  C   UNL     1      -7.419  15.485  68.500  1.00  0.00    -0.118 A  
HETATM   36  F   UNL     1      -5.972  15.199  70.342  1.00  0.00    -0.132 F  
HETATM   37  C   UNL     1      -8.163  14.926  67.459  1.00  0.00    -0.199 A  
ENDBRANCH  29  31
ENDBRANCH  24  27
ENDBRANCH  22  24
ENDBRANCH  17  20
ENDBRANCH  13  14
ENDBRANCH   8  13
BRANCH  10  38
HETATM   38  O   UNL     1      -9.163   7.909  70.197  1.00  0.00    -0.152 OA 
HETATM   39  C   UNL     1      -8.797   9.246  69.873  1.00  0.00    -0.185 C  
ENDBRANCH  10  38
ENDBRANCH   2   3
TORSDOF 8
ENDMDL
MODEL      121
REMARK 921   NORMALIZED FREE ENERGY PREDICTED BY IDOCK:   -2.30 KCAL/MOL
REMARK 922        TOTAL FREE ENERGY PREDICTED BY IDOCK:   -4.85 KCAL/MOL
REMARK 923 INTER-LIGAND FREE ENERGY PREDICTED BY IDOCK:   -4.33 KCAL/MOL
REMARK 924 INTRA-LIGAND FREE ENERGY PREDICTED BY IDOCK:   -0.51 KCAL/MOL
REMARK 927      BINDING AFFINITY PREDICTED BY RF-SCORE:    0.00 PKD
ROOT
HETATM    1  C   UNL     1     -11.571  16.795  64.212  1.00  0.00     0.750 C  
HETATM    2  O   UNL     1     -10.976  15.531  64.487  1.00  0.00    -0.363 OA 
ENDROOT
BRANCH   2   3
HETATM    3  C   UNL     1     -10.011  15.491  65.459  1.00  0.00    -0.341 A  
HETATM    4  C   UNL     1      -9.226  16.599  65.801  1.00  0.00    -0.032 A  
HETATM    5  C   UNL     1      -8.217  16.538  66.747  1.00  0.00    -0.243 A  
HETATM    6  C   UNL     1      -8.000  15.333  67.435  1.00  0.00    -0.211 A  
HETATM    7  C   UNL     1      -8.820  14.222  67.139  1.00  0.00    -0.243 A  
HETATM    8  C   UNL     1      -6.941  15.316  68.369  1.00  0.00    -0.111 A  
HETATM    9  C   UNL     1      -6.173  16.458  68.583  1.00  0.00    -0.130 A  
HETATM   10  C   UNL     1      -9.786  14.280  66.127  1.00  0.00    -0.316 A  
HETATM   11  N   UNL     1      -7.476  17.639  66.946  1.00  0.00    -0.187 NA 
HETATM   12  C   UNL     1      -6.472  17.580  67.842  1.00  0.00    -0.162 A  
BRANCH   8  13
HETATM   13  O   UNL     1      -6.769  14.158  69.097  1.00  0.00    -0.107 OA 
BRANCH  13  14
HETATM   14  C   UNL     1      -6.622  12.948  68.463  1.00  0.00    -0.087 A  
HETATM   15  C   UNL     1      -7.447  11.928  68.930  1.00  0.00    -0.060 A  
HETATM   16  C   UNL     1      -7.443  10.677  68.311  1.00  0.00    -0.091 A  
HETATM   17  C   UNL     1      -6.614  10.429  67.215  1.00  0.00    -0.068 A  
HETATM   18  C   UNL     1      -5.798  12.714  67.366  1.00  0.00    -0.118 A  
HETATM   19  C   UNL     1      -5.774  11.451  66.760  1.00  0.00    -0.131 A  
BRANCH  17  20
HETATM   20  N   UNL     1      -6.587   9.194  66.531  1.00  0.00    -0.067 N  
HETATM   21  H   UNL     1      -5.683   8.729  66.448  1.00  0.00     0.000 HD 
HETATM   22  C   UNL     1      -7.671   8.560  65.964  1.00  0.00    -0.093 C  
HETATM   23  O   UNL     1      -8.821   8.961  65.891  1.00  0.00    -0.156 OA 
BRANCH  22  24
HETATM   24  C   UNL     1      -7.373   7.214  65.386  1.00  0.00    -0.080 C  
HETATM   25  C   UNL     1      -7.318   7.129  63.863  1.00  0.00    -0.088 C  
HETATM   26  C   UNL     1      -6.056   6.977  64.649  1.00  0.00    -0.037 C  
BRANCH  24  27
HETATM   27  C   UNL     1      -7.943   6.085  66.179  1.00  0.00    -0.107 C  
HETATM   28  O   UNL     1      -8.531   5.188  65.589  1.00  0.00    -0.124 OA 
HETATM   29  N   UNL     1      -7.739   6.180  67.542  1.00  0.00    -0.096 N  
HETATM   30  H   UNL     1      -7.294   7.022  67.909  1.00  0.00     0.000 HD 
BRANCH  29  31
HETATM   31  C   UNL     1      -8.115   5.174  68.449  1.00  0.00    -0.086 A  
HETATM   32  C   UNL     1      -9.132   5.376  69.390  1.00  0.00    -0.135 A  
HETATM   33  C   UNL     1      -9.434   4.384  70.324  1.00  0.00    -0.242 A  
HETATM   34  C   UNL     1      -8.698   3.207  70.326  1.00  0.00    -0.069 A  
HETATM   35  C   UNL     1      -7.708   2.980  69.376  1.00  0.00    -0.048 A  
HETATM   36  F   UNL     1      -8.942   2.279  71.260  1.00  0.00    -0.097 F  
HETATM   37  C   UNL     1      -7.439   3.952  68.409  1.00  0.00    -0.058 A  
ENDBRANCH  29  31
ENDBRANCH  24  27
ENDBRANCH  22  24
ENDBRANCH  17  20
ENDBRANCH  13  14
ENDBRANCH   8  13
BRANCH  10  38
HETATM   38  O   UNL     1     -10.460  13.102  65.934  1.00  0.00    -0.271 OA 
HETATM   39  C   UNL     1     -10.538  12.239  67.064  1.00  0.00    -0.223 C  
ENDBRANCH  10  38
ENDBRANCH   2   3
TORSDOF 8
ENDMDL
MODEL      122
REMARK 921   NORMALIZED FREE ENERGY PREDICTED BY IDOCK:   -2.23 KCAL/MOL
REMARK 922        TOTAL FREE ENERGY PREDICTED BY IDOCK:   -4.75 KCAL/MOL
REMARK 923 INTER-LIGAND FREE ENERGY PREDICTED BY IDOCK:   -5.64 KCAL/MOL
REMARK 924 INTRA-LIGAND FREE ENERGY PREDICTED BY IDOCK:    0.89 KCAL/MOL
REMARK 927      BINDING AFFINITY PREDICTED BY RF-SCORE:    0.00 PKD
ROOT
HETATM    1  C   UNL     1      -5.321   2.808  68.522  1.00  0.00    -0.013 C  
HETATM    2  O   UNL     1      -5.146   3.938  69.369  1.00  0.00    -0.003 OA 
ENDROOT
BRANCH   2   3
HETATM    3  C   UNL     1      -6.249   4.394  70.042  1.00  0.00    -0.026 A  
HETATM    4  C   UNL     1      -6.239   4.687  71.412  1.00  0.00    -0.018 A  
HETATM    5  C   UNL     1      -7.371   5.098  72.097  1.00  0.00    -0.091 A  
HETATM    6  C   UNL     1      -8.568   5.282  71.386  1.00  0.00    -0.132 A  
HETATM    7  C   UNL     1      -8.579   5.042  69.994  1.00  0.00    -0.111 A  
HETATM    8  C   UNL     1      -9.699   5.674  72.136  1.00  0.00    -0.153 A  
HETATM    9  C   UNL     1      -9.597   5.871  73.511  1.00  0.00    -0.141 A  
HETATM   10  C   UNL     1      -7.445   4.556  69.331  1.00  0.00    -0.055 A  
HETATM   11  N   UNL     1      -7.270   5.281  73.422  1.00  0.00    -0.088 NA 
HETATM   12  C   UNL     1      -8.372   5.651  74.102  1.00  0.00    -0.107 A  
BRANCH   8  13
HETATM   13  O   UNL     1     -10.859   5.924  71.434  1.00  0.00    -0.256 OA 
BRANCH  13  14
HETATM   14  C   UNL     1     -10.931   6.976  70.554  1.00  0.00    -0.265 A  
HETATM   15  C   UNL     1     -11.425   8.164  71.086  1.00  0.00    -0.304 A  
HETATM   16  C   UNL     1     -11.471   9.322  70.308  1.00  0.00    -0.198 A  
HETATM   17  C   UNL     1     -11.021   9.308  68.986  1.00  0.00    -0.033 A  
HETATM   18  C   UNL     1     -10.472   6.954  69.240  1.00  0.00    -0.233 A  
HETATM   19  C   UNL     1     -10.541   8.108  68.449  1.00  0.00    -0.148 A  
BRANCH  17  20
HETATM   20  N   UNL     1     -11.016  10.453  68.160  1.00  0.00    -0.264 N  
HETATM   21  H   UNL     1     -11.856  11.031  68.164  1.00  0.00     0.000 HD 
HETATM   22  C   UNL     1      -9.980  10.860  67.349  1.00  0.00    -0.186 C  
HETATM   23  O   UNL     1      -8.919  10.292  67.144  1.00  0.00    -0.135 OA 
BRANCH  22  24
HETATM   24  C   UNL     1     -10.207  12.165  66.655  1.00  0.00    -0.223 C  
HETATM   25  C   UNL     1     -10.638  12.088  65.193  1.00  0.00    -0.330 C  
HETATM   26  C   UNL     1     -11.617  12.560  66.220  1.00  0.00    -0.449 C  
BRANCH  24  27
HETATM   27  C   UNL     1      -9.286  13.249  67.109  1.00  0.00    -0.240 C  
HETATM   28  O   UNL     1      -9.243  14.291  66.469  1.00  0.00    -0.270 OA 
HETATM   29  N   UNL     1      -8.556  12.946  68.242  1.00  0.00    -0.213 N  
HETATM   30  H   UNL     1      -8.637  12.008  68.635  1.00  0.00     0.000 HD 
BRANCH  29  31
HETATM   31  C   UNL     1      -7.707  13.867  68.880  1.00  0.00    -0.041 A  
HETATM   32  C   UNL     1      -6.635  13.447  69.678  1.00  0.00    -0.008 A  
HETATM   33  C   UNL     1      -5.854  14.383  70.355  1.00  0.00    -0.158 A  
HETATM   34  C   UNL     1      -6.166  15.732  70.251  1.00  0.00    -0.003 A  
HETATM   35  C   UNL     1      -7.206  16.164  69.435  1.00  0.00    -0.204 A  
HETATM   36  F   UNL     1      -5.457  16.628  70.950  1.00  0.00    -0.188 F  
HETATM   37  C   UNL     1      -7.958  15.231  68.716  1.00  0.00    -0.158 A  
ENDBRANCH  29  31
ENDBRANCH  24  27
ENDBRANCH  22  24
ENDBRANCH  17  20
ENDBRANCH  13  14
ENDBRANCH   8  13
BRANCH  10  38
HETATM   38  O   UNL     1      -7.638   4.330  67.993  1.00  0.00    -0.068 OA 
HETATM   39  C   UNL     1      -8.800   3.580  67.652  1.00  0.00    -0.125 C  
ENDBRANCH  10  38
ENDBRANCH   2   3
TORSDOF 8
ENDMDL
MODEL      123
REMARK 921   NORMALIZED FREE ENERGY PREDICTED BY IDOCK:   -2.09 KCAL/MOL
REMARK 922        TOTAL FREE ENERGY PREDICTED BY IDOCK:   -4.53 KCAL/MOL
REMARK 923 INTER-LIGAND FREE ENERGY PREDICTED BY IDOCK:   -4.53 KCAL/MOL
REMARK 924 INTRA-LIGAND FREE ENERGY PREDICTED BY IDOCK:   -0.01 KCAL/MOL
REMARK 927      BINDING AFFINITY PREDICTED BY RF-SCORE:    0.00 PKD
ROOT
HETATM    1  C   UNL     1     -12.753  14.553  64.811  1.00  0.00    -0.082 C  
HETATM    2  O   UNL     1     -12.335  14.038  66.070  1.00  0.00    -0.445 OA 
ENDROOT
BRANCH   2   3
HETATM    3  C   UNL     1     -11.061  14.335  66.478  1.00  0.00    -0.323 A  
HETATM    4  C   UNL     1     -10.380  15.489  66.070  1.00  0.00    -0.342 A  
HETATM    5  C   UNL     1      -9.073  15.758  66.443  1.00  0.00    -0.322 A  
HETATM    6  C   UNL     1      -8.415  14.869  67.309  1.00  0.00    -0.229 A  
HETATM    7  C   UNL     1      -9.109  13.729  67.772  1.00  0.00    -0.193 A  
HETATM    8  C   UNL     1      -7.076  15.174  67.636  1.00  0.00    -0.186 A  
HETATM    9  C   UNL     1      -6.467  16.314  67.117  1.00  0.00    -0.214 A  
HETATM   10  C   UNL     1     -10.403  13.434  67.325  1.00  0.00    -0.244 A  
HETATM   11  N   UNL     1      -8.489  16.855  65.936  1.00  0.00    -0.499 NA 
HETATM   12  C   UNL     1      -7.208  17.107  66.269  1.00  0.00    -0.273 A  
BRANCH   8  13
HETATM   13  O   UNL     1      -6.449  14.343  68.540  1.00  0.00    -0.084 OA 
BRANCH  13  14
HETATM   14  C   UNL     1      -6.439  12.983  68.350  1.00  0.00    -0.084 A  
HETATM   15  C   UNL     1      -6.946  12.231  69.407  1.00  0.00     0.067 A  
HETATM   16  C   UNL     1      -7.058  10.844  69.297  1.00  0.00    -0.124 A  
HETATM   17  C   UNL     1      -6.667  10.190  68.127  1.00  0.00    -0.062 A  
HETATM   18  C   UNL     1      -6.053  12.341  67.177  1.00  0.00    -0.119 A  
HETATM   19  C   UNL     1      -6.141  10.947  67.074  1.00  0.00    -0.074 A  
BRANCH  17  20
HETATM   20  N   UNL     1      -6.784   8.794  67.947  1.00  0.00    -0.065 N  
HETATM   21  H   UNL     1      -7.485   8.470  67.281  1.00  0.00     0.000 HD 
HETATM   22  C   UNL     1      -6.036   7.831  68.588  1.00  0.00    -0.035 C  
HETATM   23  O   UNL     1      -5.196   7.989  69.459  1.00  0.00    -0.025 OA 
BRANCH  22  24
HETATM   24  C   UNL     1      -6.303   6.431  68.135  1.00  0.00    -0.040 C  
HETATM   25  C   UNL     1      -6.630   6.250  66.655  1.00  0.00    -0.051 C  
HETATM   26  C   UNL     1      -5.328   5.741  67.183  1.00  0.00    -0.005 C  
BRANCH  24  27
HETATM   27  C   UNL     1      -6.989   5.593  69.162  1.00  0.00    -0.063 C  
HETATM   28  O   UNL     1      -8.146   5.248  68.963  1.00  0.00    -0.085 OA 
HETATM   29  N   UNL     1      -6.216   5.289  70.266  1.00  0.00    -0.022 N  
HETATM   30  H   UNL     1      -5.287   5.705  70.337  1.00  0.00     0.000 HD 
BRANCH  29  31
HETATM   31  C   UNL     1      -6.646   4.435  71.296  1.00  0.00    -0.030 A  
HETATM   32  C   UNL     1      -7.410   4.907  72.371  1.00  0.00    -0.088 A  
HETATM   33  C   UNL     1      -7.762   4.051  73.414  1.00  0.00    -0.084 A  
HETATM   34  C   UNL     1      -7.325   2.733  73.388  1.00  0.00    -0.045 A  
HETATM   35  C   UNL     1      -6.595   2.243  72.310  1.00  0.00    -0.015 A  
HETATM   36  F   UNL     1      -7.607   1.925  74.418  1.00  0.00    -0.030 F  
HETATM   37  C   UNL     1      -6.285   3.086  71.241  1.00  0.00    -0.018 A  
ENDBRANCH  29  31
ENDBRANCH  24  27
ENDBRANCH  22  24
ENDBRANCH  17  20
ENDBRANCH  13  14
ENDBRANCH   8  13
BRANCH  10  38
HETATM   38  O   UNL     1     -10.914  12.266  67.832  1.00  0.00    -0.206 OA 
HETATM   39  C   UNL     1     -12.254  12.331  68.309  1.00  0.00     0.215 C  
ENDBRANCH  10  38
ENDBRANCH   2   3
TORSDOF 8
ENDMDL
MODEL      124
REMARK 921   NORMALIZED FREE ENERGY PREDICTED BY IDOCK:   -2.05 KCAL/MOL
REMARK 922        TOTAL FREE ENERGY PREDICTED BY IDOCK:   -4.47 KCAL/MOL
REMARK 923 INTER-LIGAND FREE ENERGY PREDICTED BY IDOCK:   -6.91 KCAL/MOL
REMARK 924 INTRA-LIGAND FREE ENERGY PREDICTED BY IDOCK:    2.43 KCAL/MOL
REMARK 927      BINDING AFFINITY PREDICTED BY RF-SCORE:    0.00 PKD
ROOT
HETATM    1  C   UNL     1     -10.501   9.156  71.707  1.00  0.00    -0.291 C  
HETATM    2  O   UNL     1     -11.512   9.452  70.750  1.00  0.00    -0.268 OA 
ENDROOT
BRANCH   2   3
HETATM    3  C   UNL     1     -11.332  10.565  69.971  1.00  0.00    -0.318 A  
HETATM    4  C   UNL     1     -11.830  11.827  70.318  1.00  0.00    -0.382 A  
HETATM    5  C   UNL     1     -11.689  12.937  69.501  1.00  0.00    -0.323 A  
HETATM    6  C   UNL     1     -10.973  12.813  68.299  1.00  0.00    -0.278 A  
HETATM    7  C   UNL     1     -10.419  11.558  67.963  1.00  0.00    -0.214 A  
HETATM    8  C   UNL     1     -10.883  13.966  67.490  1.00  0.00    -0.266 A  
HETATM    9  C   UNL     1     -11.478  15.158  67.896  1.00  0.00    -0.344 A  
HETATM   10  C   UNL     1     -10.634  10.429  68.764  1.00  0.00    -0.208 A  
HETATM   11  N   UNL     1     -12.268  14.083  69.894  1.00  0.00    -0.334 NA 
HETATM   12  C   UNL     1     -12.163  15.159  69.092  1.00  0.00    -0.150 A  
BRANCH   8  13
HETATM   13  O   UNL     1     -10.123  13.868  66.344  1.00  0.00    -0.279 OA 
BRANCH  13  14
HETATM   14  C   UNL     1      -9.893  12.646  65.760  1.00  0.00    -0.228 A  
HETATM   15  C   UNL     1      -8.598  12.154  65.900  1.00  0.00     0.365 A  
HETATM   16  C   UNL     1      -8.267  10.887  65.416  1.00  0.00    -0.016 A  
HETATM   17  C   UNL     1      -9.228  10.095  64.786  1.00  0.00    -0.242 A  
HETATM   18  C   UNL     1     -10.860  11.860  65.141  1.00  0.00    -0.350 A  
HETATM   19  C   UNL     1     -10.523  10.599  64.632  1.00  0.00    -0.275 A  
BRANCH  17  20
HETATM   20  N   UNL     1      -8.960   8.795  64.302  1.00  0.00    -0.403 N  
HETATM   21  H   UNL     1      -9.387   8.534  63.413  1.00  0.00     0.000 HD 
HETATM   22  C   UNL     1      -8.174   7.847  64.922  1.00  0.00    -0.124 C  
HETATM   23  O   UNL     1      -7.625   7.922  66.009  1.00  0.00    -0.082 OA 
BRANCH  22  24
HETATM   24  C   UNL     1      -7.983   6.589  64.138  1.00  0.00    -0.088 C  
HETATM   25  C   UNL     1      -8.349   6.650  62.658  1.00  0.00     0.061 C  
HETATM   26  C   UNL     1      -6.912   6.524  63.051  1.00  0.00    -0.044 C  
BRANCH  24  27
HETATM   27  C   UNL     1      -8.254   5.350  64.926  1.00  0.00    -0.138 C  
HETATM   28  O   UNL     1      -8.154   4.264  64.370  1.00  0.00    -0.091 OA 
HETATM   29  N   UNL     1      -8.603   5.572  66.244  1.00  0.00    -0.121 N  
HETATM   30  H   UNL     1      -8.720   6.536  66.560  1.00  0.00     0.000 HD 
BRANCH  29  31
HETATM   31  C   UNL     1      -8.804   4.536  67.173  1.00  0.00    -0.109 A  
HETATM   32  C   UNL     1      -8.851   3.193  66.777  1.00  0.00    -0.157 A  
HETATM   33  C   UNL     1      -9.123   2.194  67.710  1.00  0.00    -0.213 A  
HETATM   34  C   UNL     1      -9.372   2.546  69.030  1.00  0.00    -0.141 A  
HETATM   35  C   UNL     1      -9.294   3.872  69.443  1.00  0.00    -0.246 A  
HETATM   36  F   UNL     1      -9.695   1.595  69.916  1.00  0.00    -0.172 F  
HETATM   37  C   UNL     1      -8.972   4.868  68.519  1.00  0.00    -0.131 A  
ENDBRANCH  29  31
ENDBRANCH  24  27
ENDBRANCH  22  24
ENDBRANCH  17  20
ENDBRANCH  13  14
ENDBRANCH   8  13
BRANCH  10  38
HETATM   38  O   UNL     1     -10.070   9.281  68.270  1.00  0.00    -0.170 OA 
HETATM   39  C   UNL     1      -8.862   8.864  68.898  1.00  0.00    -0.137 C  
ENDBRANCH  10  38
ENDBRANCH   2   3
TORSDOF 8
ENDMDL
MODEL      125
REMARK 921   NORMALIZED FREE ENERGY PREDICTED BY IDOCK:   -1.88 KCAL/MOL
REMARK 922        TOTAL FREE ENERGY PREDICTED BY IDOCK:   -4.22 KCAL/MOL
REMARK 923 INTER-LIGAND FREE ENERGY PREDICTED BY IDOCK:   -5.01 KCAL/MOL
REMARK 924 INTRA-LIGAND FREE ENERGY PREDICTED BY IDOCK:    0.78 KCAL/MOL
REMARK 927      BINDING AFFINITY PREDICTED BY RF-SCORE:    0.00 PKD
ROOT
HETATM    1  C   UNL     1     -10.903  10.492  65.182  1.00  0.00     0.230 C  
HETATM    2  O   UNL     1     -10.893  10.246  66.584  1.00  0.00    -0.159 OA 
ENDROOT
BRANCH   2   3
HETATM    3  C   UNL     1      -9.670  10.173  67.198  1.00  0.00    -0.173 A  
HETATM    4  C   UNL     1      -8.739   9.164  66.924  1.00  0.00    -0.133 A  
HETATM    5  C   UNL     1      -7.526   9.065  67.587  1.00  0.00    -0.085 A  
HETATM    6  C   UNL     1      -7.186  10.043  68.535  1.00  0.00    -0.076 A  
HETATM    7  C   UNL     1      -8.093  11.098  68.782  1.00  0.00    -0.140 A  
HETATM    8  C   UNL     1      -5.952   9.881  69.202  1.00  0.00    -0.034 A  
HETATM    9  C   UNL     1      -5.129   8.798  68.904  1.00  0.00    -0.033 A  
HETATM   10  C   UNL     1      -9.346  11.141  68.158  1.00  0.00    -0.176 A  
HETATM   11  N   UNL     1      -6.739   8.017  67.301  1.00  0.00    -0.064 NA 
HETATM   12  C   UNL     1      -5.572   7.895  67.962  1.00  0.00    -0.033 A  
BRANCH   8  13
HETATM   13  O   UNL     1      -5.582  10.875  70.082  1.00  0.00    -0.060 OA 
BRANCH  13  14
HETATM   14  C   UNL     1      -5.700  12.198  69.733  1.00  0.00    -0.111 A  
HETATM   15  C   UNL     1      -5.159  12.537  68.495  1.00  0.00    -0.057 A  
HETATM   16  C   UNL     1      -5.289  13.836  68.000  1.00  0.00    -0.109 A  
HETATM   17  C   UNL     1      -5.963  14.813  68.734  1.00  0.00    -0.084 A  
HETATM   18  C   UNL     1      -6.382  13.163  70.469  1.00  0.00     0.257 A  
HETATM   19  C   UNL     1      -6.490  14.473  69.985  1.00  0.00    -0.160 A  
BRANCH  17  20
HETATM   20  N   UNL     1      -6.151  16.134  68.272  1.00  0.00    -0.105 N  
HETATM   21  H   UNL     1      -6.476  16.248  67.312  1.00  0.00     0.000 HD 
HETATM   22  C   UNL     1      -5.934  17.284  69.001  1.00  0.00    -0.191 C  
HETATM   23  O   UNL     1      -5.490  17.382  70.133  1.00  0.00    -0.219 OA 
BRANCH  22  24
HETATM   24  C   UNL     1      -6.306  18.548  68.294  1.00  0.00    -0.206 C  
HETATM   25  C   UNL     1      -6.340  19.814  69.145  1.00  0.00    -0.349 C  
HETATM   26  C   UNL     1      -5.268  19.654  68.115  1.00  0.00    -0.187 C  
BRANCH  24  27
HETATM   27  C   UNL     1      -7.310  18.349  67.208  1.00  0.00    -0.212 C  
HETATM   28  O   UNL     1      -7.263  19.074  66.222  1.00  0.00    -0.226 OA 
HETATM   29  N   UNL     1      -8.215  17.332  67.440  1.00  0.00    -0.189 N  
HETATM   30  H   UNL     1      -8.185  16.852  68.340  1.00  0.00     0.000 HD 
BRANCH  29  31
HETATM   31  C   UNL     1      -9.177  16.926  66.498  1.00  0.00    -0.269 A  
HETATM   32  C   UNL     1     -10.266  17.740  66.163  1.00  0.00    -0.339 A  
HETATM   33  C   UNL     1     -11.241  17.280  65.278  1.00  0.00     0.455 A  
HETATM   34  C   UNL     1     -11.134  15.999  64.754  1.00  0.00    -0.365 A  
HETATM   35  C   UNL     1     -10.041  15.193  65.053  1.00  0.00    -0.269 A  
HETATM   36  F   UNL     1     -12.101  15.531  63.955  1.00  0.00    -0.369 F  
HETATM   37  C   UNL     1      -9.037  15.672  65.899  1.00  0.00    -0.277 A  
ENDBRANCH  29  31
ENDBRANCH  24  27
ENDBRANCH  22  24
ENDBRANCH  17  20
ENDBRANCH  13  14
ENDBRANCH   8  13
BRANCH  10  38
HETATM   38  O   UNL     1     -10.124  12.201  68.545  1.00  0.00    -0.209 OA 
HETATM   39  C   UNL     1     -11.340  11.869  69.207  1.00  0.00    -0.277 C  
ENDBRANCH  10  38
ENDBRANCH   2   3
TORSDOF 8
ENDMDL
MODEL      126
REMARK 921   NORMALIZED FREE ENERGY PREDICTED BY IDOCK:   -1.78 KCAL/MOL
REMARK 922        TOTAL FREE ENERGY PREDICTED BY IDOCK:   -4.09 KCAL/MOL
REMARK 923 INTER-LIGAND FREE ENERGY PREDICTED BY IDOCK:   -4.89 KCAL/MOL
REMARK 924 INTRA-LIGAND FREE ENERGY PREDICTED BY IDOCK:    0.80 KCAL/MOL
REMARK 927      BINDING AFFINITY PREDICTED BY RF-SCORE:    0.00 PKD
ROOT
HETATM    1  C   UNL     1      -5.155  20.565  65.042  1.00  0.00    -0.170 C  
HETATM    2  O   UNL     1      -5.751  20.557  66.335  1.00  0.00    -0.168 OA 
ENDROOT
BRANCH   2   3
HETATM    3  C   UNL     1      -6.919  19.857  66.483  1.00  0.00    -0.230 A  
HETATM    4  C   UNL     1      -7.850  20.132  67.492  1.00  0.00    -0.344 A  
HETATM    5  C   UNL     1      -9.005  19.387  67.668  1.00  0.00    -0.304 A  
HETATM    6  C   UNL     1      -9.287  18.345  66.769  1.00  0.00    -0.296 A  
HETATM    7  C   UNL     1      -8.383  18.092  65.714  1.00  0.00     0.268 A  
HETATM    8  C   UNL     1     -10.461  17.599  67.009  1.00  0.00    -0.305 A  
HETATM    9  C   UNL     1     -11.286  17.911  68.087  1.00  0.00     0.403 A  
HETATM   10  C   UNL     1      -7.185  18.806  65.595  1.00  0.00    -0.139 A  
HETATM   11  N   UNL     1      -9.793  19.688  68.711  1.00  0.00    -0.436 NA 
HETATM   12  C   UNL     1     -10.902  18.949  68.908  1.00  0.00     0.891 A  
BRANCH   8  13
HETATM   13  O   UNL     1     -10.779  16.621  66.091  1.00  0.00    -0.249 OA 
BRANCH  13  14
HETATM   14  C   UNL     1     -10.354  15.327  66.271  1.00  0.00    -0.294 A  
HETATM   15  C   UNL     1     -11.085  14.360  65.585  1.00  0.00    -0.321 A  
HETATM   16  C   UNL     1     -10.698  13.019  65.629  1.00  0.00    -0.293 A  
HETATM   17  C   UNL     1      -9.574  12.628  66.359  1.00  0.00    -0.248 A  
HETATM   18  C   UNL     1      -9.228  14.948  66.995  1.00  0.00    -0.249 A  
HETATM   19  C   UNL     1      -8.854  13.600  67.061  1.00  0.00    -0.233 A  
BRANCH  17  20
HETATM   20  N   UNL     1      -9.119  11.293  66.418  1.00  0.00    -0.186 N  
HETATM   21  H   UNL     1      -8.680  10.915  65.578  1.00  0.00     0.000 HD 
HETATM   22  C   UNL     1      -9.213  10.453  67.507  1.00  0.00    -0.145 C  
HETATM   23  O   UNL     1      -9.749  10.674  68.580  1.00  0.00    -0.160 OA 
BRANCH  22  24
HETATM   24  C   UNL     1      -8.560   9.121  67.324  1.00  0.00    -0.118 C  
HETATM   25  C   UNL     1      -8.226   8.721  65.889  1.00  0.00    -0.118 C  
HETATM   26  C   UNL     1      -7.115   9.041  66.837  1.00  0.00    -0.078 C  
BRANCH  24  27
HETATM   27  C   UNL     1      -9.026   8.091  68.299  1.00  0.00    -0.132 C  
HETATM   28  O   UNL     1     -10.074   7.499  68.074  1.00  0.00    -0.168 OA 
HETATM   29  N   UNL     1      -8.196   7.912  69.388  1.00  0.00    -0.128 N  
HETATM   30  H   UNL     1      -7.387   8.527  69.487  1.00  0.00     0.000 HD 
BRANCH  29  31
HETATM   31  C   UNL     1      -8.410   6.926  70.366  1.00  0.00    -0.130 A  
HETATM   32  C   UNL     1      -8.068   5.586  70.145  1.00  0.00    -0.098 A  
HETATM   33  C   UNL     1      -8.358   4.618  71.106  1.00  0.00    -0.106 A  
HETATM   34  C   UNL     1      -9.010   4.993  72.273  1.00  0.00    -0.131 A  
HETATM   35  C   UNL     1      -9.324   6.325  72.520  1.00  0.00    -0.146 A  
HETATM   36  F   UNL     1      -9.346   4.057  73.170  1.00  0.00    -0.114 F  
HETATM   37  C   UNL     1      -8.989   7.303  71.580  1.00  0.00    -0.131 A  
ENDBRANCH  29  31
ENDBRANCH  24  27
ENDBRANCH  22  24
ENDBRANCH  17  20
ENDBRANCH  13  14
ENDBRANCH   8  13
BRANCH  10  38
HETATM   38  O   UNL     1      -6.398  18.402  64.547  1.00  0.00    -0.221 OA 
HETATM   39  C   UNL     1      -5.131  17.854  64.897  1.00  0.00     0.138 C  
ENDBRANCH  10  38
ENDBRANCH   2   3
TORSDOF 8
ENDMDL
MODEL      127
REMARK 921   NORMALIZED FREE ENERGY PREDICTED BY IDOCK:   -1.76 KCAL/MOL
REMARK 922        TOTAL FREE ENERGY PREDICTED BY IDOCK:   -4.06 KCAL/MOL
REMARK 923 INTER-LIGAND FREE ENERGY PREDICTED BY IDOCK:   -6.20 KCAL/MOL
REMARK 924 INTRA-LIGAND FREE ENERGY PREDICTED BY IDOCK:    2.14 KCAL/MOL
REMARK 927      BINDING AFFINITY PREDICTED BY RF-SCORE:    0.00 PKD
ROOT
HETATM    1  C   UNL     1     -12.892   8.891  71.871  1.00  0.00    -0.380 C  
HETATM    2  O   UNL     1     -12.844   7.672  72.605  1.00  0.00     0.107 OA 
ENDROOT
BRANCH   2   3
HETATM    3  C   UNL     1     -11.684   6.946  72.540  1.00  0.00    -0.154 A  
HETATM    4  C   UNL     1     -11.649   5.552  72.670  1.00  0.00    -0.293 A  
HETATM    5  C   UNL     1     -10.468   4.828  72.655  1.00  0.00    -0.203 A  
HETATM    6  C   UNL     1      -9.256   5.507  72.447  1.00  0.00    -0.153 A  
HETATM    7  C   UNL     1      -9.282   6.907  72.259  1.00  0.00    -0.144 A  
HETATM    8  C   UNL     1      -8.079   4.727  72.469  1.00  0.00    -0.111 A  
HETATM    9  C   UNL     1      -8.149   3.352  72.678  1.00  0.00    -0.076 A  
HETATM   10  C   UNL     1     -10.477   7.631  72.352  1.00  0.00    -0.248 A  
HETATM   11  N   UNL     1     -10.541   3.504  72.863  1.00  0.00    -0.156 NA 
HETATM   12  C   UNL     1      -9.394   2.797  72.881  1.00  0.00    -0.090 A  
BRANCH   8  13
HETATM   13  O   UNL     1      -6.894   5.377  72.195  1.00  0.00    -0.065 OA 
BRANCH  13  14
HETATM   14  C   UNL     1      -6.876   6.489  71.389  1.00  0.00    -0.063 A  
HETATM   15  C   UNL     1      -6.449   7.663  72.005  1.00  0.00    -0.043 A  
HETATM   16  C   UNL     1      -6.315   8.840  71.265  1.00  0.00    -0.058 A  
HETATM   17  C   UNL     1      -6.604   8.858  69.900  1.00  0.00    -0.042 A  
HETATM   18  C   UNL     1      -7.159   6.495  70.027  1.00  0.00    -0.074 A  
HETATM   19  C   UNL     1      -7.050   7.681  69.289  1.00  0.00    -0.076 A  
BRANCH  17  20
HETATM   20  N   UNL     1      -6.460  10.009  69.095  1.00  0.00    -0.047 N  
HETATM   21  H   UNL     1      -5.536  10.441  69.064  1.00  0.00     0.000 HD 
HETATM   22  C   UNL     1      -7.454  10.604  68.349  1.00  0.00    -0.093 C  
HETATM   23  O   UNL     1      -8.633  10.296  68.289  1.00  0.00    -0.117 OA 
BRANCH  22  24
HETATM   24  C   UNL     1      -7.000  11.757  67.513  1.00  0.00    -0.113 C  
HETATM   25  C   UNL     1      -5.593  12.281  67.789  1.00  0.00    -0.092 C  
HETATM   26  C   UNL     1      -5.869  11.567  66.504  1.00  0.00    -0.106 C  
BRANCH  24  27
HETATM   27  C   UNL     1      -8.098  12.706  67.162  1.00  0.00    -0.141 C  
HETATM   28  O   UNL     1      -8.160  13.778  67.751  1.00  0.00    -0.147 OA 
HETATM   29  N   UNL     1      -8.954  12.255  66.176  1.00  0.00    -0.415 N  
HETATM   30  H   UNL     1      -8.828  11.307  65.821  1.00  0.00     0.000 HD 
BRANCH  29  31
HETATM   31  C   UNL     1      -9.991  13.038  65.640  1.00  0.00    -0.230 A  
HETATM   32  C   UNL     1      -9.773  14.354  65.213  1.00  0.00    -0.077 A  
HETATM   33  C   UNL     1     -10.836  15.130  64.752  1.00  0.00    -0.378 A  
HETATM   34  C   UNL     1     -12.116  14.593  64.744  1.00  0.00    -0.421 A  
HETATM   35  C   UNL     1     -12.341  13.276  65.133  1.00  0.00    -0.516 A  
HETATM   36  F   UNL     1     -13.148  15.355  64.361  1.00  0.00    -0.016 F  
HETATM   37  C   UNL     1     -11.269  12.482  65.548  1.00  0.00    -0.349 A  
ENDBRANCH  29  31
ENDBRANCH  24  27
ENDBRANCH  22  24
ENDBRANCH  17  20
ENDBRANCH  13  14
ENDBRANCH   8  13
BRANCH  10  38
HETATM   38  O   UNL     1     -10.320   8.984  72.195  1.00  0.00    -0.316 OA 
HETATM   39  C   UNL     1     -10.189   9.441  70.852  1.00  0.00    -0.303 C  
ENDBRANCH  10  38
ENDBRANCH   2   3
TORSDOF 8
ENDMDL
MODEL      128
REMARK 921   NORMALIZED FREE ENERGY PREDICTED BY IDOCK:   -1.58 KCAL/MOL
REMARK 922        TOTAL FREE ENERGY PREDICTED BY IDOCK:   -3.79 KCAL/MOL
REMARK 923 INTER-LIGAND FREE ENERGY PREDICTED BY IDOCK:   -4.94 KCAL/MOL
REMARK 924 INTRA-LIGAND FREE ENERGY PREDICTED BY IDOCK:    1.16 KCAL/MOL
REMARK 927      BINDING AFFINITY PREDICTED BY RF-SCORE:    0.00 PKD
ROOT
HETATM    1  C   UNL     1     -11.063  11.207  64.232  1.00  0.00    -0.105 C  
HETATM    2  O   UNL     1     -11.072  10.779  65.589  1.00  0.00     0.018 OA 
ENDROOT
BRANCH   2   3
HETATM    3  C   UNL     1      -9.896  10.296  66.102  1.00  0.00    -0.225 A  
HETATM    4  C   UNL     1      -9.231   9.185  65.568  1.00  0.00    -0.287 A  
HETATM    5  C   UNL     1      -8.071   8.670  66.123  1.00  0.00    -0.108 A  
HETATM    6  C   UNL     1      -7.502   9.315  67.233  1.00  0.00    -0.091 A  
HETATM    7  C   UNL     1      -8.132  10.470  67.748  1.00  0.00    -0.106 A  
HETATM    8  C   UNL     1      -6.336   8.734  67.778  1.00  0.00    -0.057 A  
HETATM    9  C   UNL     1      -5.794   7.583  67.212  1.00  0.00    -0.035 A  
HETATM   10  C   UNL     1      -9.345  10.933  67.222  1.00  0.00    -0.155 A  
HETATM   11  N   UNL     1      -7.555   7.558  65.578  1.00  0.00    -0.088 NA 
HETATM   12  C   UNL     1      -6.445   7.032  66.130  1.00  0.00    -0.051 A  
BRANCH   8  13
HETATM   13  O   UNL     1      -5.734   9.402  68.823  1.00  0.00    -0.040 OA 
BRANCH  13  14
HETATM   14  C   UNL     1      -5.806  10.771  68.912  1.00  0.00    -0.040 A  
HETATM   15  C   UNL     1      -5.484  11.461  67.746  1.00  0.00    -0.046 A  
HETATM   16  C   UNL     1      -5.596  12.851  67.694  1.00  0.00    -0.120 A  
HETATM   17  C   UNL     1      -6.035  13.571  68.806  1.00  0.00    -0.084 A  
HETATM   18  C   UNL     1      -6.252  11.479  70.024  1.00  0.00    -0.142 A  
HETATM   19  C   UNL     1      -6.341  12.877  69.982  1.00  0.00     0.014 A  
BRANCH  17  20
HETATM   20  N   UNL     1      -6.196  14.974  68.804  1.00  0.00    -0.082 N  
HETATM   21  H   UNL     1      -6.589  15.395  67.962  1.00  0.00     0.000 HD 
HETATM   22  C   UNL     1      -5.869  15.827  69.836  1.00  0.00    -0.155 C  
HETATM   23  O   UNL     1      -5.334  15.551  70.897  1.00  0.00    -0.147 OA 
BRANCH  22  24
HETATM   24  C   UNL     1      -6.236  17.257  69.602  1.00  0.00    -0.232 C  
HETATM   25  C   UNL     1      -5.857  18.243  70.704  1.00  0.00     0.055 C  
HETATM   26  C   UNL     1      -5.140  18.300  69.393  1.00  0.00    -0.183 C  
BRANCH  24  27
HETATM   27  C   UNL     1      -7.515  17.428  68.851  1.00  0.00    -0.235 C  
HETATM   28  O   UNL     1      -8.450  16.678  69.102  1.00  0.00    -0.216 OA 
HETATM   29  N   UNL     1      -7.504  18.449  67.920  1.00  0.00    -0.232 N  
HETATM   30  H   UNL     1      -6.629  18.951  67.762  1.00  0.00     0.000 HD 
BRANCH  29  31
HETATM   31  C   UNL     1      -8.637  18.830  67.181  1.00  0.00    -0.277 A  
HETATM   32  C   UNL     1      -9.322  17.921  66.366  1.00  0.00    -0.268 A  
HETATM   33  C   UNL     1     -10.400  18.346  65.590  1.00  0.00    -0.057 A  
HETATM   34  C   UNL     1     -10.769  19.684  65.614  1.00  0.00    -0.329 A  
HETATM   35  C   UNL     1     -10.119  20.590  66.444  1.00  0.00    -0.237 A  
HETATM   36  F   UNL     1     -11.763  20.108  64.822  1.00  0.00     0.303 F  
HETATM   37  C   UNL     1      -9.072  20.156  67.261  1.00  0.00    -0.480 A  
ENDBRANCH  29  31
ENDBRANCH  24  27
ENDBRANCH  22  24
ENDBRANCH  17  20
ENDBRANCH  13  14
ENDBRANCH   8  13
BRANCH  10  38
HETATM   38  O   UNL     1      -9.848  12.033  67.867  1.00  0.00    -0.185 OA 
HETATM   39  C   UNL     1      -9.664  13.279  67.203  1.00  0.00    -0.236 C  
ENDBRANCH  10  38
ENDBRANCH   2   3
TORSDOF 8
ENDMDL
MODEL      129
REMARK 921   NORMALIZED FREE ENERGY PREDICTED BY IDOCK:   -1.21 KCAL/MOL
REMARK 922        TOTAL FREE ENERGY PREDICTED BY IDOCK:   -3.25 KCAL/MOL
REMARK 923 INTER-LIGAND FREE ENERGY PREDICTED BY IDOCK:   -4.61 KCAL/MOL
REMARK 924 INTRA-LIGAND FREE ENERGY PREDICTED BY IDOCK:    1.36 KCAL/MOL
REMARK 927      BINDING AFFINITY PREDICTED BY RF-SCORE:    0.00 PKD
ROOT
HETATM    1  C   UNL     1     -11.555  16.124  63.914  1.00  0.00     0.571 C  
HETATM    2  O   UNL     1     -11.649  17.377  64.583  1.00  0.00    -0.385 OA 
ENDROOT
BRANCH   2   3
HETATM    3  C   UNL     1     -10.683  17.666  65.511  1.00  0.00    -0.037 A  
HETATM    4  C   UNL     1     -10.008  18.892  65.552  1.00  0.00     0.494 A  
HETATM    5  C   UNL     1      -8.996  19.159  66.460  1.00  0.00    -0.341 A  
HETATM    6  C   UNL     1      -8.664  18.185  67.416  1.00  0.00    -0.245 A  
HETATM    7  C   UNL     1      -9.375  16.964  67.421  1.00  0.00    -0.235 A  
HETATM    8  C   UNL     1      -7.607  18.495  68.300  1.00  0.00    -0.287 A  
HETATM    9  C   UNL     1      -6.952  19.721  68.210  1.00  0.00    -0.333 A  
HETATM   10  C   UNL     1     -10.343  16.682  66.449  1.00  0.00    -0.306 A  
HETATM   11  N   UNL     1      -8.364  20.339  66.366  1.00  0.00    -0.220 NA 
HETATM   12  C   UNL     1      -7.358  20.594  67.224  1.00  0.00    -0.344 A  
BRANCH   8  13
HETATM   13  O   UNL     1      -7.324  17.573  69.284  1.00  0.00    -0.180 OA 
BRANCH  13  14
HETATM   14  C   UNL     1      -7.077  16.260  68.963  1.00  0.00    -0.196 A  
HETATM   15  C   UNL     1      -7.966  15.337  69.508  1.00  0.00    -0.199 A  
HETATM   16  C   UNL     1      -7.861  13.982  69.187  1.00  0.00     0.106 A  
HETATM   17  C   UNL     1      -6.867  13.533  68.316  1.00  0.00    -0.108 A  
HETATM   18  C   UNL     1      -6.088  15.824  68.087  1.00  0.00    -0.133 A  
HETATM   19  C   UNL     1      -5.965  14.461  67.785  1.00  0.00    -0.111 A  
BRANCH  17  20
HETATM   20  N   UNL     1      -6.730  12.180  67.933  1.00  0.00    -0.076 N  
HETATM   21  H   UNL     1      -6.516  11.995  66.953  1.00  0.00     0.000 HD 
HETATM   22  C   UNL     1      -6.858  11.088  68.763  1.00  0.00    -0.073 C  
HETATM   23  O   UNL     1      -7.169  11.074  69.942  1.00  0.00    -0.081 OA 
BRANCH  22  24
HETATM   24  C   UNL     1      -6.565   9.774  68.112  1.00  0.00    -0.060 C  
HETATM   25  C   UNL     1      -6.580   9.756  66.586  1.00  0.00    -0.071 C  
HETATM   26  C   UNL     1      -5.281   9.593  67.307  1.00  0.00    -0.035 C  
BRANCH  24  27
HETATM   27  C   UNL     1      -7.080   8.602  68.881  1.00  0.00    -0.066 C  
HETATM   28  O   UNL     1      -7.240   8.715  70.089  1.00  0.00    -0.048 OA 
HETATM   29  N   UNL     1      -7.328   7.478  68.117  1.00  0.00    -0.093 N  
HETATM   30  H   UNL     1      -7.081   7.500  67.127  1.00  0.00     0.000 HD 
BRANCH  29  31
HETATM   31  C   UNL     1      -7.904   6.305  68.637  1.00  0.00    -0.102 A  
HETATM   32  C   UNL     1      -9.277   6.214  68.896  1.00  0.00    -0.125 A  
HETATM   33  C   UNL     1      -9.808   5.063  69.478  1.00  0.00    -0.281 A  
HETATM   34  C   UNL     1      -8.958   4.020  69.821  1.00  0.00    -0.100 A  
HETATM   35  C   UNL     1      -7.598   4.085  69.538  1.00  0.00    -0.053 A  
HETATM   36  F   UNL     1      -9.455   2.940  70.437  1.00  0.00    -0.191 F  
HETATM   37  C   UNL     1      -7.072   5.216  68.909  1.00  0.00    -0.057 A  
ENDBRANCH  29  31
ENDBRANCH  24  27
ENDBRANCH  22  24
ENDBRANCH  17  20
ENDBRANCH  13  14
ENDBRANCH   8  13
BRANCH  10  38
HETATM   38  O   UNL     1     -10.901  15.435  66.566  1.00  0.00    -0.309 OA 
HETATM   39  C   UNL     1     -10.036  14.340  66.285  1.00  0.00    -0.298 C  
ENDBRANCH  10  38
ENDBRANCH   2   3
TORSDOF 8
ENDMDL
MODEL      130
REMARK 921   NORMALIZED FREE ENERGY PREDICTED BY IDOCK:   -1.07 KCAL/MOL
REMARK 922        TOTAL FREE ENERGY PREDICTED BY IDOCK:   -3.04 KCAL/MOL
REMARK 923 INTER-LIGAND FREE ENERGY PREDICTED BY IDOCK:   -3.07 KCAL/MOL
REMARK 924 INTRA-LIGAND FREE ENERGY PREDICTED BY IDOCK:    0.03 KCAL/MOL
REMARK 927      BINDING AFFINITY PREDICTED BY RF-SCORE:    0.00 PKD
ROOT
HETATM    1  C   UNL     1      -9.990   4.665  67.172  1.00  0.00    -0.177 C  
HETATM    2  O   UNL     1     -10.652   5.560  68.059  1.00  0.00    -0.201 OA 
ENDROOT
BRANCH   2   3
HETATM    3  C   UNL     1     -10.599   6.896  67.757  1.00  0.00    -0.244 A  
HETATM    4  C   UNL     1     -10.317   7.376  66.472  1.00  0.00    -0.108 A  
HETATM    5  C   UNL     1     -10.213   8.727  66.184  1.00  0.00     0.042 A  
HETATM    6  C   UNL     1     -10.453   9.662  67.205  1.00  0.00    -0.323 A  
HETATM    7  C   UNL     1     -10.793   9.192  68.493  1.00  0.00    -0.089 A  
HETATM    8  C   UNL     1     -10.307  11.025  66.867  1.00  0.00    -0.235 A  
HETATM    9  C   UNL     1      -9.952  11.394  65.572  1.00  0.00    -0.282 A  
HETATM   10  C   UNL     1     -10.820   7.822  68.785  1.00  0.00     0.030 A  
HETATM   11  N   UNL     1      -9.865   9.078  64.937  1.00  0.00     0.560 NA 
HETATM   12  C   UNL     1      -9.732  10.389  64.656  1.00  0.00    -0.329 A  
BRANCH   8  13
HETATM   13  O   UNL     1     -10.609  11.947  67.846  1.00  0.00    -0.192 OA 
BRANCH  13  14
HETATM   14  C   UNL     1     -10.225  13.259  67.712  1.00  0.00    -0.228 A  
HETATM   15  C   UNL     1     -10.765  13.929  66.617  1.00  0.00    -0.281 A  
HETATM   16  C   UNL     1     -10.508  15.287  66.423  1.00  0.00    -0.307 A  
HETATM   17  C   UNL     1      -9.709  15.995  67.323  1.00  0.00    -0.232 A  
HETATM   18  C   UNL     1      -9.434  13.958  68.620  1.00  0.00    -0.123 A  
HETATM   19  C   UNL     1      -9.154  15.315  68.412  1.00  0.00    -0.189 A  
BRANCH  17  20
HETATM   20  N   UNL     1      -9.438  17.375  67.194  1.00  0.00    -0.252 N  
HETATM   21  H   UNL     1      -8.815  17.792  67.886  1.00  0.00     0.000 HD 
HETATM   22  C   UNL     1      -9.939  18.210  66.220  1.00  0.00    -0.342 C  
HETATM   23  O   UNL     1     -10.742  17.941  65.341  1.00  0.00    -0.634 OA 
BRANCH  22  24
HETATM   24  C   UNL     1      -9.410  19.608  66.265  1.00  0.00    -0.453 C  
HETATM   25  C   UNL     1      -8.715  20.110  65.002  1.00  0.00     1.483 C  
HETATM   26  C   UNL     1     -10.038  20.688  65.387  1.00  0.00     0.621 C  
BRANCH  24  27
HETATM   27  C   UNL     1      -8.901  20.008  67.610  1.00  0.00    -0.328 C  
HETATM   28  O   UNL     1      -9.670  20.551  68.393  1.00  0.00    -0.091 OA 
HETATM   29  N   UNL     1      -7.570  19.713  67.832  1.00  0.00    -0.289 N  
HETATM   30  H   UNL     1      -7.024  19.324  67.062  1.00  0.00     0.000 HD 
BRANCH  29  31
HETATM   31  C   UNL     1      -6.929  19.924  69.065  1.00  0.00    -0.292 A  
HETATM   32  C   UNL     1      -7.418  19.362  70.252  1.00  0.00     0.764 A  
HETATM   33  C   UNL     1      -6.803  19.647  71.471  1.00  0.00     0.996 A  
HETATM   34  C   UNL     1      -5.718  20.512  71.498  1.00  0.00    -0.183 A  
HETATM   35  C   UNL     1      -5.202  21.050  70.324  1.00  0.00    -0.278 A  
HETATM   36  F   UNL     1      -5.164  20.837  72.673  1.00  0.00    -0.034 F  
HETATM   37  C   UNL     1      -5.786  20.725  69.097  1.00  0.00    -0.398 A  
ENDBRANCH  29  31
ENDBRANCH  24  27
ENDBRANCH  22  24
ENDBRANCH  17  20
ENDBRANCH  13  14
ENDBRANCH   8  13
BRANCH  10  38
HETATM   38  O   UNL     1     -11.118   7.537  70.092  1.00  0.00    -0.260 OA 
HETATM   39  C   UNL     1     -10.184   8.009  71.058  1.00  0.00    -0.190 C  
ENDBRANCH  10  38
ENDBRANCH   2   3
TORSDOF 8
ENDMDL
MODEL      131
REMARK 921   NORMALIZED FREE ENERGY PREDICTED BY IDOCK:   -0.82 KCAL/MOL
REMARK 922        TOTAL FREE ENERGY PREDICTED BY IDOCK:   -2.68 KCAL/MOL
REMARK 923 INTER-LIGAND FREE ENERGY PREDICTED BY IDOCK:   -4.98 KCAL/MOL
REMARK 924 INTRA-LIGAND FREE ENERGY PREDICTED BY IDOCK:    2.30 KCAL/MOL
REMARK 927      BINDING AFFINITY PREDICTED BY RF-SCORE:    0.00 PKD
ROOT
HETATM    1  C   UNL     1     -10.356   9.306  71.551  1.00  0.00    -0.294 C  
HETATM    2  O   UNL     1     -11.294   9.311  70.481  1.00  0.00    -0.252 OA 
ENDROOT
BRANCH   2   3
HETATM    3  C   UNL     1     -11.078  10.200  69.461  1.00  0.00    -0.250 A  
HETATM    4  C   UNL     1     -11.630  11.487  69.442  1.00  0.00    -0.388 A  
HETATM    5  C   UNL     1     -11.451  12.362  68.384  1.00  0.00    -0.310 A  
HETATM    6  C   UNL     1     -10.639  11.972  67.306  1.00  0.00    -0.252 A  
HETATM    7  C   UNL     1     -10.030  10.697  67.338  1.00  0.00    -0.213 A  
HETATM    8  C   UNL     1     -10.511  12.889  66.241  1.00  0.00    -0.270 A  
HETATM    9  C   UNL     1     -11.163  14.119  66.289  1.00  0.00    -0.329 A  
HETATM   10  C   UNL     1     -10.283   9.797  68.380  1.00  0.00    -0.185 A  
HETATM   11  N   UNL     1     -12.086  13.544  68.432  1.00  0.00    -0.326 NA 
HETATM   12  C   UNL     1     -11.942  14.389  67.394  1.00  0.00    -0.373 A  
BRANCH   8  13
HETATM   13  O   UNL     1      -9.660  12.541  65.214  1.00  0.00    -0.114 OA 
BRANCH  13  14
HETATM   14  C   UNL     1      -9.173  11.260  65.114  1.00  0.00    -0.149 A  
HETATM   15  C   UNL     1      -7.915  11.056  65.677  1.00  0.00     0.034 A  
HETATM   16  C   UNL     1      -7.353   9.778  65.705  1.00  0.00    -0.105 A  
HETATM   17  C   UNL     1      -8.041   8.688  65.172  1.00  0.00    -0.143 A  
HETATM   18  C   UNL     1      -9.870  10.177  64.587  1.00  0.00    -0.361 A  
HETATM   19  C   UNL     1      -9.296   8.899  64.590  1.00  0.00     0.351 A  
BRANCH  17  20
HETATM   20  N   UNL     1      -7.536   7.369  65.197  1.00  0.00    -0.081 N  
HETATM   21  H   UNL     1      -7.562   6.845  64.321  1.00  0.00     0.000 HD 
HETATM   22  C   UNL     1      -7.011   6.725  66.296  1.00  0.00    -0.062 C  
HETATM   23  O   UNL     1      -6.942   7.134  67.443  1.00  0.00    -0.073 OA 
BRANCH  22  24
HETATM   24  C   UNL     1      -6.460   5.364  66.016  1.00  0.00    -0.044 C  
HETATM   25  C   UNL     1      -6.418   4.938  64.551  1.00  0.00    -0.038 C  
HETATM   26  C   UNL     1      -5.136   5.218  65.268  1.00  0.00    -0.009 C  
BRANCH  24  27
HETATM   27  C   UNL     1      -6.777   4.363  67.078  1.00  0.00    -0.051 C  
HETATM   28  O   UNL     1      -7.079   3.225  66.743  1.00  0.00    -0.053 OA 
HETATM   29  N   UNL     1      -6.691   4.848  68.368  1.00  0.00    -0.049 N  
HETATM   30  H   UNL     1      -6.498   5.841  68.502  1.00  0.00     0.000 HD 
BRANCH  29  31
HETATM   31  C   UNL     1      -6.858   4.040  69.507  1.00  0.00    -0.042 A  
HETATM   32  C   UNL     1      -8.047   4.053  70.248  1.00  0.00    -0.058 A  
HETATM   33  C   UNL     1      -8.157   3.294  71.414  1.00  0.00    -0.061 A  
HETATM   34  C   UNL     1      -7.068   2.548  71.844  1.00  0.00    -0.034 A  
HETATM   35  C   UNL     1      -5.894   2.501  71.099  1.00  0.00    -0.014 A  
HETATM   36  F   UNL     1      -7.148   1.869  72.996  1.00  0.00    -0.024 F  
HETATM   37  C   UNL     1      -5.800   3.220  69.905  1.00  0.00    -0.018 A  
ENDBRANCH  29  31
ENDBRANCH  24  27
ENDBRANCH  22  24
ENDBRANCH  17  20
ENDBRANCH  13  14
ENDBRANCH   8  13
BRANCH  10  38
HETATM   38  O   UNL     1      -9.655   8.586  68.234  1.00  0.00    -0.141 OA 
HETATM   39  C   UNL     1     -10.510   7.464  68.040  1.00  0.00    -0.199 C  
ENDBRANCH  10  38
ENDBRANCH   2   3
TORSDOF 8
ENDMDL
MODEL      132
REMARK 921   NORMALIZED FREE ENERGY PREDICTED BY IDOCK:   -0.67 KCAL/MOL
REMARK 922        TOTAL FREE ENERGY PREDICTED BY IDOCK:   -2.45 KCAL/MOL
REMARK 923 INTER-LIGAND FREE ENERGY PREDICTED BY IDOCK:   -2.44 KCAL/MOL
REMARK 924 INTRA-LIGAND FREE ENERGY PREDICTED BY IDOCK:   -0.01 KCAL/MOL
REMARK 927      BINDING AFFINITY PREDICTED BY RF-SCORE:    0.00 PKD
ROOT
HETATM    1  C   UNL     1      -9.845   4.063  67.545  1.00  0.00    -0.057 C  
HETATM    2  O   UNL     1     -10.610   4.888  68.417  1.00  0.00     0.044 OA 
ENDROOT
BRANCH   2   3
HETATM    3  C   UNL     1     -10.645   6.230  68.139  1.00  0.00    -0.257 A  
HETATM    4  C   UNL     1     -10.293   6.760  66.891  1.00  0.00    -0.324 A  
HETATM    5  C   UNL     1     -10.281   8.121  66.634  1.00  0.00    -0.259 A  
HETATM    6  C   UNL     1     -10.687   9.010  67.642  1.00  0.00    -0.232 A  
HETATM    7  C   UNL     1     -11.097   8.485  68.888  1.00  0.00     0.236 A  
HETATM    8  C   UNL     1     -10.629  10.387  67.338  1.00  0.00    -0.269 A  
HETATM    9  C   UNL     1     -10.195  10.813  66.085  1.00  0.00    -0.308 A  
HETATM   10  C   UNL     1     -11.032   7.112  69.157  1.00  0.00    -0.113 A  
HETATM   11  N   UNL     1      -9.857   8.527  65.427  1.00  0.00     0.498 NA 
HETATM   12  C   UNL     1      -9.811   9.849  65.177  1.00  0.00    -0.278 A  
BRANCH   8  13
HETATM   13  O   UNL     1     -11.093  11.260  68.299  1.00  0.00    -0.202 OA 
BRANCH  13  14
HETATM   14  C   UNL     1     -10.783  12.596  68.238  1.00  0.00    -0.230 A  
HETATM   15  C   UNL     1     -11.296  13.374  69.273  1.00  0.00    -0.314 A  
HETATM   16  C   UNL     1     -10.982  14.732  69.359  1.00  0.00    -0.282 A  
HETATM   17  C   UNL     1     -10.150  15.330  68.411  1.00  0.00    -0.220 A  
HETATM   18  C   UNL     1      -9.946  13.182  67.292  1.00  0.00    -0.230 A  
HETATM   19  C   UNL     1      -9.652  14.550  67.362  1.00  0.00    -0.212 A  
BRANCH  17  20
HETATM   20  N   UNL     1      -9.775  16.690  68.462  1.00  0.00    -0.235 N  
HETATM   21  H   UNL     1      -9.161  17.030  67.722  1.00  0.00     0.000 HD 
HETATM   22  C   UNL     1     -10.163  17.601  69.421  1.00  0.00    -0.043 C  
HETATM   23  O   UNL     1     -10.836  17.399  70.418  1.00  0.00     0.421 OA 
BRANCH  22  24
HETATM   24  C   UNL     1      -9.696  19.000  69.176  1.00  0.00    -0.310 C  
HETATM   25  C   UNL     1     -10.776  20.077  69.132  1.00  0.00     0.474 C  
HETATM   26  C   UNL     1      -9.819  20.048  70.280  1.00  0.00     0.757 C  
BRANCH  24  27
HETATM   27  C   UNL     1      -8.518  19.083  68.263  1.00  0.00    -0.331 C  
HETATM   28  O   UNL     1      -7.500  18.470  68.558  1.00  0.00    -0.279 OA 
HETATM   29  N   UNL     1      -8.711  19.871  67.145  1.00  0.00    -0.316 N  
HETATM   30  H   UNL     1      -9.589  20.385  67.060  1.00  0.00     0.000 HD 
BRANCH  29  31
HETATM   31  C   UNL     1      -7.759  20.000  66.119  1.00  0.00    -0.299 A  
HETATM   32  C   UNL     1      -7.101  21.212  65.875  1.00  0.00     0.295 A  
HETATM   33  C   UNL     1      -6.214  21.328  64.805  1.00  0.00    -0.033 A  
HETATM   34  C   UNL     1      -6.010  20.238  63.970  1.00  0.00    -0.275 A  
HETATM   35  C   UNL     1      -6.631  19.019  64.221  1.00  0.00     0.949 A  
HETATM   36  F   UNL     1      -5.208  20.365  62.905  1.00  0.00    -0.175 F  
HETATM   37  C   UNL     1      -7.480  18.887  65.322  1.00  0.00     0.527 A  
ENDBRANCH  29  31
ENDBRANCH  24  27
ENDBRANCH  22  24
ENDBRANCH  17  20
ENDBRANCH  13  14
ENDBRANCH   8  13
BRANCH  10  38
HETATM   38  O   UNL     1     -11.418   6.775  70.429  1.00  0.00    -0.321 OA 
HETATM   39  C   UNL     1     -11.102   7.722  71.444  1.00  0.00    -0.238 C  
ENDBRANCH  10  38
ENDBRANCH   2   3
TORSDOF 8
ENDMDL
MODEL      133
REMARK 921   NORMALIZED FREE ENERGY PREDICTED BY IDOCK:   -0.51 KCAL/MOL
REMARK 922        TOTAL FREE ENERGY PREDICTED BY IDOCK:   -2.21 KCAL/MOL
REMARK 923 INTER-LIGAND FREE ENERGY PREDICTED BY IDOCK:   -1.86 KCAL/MOL
REMARK 924 INTRA-LIGAND FREE ENERGY PREDICTED BY IDOCK:   -0.36 KCAL/MOL
REMARK 927      BINDING AFFINITY PREDICTED BY RF-SCORE:    0.00 PKD
ROOT
HETATM    1  C   UNL     1     -10.242  19.398  70.948  1.00  0.00     2.022 C  
HETATM    2  O   UNL     1     -10.975  18.207  71.213  1.00  0.00     1.774 OA 
ENDROOT
BRANCH   2   3
HETATM    3  C   UNL     1     -10.952  17.230  70.252  1.00  0.00     0.855 A  
HETATM    4  C   UNL     1     -10.199  17.336  69.075  1.00  0.00    -0.318 A  
HETATM    5  C   UNL     1     -10.221  16.369  68.084  1.00  0.00    -0.262 A  
HETATM    6  C   UNL     1     -10.984  15.207  68.282  1.00  0.00    -0.276 A  
HETATM    7  C   UNL     1     -11.705  15.062  69.489  1.00  0.00    -0.350 A  
HETATM    8  C   UNL     1     -10.995  14.265  67.230  1.00  0.00    -0.297 A  
HETATM    9  C   UNL     1     -10.265  14.501  66.068  1.00  0.00    -0.329 A  
HETATM   10  C   UNL     1     -11.731  16.083  70.447  1.00  0.00    -0.309 A  
HETATM   11  N   UNL     1      -9.521  16.603  66.963  1.00  0.00    -0.225 NA 
HETATM   12  C   UNL     1      -9.561  15.683  65.981  1.00  0.00    -0.351 A  
BRANCH   8  13
HETATM   13  O   UNL     1     -11.685  13.092  67.448  1.00  0.00    -0.339 OA 
BRANCH  13  14
HETATM   14  C   UNL     1     -11.023  11.889  67.489  1.00  0.00    -0.247 A  
HETATM   15  C   UNL     1     -10.772  11.391  68.765  1.00  0.00    -0.240 A  
HETATM   16  C   UNL     1     -10.176  10.139  68.930  1.00  0.00    -0.213 A  
HETATM   17  C   UNL     1      -9.824   9.368  67.821  1.00  0.00    -0.170 A  
HETATM   18  C   UNL     1     -10.684  11.124  66.377  1.00  0.00    -0.303 A  
HETATM   19  C   UNL     1     -10.062   9.879  66.541  1.00  0.00    -0.298 A  
BRANCH  17  20
HETATM   20  N   UNL     1      -9.246   8.084  67.926  1.00  0.00    -0.131 N  
HETATM   21  H   UNL     1      -8.548   7.948  68.658  1.00  0.00     0.000 HD 
HETATM   22  C   UNL     1      -9.537   6.998  67.130  1.00  0.00    -0.149 C  
HETATM   23  O   UNL     1     -10.285   6.953  66.166  1.00  0.00     0.113 OA 
BRANCH  22  24
HETATM   24  C   UNL     1      -8.846   5.733  67.524  1.00  0.00    -0.106 C  
HETATM   25  C   UNL     1      -9.596   4.434  67.240  1.00  0.00    -0.220 C  
HETATM   26  C   UNL     1      -8.370   4.758  66.449  1.00  0.00    -0.107 C  
BRANCH  24  27
HETATM   27  C   UNL     1      -8.021   5.866  68.762  1.00  0.00    -0.103 C  
HETATM   28  O   UNL     1      -7.486   6.941  68.999  1.00  0.00    -0.091 OA 
HETATM   29  N   UNL     1      -7.949   4.721  69.531  1.00  0.00    -0.066 N  
HETATM   30  H   UNL     1      -8.386   3.870  69.176  1.00  0.00     0.000 HD 
BRANCH  29  31
HETATM   31  C   UNL     1      -7.302   4.670  70.778  1.00  0.00    -0.052 A  
HETATM   32  C   UNL     1      -8.015   4.473  71.967  1.00  0.00    -0.099 A  
HETATM   33  C   UNL     1      -7.354   4.499  73.195  1.00  0.00    -0.081 A  
HETATM   34  C   UNL     1      -5.989   4.747  73.228  1.00  0.00    -0.021 A  
HETATM   35  C   UNL     1      -5.264   4.911  72.052  1.00  0.00    -0.004 A  
HETATM   36  F   UNL     1      -5.363   4.835  74.408  1.00  0.00    -0.011 F  
HETATM   37  C   UNL     1      -5.916   4.835  70.819  1.00  0.00    -0.018 A  
ENDBRANCH  29  31
ENDBRANCH  24  27
ENDBRANCH  22  24
ENDBRANCH  17  20
ENDBRANCH  13  14
ENDBRANCH   8  13
BRANCH  10  38
HETATM   38  O   UNL     1     -12.517  15.803  71.535  1.00  0.00    -0.406 OA 
HETATM   39  C   UNL     1     -11.838  15.282  72.673  1.00  0.00    -0.429 C  
ENDBRANCH  10  38
ENDBRANCH   2   3
TORSDOF 8
ENDMDL
MODEL      134
REMARK 921   NORMALIZED FREE ENERGY PREDICTED BY IDOCK:   -0.31 KCAL/MOL
REMARK 922        TOTAL FREE ENERGY PREDICTED BY IDOCK:   -1.92 KCAL/MOL
REMARK 923 INTER-LIGAND FREE ENERGY PREDICTED BY IDOCK:   -3.08 KCAL/MOL
REMARK 924 INTRA-LIGAND FREE ENERGY PREDICTED BY IDOCK:    1.16 KCAL/MOL
REMARK 927      BINDING AFFINITY PREDICTED BY RF-SCORE:    0.00 PKD
ROOT
HETATM    1  C   UNL     1     -12.528  12.330  65.603  1.00  0.00     0.273 C  
HETATM    2  O   UNL     1     -12.129  11.552  66.726  1.00  0.00    -0.345 OA 
ENDROOT
BRANCH   2   3
HETATM    3  C   UNL     1     -10.786  11.470  66.986  1.00  0.00    -0.259 A  
HETATM    4  C   UNL     1      -9.878  10.850  66.119  1.00  0.00    -0.268 A  
HETATM    5  C   UNL     1      -8.530  10.723  66.412  1.00  0.00    -0.158 A  
HETATM    6  C   UNL     1      -8.036  11.284  67.601  1.00  0.00    -0.118 A  
HETATM    7  C   UNL     1      -8.931  11.960  68.459  1.00  0.00    -0.115 A  
HETATM    8  C   UNL     1      -6.661  11.104  67.866  1.00  0.00    -0.062 A  
HETATM    9  C   UNL     1      -5.857  10.407  66.967  1.00  0.00    -0.051 A  
HETATM   10  C   UNL     1     -10.303  12.014  68.184  1.00  0.00    -0.198 A  
HETATM   11  N   UNL     1      -7.760  10.046  65.546  1.00  0.00    -0.129 NA 
HETATM   12  C   UNL     1      -6.455   9.892  65.837  1.00  0.00    -0.087 A  
BRANCH   8  13
HETATM   13  O   UNL     1      -6.157  11.712  68.996  1.00  0.00    -0.050 OA 
BRANCH  13  14
HETATM   14  C   UNL     1      -6.129  13.081  69.099  1.00  0.00    -0.095 A  
HETATM   15  C   UNL     1      -6.385  13.773  67.918  1.00  0.00    -0.162 A  
HETATM   16  C   UNL     1      -6.461  15.167  67.918  1.00  0.00    -0.176 A  
HETATM   17  C   UNL     1      -6.282  15.888  69.099  1.00  0.00    -0.140 A  
HETATM   18  C   UNL     1      -5.958  13.791  70.284  1.00  0.00    -0.152 A  
HETATM   19  C   UNL     1      -6.007  15.191  70.281  1.00  0.00    -0.139 A  
BRANCH  17  20
HETATM   20  N   UNL     1      -6.376  17.296  69.166  1.00  0.00    -0.216 N  
HETATM   21  H   UNL     1      -6.781  17.773  68.361  1.00  0.00     0.000 HD 
HETATM   22  C   UNL     1      -5.967  18.084  70.220  1.00  0.00    -0.055 C  
HETATM   23  O   UNL     1      -5.405  17.734  71.244  1.00  0.00    -0.254 OA 
BRANCH  22  24
HETATM   24  C   UNL     1      -6.274  19.539  70.064  1.00  0.00    -0.301 C  
HETATM   25  C   UNL     1      -5.790  20.456  71.184  1.00  0.00    -0.252 C  
HETATM   26  C   UNL     1      -5.139  20.536  69.841  1.00  0.00    -0.315 C  
BRANCH  24  27
HETATM   27  C   UNL     1      -7.579  19.804  69.390  1.00  0.00    -0.043 C  
HETATM   28  O   UNL     1      -8.379  20.557  69.931  1.00  0.00     1.031 OA 
HETATM   29  N   UNL     1      -7.749  19.146  68.188  1.00  0.00    -0.282 N  
HETATM   30  H   UNL     1      -7.028  18.489  67.888  1.00  0.00     0.000 HD 
BRANCH  29  31
HETATM   31  C   UNL     1      -8.866  19.337  67.356  1.00  0.00    -0.296 A  
HETATM   32  C   UNL     1      -9.594  18.256  66.843  1.00  0.00    -0.296 A  
HETATM   33  C   UNL     1     -10.654  18.475  65.964  1.00  0.00    -0.368 A  
HETATM   34  C   UNL     1     -10.963  19.774  65.582  1.00  0.00    -0.105 A  
HETATM   35  C   UNL     1     -10.270  20.858  66.111  1.00  0.00     0.838 A  
HETATM   36  F   UNL     1     -11.939  19.984  64.690  1.00  0.00     1.180 F  
HETATM   37  C   UNL     1      -9.241  20.643  67.031  1.00  0.00    -0.390 A  
ENDBRANCH  29  31
ENDBRANCH  24  27
ENDBRANCH  22  24
ENDBRANCH  17  20
ENDBRANCH  13  14
ENDBRANCH   8  13
BRANCH  10  38
HETATM   38  O   UNL     1     -11.038  12.663  69.142  1.00  0.00    -0.245 OA 
HETATM   39  C   UNL     1     -11.389  14.011  68.846  1.00  0.00    -0.280 C  
ENDBRANCH  10  38
ENDBRANCH   2   3
TORSDOF 8
ENDMDL
MODEL      135
REMARK 921   NORMALIZED FREE ENERGY PREDICTED BY IDOCK:    0.13 KCAL/MOL
REMARK 922        TOTAL FREE ENERGY PREDICTED BY IDOCK:   -1.28 KCAL/MOL
REMARK 923 INTER-LIGAND FREE ENERGY PREDICTED BY IDOCK:   -0.68 KCAL/MOL
REMARK 924 INTRA-LIGAND FREE ENERGY PREDICTED BY IDOCK:   -0.60 KCAL/MOL
REMARK 927      BINDING AFFINITY PREDICTED BY RF-SCORE:    0.00 PKD
ROOT
HETATM    1  C   UNL     1     -12.384  16.994  66.099  1.00  0.00     4.396 C  
HETATM    2  O   UNL     1     -11.730  15.999  65.319  1.00  0.00     0.197 OA 
ENDROOT
BRANCH   2   3
HETATM    3  C   UNL     1     -10.653  15.368  65.883  1.00  0.00    -0.339 A  
HETATM    4  C   UNL     1      -9.748  16.017  66.733  1.00  0.00    -0.253 A  
HETATM    5  C   UNL     1      -8.632  15.386  67.258  1.00  0.00    -0.195 A  
HETATM    6  C   UNL     1      -8.420  14.027  66.976  1.00  0.00    -0.168 A  
HETATM    7  C   UNL     1      -9.355  13.346  66.164  1.00  0.00    -0.075 A  
HETATM    8  C   UNL     1      -7.254  13.439  67.512  1.00  0.00    -0.153 A  
HETATM    9  C   UNL     1      -6.379  14.195  68.289  1.00  0.00    -0.118 A  
HETATM   10  C   UNL     1     -10.437  14.017  65.581  1.00  0.00    -0.318 A  
HETATM   11  N   UNL     1      -7.789  16.120  68.002  1.00  0.00    -0.142 NA 
HETATM   12  C   UNL     1      -6.685  15.523  68.491  1.00  0.00    -0.113 A  
BRANCH   8  13
HETATM   13  O   UNL     1      -7.078  12.089  67.297  1.00  0.00    -0.130 OA 
BRANCH  13  14
HETATM   14  C   UNL     1      -7.750  11.166  68.060  1.00  0.00    -0.107 A  
HETATM   15  C   UNL     1      -7.210   9.882  68.053  1.00  0.00    -0.083 A  
HETATM   16  C   UNL     1      -7.762   8.879  68.853  1.00  0.00    -0.095 A  
HETATM   17  C   UNL     1      -8.859   9.148  69.672  1.00  0.00    -0.151 A  
HETATM   18  C   UNL     1      -8.840  11.445  68.880  1.00  0.00    -0.010 A  
HETATM   19  C   UNL     1      -9.410  10.433  69.663  1.00  0.00    -0.096 A  
BRANCH  17  20
HETATM   20  N   UNL     1      -9.442   8.183  70.523  1.00  0.00    -0.162 N  
HETATM   21  H   UNL     1      -9.169   8.206  71.506  1.00  0.00     0.000 HD 
HETATM   22  C   UNL     1     -10.345   7.212  70.147  1.00  0.00    -0.206 C  
HETATM   23  O   UNL     1     -10.757   6.965  69.026  1.00  0.00    -0.219 OA 
BRANCH  22  24
HETATM   24  C   UNL     1     -10.874   6.384  71.273  1.00  0.00    -0.306 C  
HETATM   25  C   UNL     1     -11.617   7.134  72.376  1.00  0.00    -0.292 C  
HETATM   26  C   UNL     1     -12.381   6.230  71.463  1.00  0.00    -0.020 C  
BRANCH  24  27
HETATM   27  C   UNL     1     -10.004   5.219  71.614  1.00  0.00    -0.180 C  
HETATM   28  O   UNL     1     -10.176   4.162  71.020  1.00  0.00    -0.119 OA 
HETATM   29  N   UNL     1      -9.068   5.469  72.599  1.00  0.00    -0.138 N  
HETATM   30  H   UNL     1      -9.083   6.378  73.062  1.00  0.00     0.000 HD 
BRANCH  29  31
HETATM   31  C   UNL     1      -8.096   4.533  72.993  1.00  0.00    -0.096 A  
HETATM   32  C   UNL     1      -8.444   3.237  73.394  1.00  0.00    -0.074 A  
HETATM   33  C   UNL     1      -7.465   2.354  73.847  1.00  0.00    -0.041 A  
HETATM   34  C   UNL     1      -6.146   2.782  73.922  1.00  0.00    -0.008 A  
HETATM   35  C   UNL     1      -5.782   4.055  73.495  1.00  0.00    -0.004 A  
HETATM   36  F   UNL     1      -5.213   1.958  74.416  1.00  0.00     0.000 F  
HETATM   37  C   UNL     1      -6.754   4.923  72.993  1.00  0.00    -0.066 A  
ENDBRANCH  29  31
ENDBRANCH  24  27
ENDBRANCH  22  24
ENDBRANCH  17  20
ENDBRANCH  13  14
ENDBRANCH   8  13
BRANCH  10  38
HETATM   38  O   UNL     1     -11.219  13.223  64.782  1.00  0.00    -0.308 OA 
HETATM   39  C   UNL     1     -12.494  12.875  65.312  1.00  0.00    -0.493 C  
ENDBRANCH  10  38
ENDBRANCH   2   3
TORSDOF 8
ENDMDL
MODEL      136
REMARK 921   NORMALIZED FREE ENERGY PREDICTED BY IDOCK:    0.24 KCAL/MOL
REMARK 922        TOTAL FREE ENERGY PREDICTED BY IDOCK:   -1.11 KCAL/MOL
REMARK 923 INTER-LIGAND FREE ENERGY PREDICTED BY IDOCK:   -1.31 KCAL/MOL
REMARK 924 INTRA-LIGAND FREE ENERGY PREDICTED BY IDOCK:    0.20 KCAL/MOL
REMARK 927      BINDING AFFINITY PREDICTED BY RF-SCORE:    0.00 PKD
ROOT
HETATM    1  C   UNL     1     -10.701   4.732  70.342  1.00  0.00     0.388 C  
HETATM    2  O   UNL     1      -9.413   5.035  70.868  1.00  0.00    -0.147 OA 
ENDROOT
BRANCH   2   3
HETATM    3  C   UNL     1      -8.715   6.051  70.269  1.00  0.00    -0.143 A  
HETATM    4  C   UNL     1      -7.804   5.839  69.227  1.00  0.00    -0.090 A  
HETATM    5  C   UNL     1      -7.063   6.863  68.662  1.00  0.00    -0.085 A  
HETATM    6  C   UNL     1      -7.266   8.179  69.110  1.00  0.00    -0.073 A  
HETATM    7  C   UNL     1      -8.221   8.414  70.123  1.00  0.00    -0.117 A  
HETATM    8  C   UNL     1      -6.465   9.182  68.521  1.00  0.00    -0.054 A  
HETATM    9  C   UNL     1      -5.535   8.853  67.538  1.00  0.00    -0.035 A  
HETATM   10  C   UNL     1      -8.907   7.358  70.735  1.00  0.00    -0.149 A  
HETATM   11  N   UNL     1      -6.163   6.541  67.719  1.00  0.00    -0.030 NA 
HETATM   12  C   UNL     1      -5.416   7.526  67.186  1.00  0.00    -0.030 A  
BRANCH   8  13
HETATM   13  O   UNL     1      -6.709  10.483  68.907  1.00  0.00    -0.055 OA 
BRANCH  13  14
HETATM   14  C   UNL     1      -7.473  11.313  68.123  1.00  0.00    -0.091 A  
HETATM   15  C   UNL     1      -8.533  11.938  68.775  1.00  0.00     0.036 A  
HETATM   16  C   UNL     1      -9.331  12.863  68.100  1.00  0.00    -0.214 A  
HETATM   17  C   UNL     1      -9.079  13.178  66.764  1.00  0.00    -0.209 A  
HETATM   18  C   UNL     1      -7.208  11.626  66.793  1.00  0.00    -0.082 A  
HETATM   19  C   UNL     1      -8.024  12.535  66.107  1.00  0.00     0.953 A  
BRANCH  17  20
HETATM   20  N   UNL     1      -9.833  14.126  66.038  1.00  0.00    -0.351 N  
HETATM   21  H   UNL     1      -9.533  15.099  66.095  1.00  0.00     0.000 HD 
HETATM   22  C   UNL     1     -10.937  13.856  65.260  1.00  0.00    -0.331 C  
HETATM   23  O   UNL     1     -11.500  12.785  65.101  1.00  0.00    -0.302 OA 
BRANCH  22  24
HETATM   24  C   UNL     1     -11.485  15.037  64.524  1.00  0.00    -0.320 C  
HETATM   25  C   UNL     1     -11.924  14.793  63.083  1.00  0.00     1.776 C  
HETATM   26  C   UNL     1     -12.958  15.069  64.126  1.00  0.00     0.940 C  
BRANCH  24  27
HETATM   27  C   UNL     1     -10.834  16.326  64.901  1.00  0.00    -0.296 C  
HETATM   28  O   UNL     1     -10.840  17.247  64.094  1.00  0.00     0.049 OA 
HETATM   29  N   UNL     1     -10.275  16.341  66.164  1.00  0.00    -0.329 N  
HETATM   30  H   UNL     1     -10.279  15.476  66.706  1.00  0.00     0.000 HD 
BRANCH  29  31
HETATM   31  C   UNL     1      -9.702  17.488  66.740  1.00  0.00    -0.295 A  
HETATM   32  C   UNL     1      -8.342  17.542  67.070  1.00  0.00    -0.239 A  
HETATM   33  C   UNL     1      -7.816  18.667  67.705  1.00  0.00    -0.261 A  
HETATM   34  C   UNL     1      -8.661  19.721  68.029  1.00  0.00    -0.295 A  
HETATM   35  C   UNL     1     -10.006  19.694  67.676  1.00  0.00    -0.510 A  
HETATM   36  F   UNL     1      -8.173  20.776  68.695  1.00  0.00     0.283 F  
HETATM   37  C   UNL     1     -10.522  18.589  66.995  1.00  0.00    -0.440 A  
ENDBRANCH  29  31
ENDBRANCH  24  27
ENDBRANCH  22  24
ENDBRANCH  17  20
ENDBRANCH  13  14
ENDBRANCH   8  13
BRANCH  10  38
HETATM   38  O   UNL     1      -9.761   7.753  71.733  1.00  0.00    -0.158 OA 
HETATM   39  C   UNL     1      -9.292   8.808  72.567  1.00  0.00    -0.007 C  
ENDBRANCH  10  38
ENDBRANCH   2   3
TORSDOF 8
ENDMDL
MODEL      137
REMARK 921   NORMALIZED FREE ENERGY PREDICTED BY IDOCK:    0.49 KCAL/MOL
REMARK 922        TOTAL FREE ENERGY PREDICTED BY IDOCK:   -0.74 KCAL/MOL
REMARK 923 INTER-LIGAND FREE ENERGY PREDICTED BY IDOCK:   -0.95 KCAL/MOL
REMARK 924 INTRA-LIGAND FREE ENERGY PREDICTED BY IDOCK:    0.21 KCAL/MOL
REMARK 927      BINDING AFFINITY PREDICTED BY RF-SCORE:    0.00 PKD
ROOT
HETATM    1  C   UNL     1     -10.245  19.367  70.868  1.00  0.00     2.022 C  
HETATM    2  O   UNL     1     -10.897  18.107  70.978  1.00  0.00     1.626 OA 
ENDROOT
BRANCH   2   3
HETATM    3  C   UNL     1     -10.850  17.279  69.887  1.00  0.00     0.492 A  
HETATM    4  C   UNL     1     -10.220  17.634  68.688  1.00  0.00    -0.377 A  
HETATM    5  C   UNL     1     -10.221  16.814  67.571  1.00  0.00    -0.289 A  
HETATM    6  C   UNL     1     -10.830  15.551  67.654  1.00  0.00    -0.306 A  
HETATM    7  C   UNL     1     -11.421  15.158  68.875  1.00  0.00    -0.337 A  
HETATM    8  C   UNL     1     -10.829  14.766  66.480  1.00  0.00    -0.319 A  
HETATM    9  C   UNL     1     -10.235  15.245  65.315  1.00  0.00    -0.397 A  
HETATM   10  C   UNL     1     -11.476  16.029  69.970  1.00  0.00    -0.331 A  
HETATM   11  N   UNL     1      -9.653  17.282  66.449  1.00  0.00    -0.280 NA 
HETATM   12  C   UNL     1      -9.676  16.504  65.349  1.00  0.00     0.256 A  
BRANCH   8  13
HETATM   13  O   UNL     1     -11.362  13.499  66.575  1.00  0.00    -0.304 OA 
BRANCH  13  14
HETATM   14  C   UNL     1     -10.577  12.392  66.364  1.00  0.00    -0.244 A  
HETATM   15  C   UNL     1     -10.679  11.396  67.333  1.00  0.00    -0.274 A  
HETATM   16  C   UNL     1      -9.987  10.192  67.184  1.00  0.00    -0.243 A  
HETATM   17  C   UNL     1      -9.186   9.967  66.064  1.00  0.00    -0.162 A  
HETATM   18  C   UNL     1      -9.787  12.173  65.239  1.00  0.00    -0.216 A  
HETATM   19  C   UNL     1      -9.071  10.977  65.101  1.00  0.00    -0.199 A  
BRANCH  17  20
HETATM   20  N   UNL     1      -8.486   8.760  65.845  1.00  0.00    -0.135 N  
HETATM   21  H   UNL     1      -8.562   8.042  66.566  1.00  0.00     0.000 HD 
HETATM   22  C   UNL     1      -7.709   8.464  64.746  1.00  0.00    -0.109 C  
HETATM   23  O   UNL     1      -7.432   9.190  63.805  1.00  0.00    -0.102 OA 
BRANCH  22  24
HETATM   24  C   UNL     1      -7.161   7.073  64.728  1.00  0.00    -0.072 C  
HETATM   25  C   UNL     1      -7.015   6.421  63.355  1.00  0.00    -0.047 C  
HETATM   26  C   UNL     1      -5.788   6.804  64.117  1.00  0.00    -0.032 C  
BRANCH  24  27
HETATM   27  C   UNL     1      -7.575   6.255  65.906  1.00  0.00    -0.084 C  
HETATM   28  O   UNL     1      -7.833   6.826  66.958  1.00  0.00    -0.101 OA 
HETATM   29  N   UNL     1      -7.623   4.894  65.673  1.00  0.00    -0.085 N  
HETATM   30  H   UNL     1      -7.311   4.546  64.766  1.00  0.00     0.000 HD 
BRANCH  29  31
HETATM   31  C   UNL     1      -8.080   3.965  66.624  1.00  0.00    -0.097 A  
HETATM   32  C   UNL     1      -9.258   3.233  66.429  1.00  0.00    -0.161 A  
HETATM   33  C   UNL     1      -9.723   2.372  67.422  1.00  0.00     0.304 A  
HETATM   34  C   UNL     1      -9.020   2.267  68.615  1.00  0.00    -0.125 A  
HETATM   35  C   UNL     1      -7.832   2.963  68.808  1.00  0.00    -0.058 A  
HETATM   36  F   UNL     1      -9.498   1.489  69.595  1.00  0.00    -0.148 F  
HETATM   37  C   UNL     1      -7.338   3.787  67.794  1.00  0.00    -0.063 A  
ENDBRANCH  29  31
ENDBRANCH  24  27
ENDBRANCH  22  24
ENDBRANCH  17  20
ENDBRANCH  13  14
ENDBRANCH   8  13
BRANCH  10  38
HETATM   38  O   UNL     1     -12.128  15.511  71.060  1.00  0.00    -0.321 OA 
HETATM   39  C   UNL     1     -11.354  14.659  71.898  1.00  0.00     0.362 C  
ENDBRANCH  10  38
ENDBRANCH   2   3
TORSDOF 8
ENDMDL
MODEL      138
REMARK 921   NORMALIZED FREE ENERGY PREDICTED BY IDOCK:    0.73 KCAL/MOL
REMARK 922        TOTAL FREE ENERGY PREDICTED BY IDOCK:   -0.40 KCAL/MOL
REMARK 923 INTER-LIGAND FREE ENERGY PREDICTED BY IDOCK:   -1.53 KCAL/MOL
REMARK 924 INTRA-LIGAND FREE ENERGY PREDICTED BY IDOCK:    1.13 KCAL/MOL
REMARK 927      BINDING AFFINITY PREDICTED BY RF-SCORE:    0.00 PKD
ROOT
HETATM    1  C   UNL     1     -13.994  12.203  72.892  1.00  0.00     1.666 C  
HETATM    2  O   UNL     1     -13.592  11.841  71.576  1.00  0.00     0.024 OA 
ENDROOT
BRANCH   2   3
HETATM    3  C   UNL     1     -13.097  10.576  71.397  1.00  0.00    -0.410 A  
HETATM    4  C   UNL     1     -12.891   9.682  72.455  1.00  0.00    -0.315 A  
HETATM    5  C   UNL     1     -12.342   8.423  72.273  1.00  0.00    -0.376 A  
HETATM    6  C   UNL     1     -12.025   7.998  70.973  1.00  0.00    -0.260 A  
HETATM    7  C   UNL     1     -12.278   8.870  69.890  1.00  0.00     0.905 A  
HETATM    8  C   UNL     1     -11.441   6.719  70.846  1.00  0.00    -0.334 A  
HETATM    9  C   UNL     1     -11.213   5.935  71.974  1.00  0.00    -0.330 A  
HETATM   10  C   UNL     1     -12.764  10.167  70.099  1.00  0.00     0.044 A  
HETATM   11  N   UNL     1     -12.118   7.673  73.364  1.00  0.00     0.631 NA 
HETATM   12  C   UNL     1     -11.556   6.460  73.201  1.00  0.00     0.268 A  
BRANCH   8  13
HETATM   13  O   UNL     1     -11.193   6.269  69.566  1.00  0.00    -0.380 OA 
BRANCH  13  14
HETATM   14  C   UNL     1     -10.370   6.976  68.724  1.00  0.00    -0.187 A  
HETATM   15  C   UNL     1      -9.026   7.004  69.090  1.00  0.00    -0.134 A  
HETATM   16  C   UNL     1      -8.083   7.625  68.270  1.00  0.00    -0.124 A  
HETATM   17  C   UNL     1      -8.471   8.226  67.071  1.00  0.00    -0.122 A  
HETATM   18  C   UNL     1     -10.765   7.565  67.527  1.00  0.00    -0.296 A  
HETATM   19  C   UNL     1      -9.824   8.212  66.715  1.00  0.00    -0.329 A  
BRANCH  17  20
HETATM   20  N   UNL     1      -7.559   8.844  66.187  1.00  0.00    -0.090 N  
HETATM   21  H   UNL     1      -6.987   9.600  66.564  1.00  0.00     0.000 HD 
HETATM   22  C   UNL     1      -7.372   8.519  64.861  1.00  0.00    -0.087 C  
HETATM   23  O   UNL     1      -7.985   7.701  64.195  1.00  0.00    -0.134 OA 
BRANCH  22  24
HETATM   24  C   UNL     1      -6.271   9.271  64.185  1.00  0.00    -0.085 C  
HETATM   25  C   UNL     1      -5.181   8.430  63.527  1.00  0.00    -0.057 C  
HETATM   26  C   UNL     1      -6.125   9.206  62.666  1.00  0.00    -0.094 C  
BRANCH  24  27
HETATM   27  C   UNL     1      -5.920  10.553  64.866  1.00  0.00    -0.087 C  
HETATM   28  O   UNL     1      -5.174  11.338  64.295  1.00  0.00    -0.077 OA 
HETATM   29  N   UNL     1      -6.496  10.719  66.110  1.00  0.00    -0.127 N  
HETATM   30  H   UNL     1      -7.043   9.950  66.498  1.00  0.00     0.000 HD 
BRANCH  29  31
HETATM   31  C   UNL     1      -6.366  11.896  66.868  1.00  0.00    -0.107 A  
HETATM   32  C   UNL     1      -5.212  12.166  67.614  1.00  0.00    -0.085 A  
HETATM   33  C   UNL     1      -5.141  13.307  68.412  1.00  0.00    -0.077 A  
HETATM   34  C   UNL     1      -6.236  14.159  68.479  1.00  0.00    -0.093 A  
HETATM   35  C   UNL     1      -7.375  13.920  67.718  1.00  0.00    -0.170 A  
HETATM   36  F   UNL     1      -6.195  15.221  69.293  1.00  0.00    -0.103 F  
HETATM   37  C   UNL     1      -7.428  12.804  66.879  1.00  0.00     0.199 A  
ENDBRANCH  29  31
ENDBRANCH  24  27
ENDBRANCH  22  24
ENDBRANCH  17  20
ENDBRANCH  13  14
ENDBRANCH   8  13
BRANCH  10  38
HETATM   38  O   UNL     1     -12.906  10.899  68.948  1.00  0.00     0.007 OA 
HETATM   39  C   UNL     1     -11.723  11.076  68.176  1.00  0.00    -0.202 C  
ENDBRANCH  10  38
ENDBRANCH   2   3
TORSDOF 8
ENDMDL
MODEL      139
REMARK 921   NORMALIZED FREE ENERGY PREDICTED BY IDOCK:    0.83 KCAL/MOL
REMARK 922        TOTAL FREE ENERGY PREDICTED BY IDOCK:   -0.25 KCAL/MOL
REMARK 923 INTER-LIGAND FREE ENERGY PREDICTED BY IDOCK:    0.20 KCAL/MOL
REMARK 924 INTRA-LIGAND FREE ENERGY PREDICTED BY IDOCK:   -0.44 KCAL/MOL
REMARK 927      BINDING AFFINITY PREDICTED BY RF-SCORE:    0.00 PKD
ROOT
HETATM    1  C   UNL     1      -8.700  13.852  66.039  1.00  0.00     0.771 C  
HETATM    2  O   UNL     1      -8.189  12.527  66.133  1.00  0.00     0.356 OA 
ENDROOT
BRANCH   2   3
HETATM    3  C   UNL     1      -7.835  12.078  67.378  1.00  0.00    -0.162 A  
HETATM    4  C   UNL     1      -6.893  12.729  68.184  1.00  0.00    -0.094 A  
HETATM    5  C   UNL     1      -6.501  12.241  69.420  1.00  0.00    -0.105 A  
HETATM    6  C   UNL     1      -7.109  11.076  69.917  1.00  0.00     0.008 A  
HETATM    7  C   UNL     1      -8.101  10.440  69.138  1.00  0.00    -0.151 A  
HETATM    8  C   UNL     1      -6.654  10.606  71.168  1.00  0.00     0.867 A  
HETATM    9  C   UNL     1      -5.657  11.291  71.858  1.00  0.00     0.598 A  
HETATM   10  C   UNL     1      -8.430  10.904  67.859  1.00  0.00    -0.129 A  
HETATM   11  N   UNL     1      -5.537  12.902  70.079  1.00  0.00    -0.113 NA 
HETATM   12  C   UNL     1      -5.128  12.418  71.267  1.00  0.00    -0.138 A  
BRANCH   8  13
HETATM   13  O   UNL     1      -7.296   9.503  71.692  1.00  0.00    -0.293 OA 
BRANCH  13  14
HETATM   14  C   UNL     1      -7.115   8.260  71.136  1.00  0.00    -0.059 A  
HETATM   15  C   UNL     1      -7.948   7.260  71.633  1.00  0.00    -0.096 A  
HETATM   16  C   UNL     1      -7.909   5.974  71.090  1.00  0.00    -0.111 A  
HETATM   17  C   UNL     1      -7.040   5.672  70.041  1.00  0.00    -0.067 A  
HETATM   18  C   UNL     1      -6.251   7.970  70.085  1.00  0.00    -0.032 A  
HETATM   19  C   UNL     1      -6.193   6.674  69.556  1.00  0.00    -0.037 A  
BRANCH  17  20
HETATM   20  N   UNL     1      -6.977   4.399  69.433  1.00  0.00    -0.049 N  
HETATM   21  H   UNL     1      -7.599   3.678  69.799  1.00  0.00     0.000 HD 
HETATM   22  C   UNL     1      -6.151   4.041  68.389  1.00  0.00    -0.031 C  
HETATM   23  O   UNL     1      -5.294   4.718  67.845  1.00  0.00    -0.010 OA 
BRANCH  22  24
HETATM   24  C   UNL     1      -6.362   2.653  67.876  1.00  0.00    -0.032 C  
HETATM   25  C   UNL     1      -5.146   1.731  67.900  1.00  0.00    -0.004 C  
HETATM   26  C   UNL     1      -6.282   1.467  68.835  1.00  0.00    -0.025 C  
BRANCH  24  27
HETATM   27  C   UNL     1      -7.338   2.577  66.749  1.00  0.00    -0.065 C  
HETATM   28  O   UNL     1      -7.757   1.478  66.406  1.00  0.00    -0.060 OA 
HETATM   29  N   UNL     1      -7.674   3.797  66.195  1.00  0.00    -0.088 N  
HETATM   30  H   UNL     1      -7.192   4.631  66.532  1.00  0.00     0.000 HD 
BRANCH  29  31
HETATM   31  C   UNL     1      -8.646   3.946  65.191  1.00  0.00    -0.114 A  
HETATM   32  C   UNL     1      -8.294   4.071  63.841  1.00  0.00    -0.094 A  
HETATM   33  C   UNL     1      -9.276   4.289  62.875  1.00  0.00    -0.131 A  
HETATM   34  C   UNL     1     -10.602   4.406  63.269  1.00  0.00     0.249 A  
HETATM   35  C   UNL     1     -10.969   4.250  64.602  1.00  0.00    -0.040 A  
HETATM   36  F   UNL     1     -11.540   4.678  62.353  1.00  0.00     0.135 F  
HETATM   37  C   UNL     1      -9.992   3.981  65.563  1.00  0.00    -0.171 A  
ENDBRANCH  29  31
ENDBRANCH  24  27
ENDBRANCH  22  24
ENDBRANCH  17  20
ENDBRANCH  13  14
ENDBRANCH   8  13
BRANCH  10  38
HETATM   38  O   UNL     1      -9.375  10.144  67.217  1.00  0.00    -0.150 OA 
HETATM   39  C   UNL     1      -9.054   8.767  67.052  1.00  0.00    -0.133 C  
ENDBRANCH  10  38
ENDBRANCH   2   3
TORSDOF 8
ENDMDL
MODEL      140
REMARK 921   NORMALIZED FREE ENERGY PREDICTED BY IDOCK:    0.98 KCAL/MOL
REMARK 922        TOTAL FREE ENERGY PREDICTED BY IDOCK:   -0.03 KCAL/MOL
REMARK 923 INTER-LIGAND FREE ENERGY PREDICTED BY IDOCK:   -5.00 KCAL/MOL
REMARK 924 INTRA-LIGAND FREE ENERGY PREDICTED BY IDOCK:    4.97 KCAL/MOL
REMARK 927      BINDING AFFINITY PREDICTED BY RF-SCORE:    0.00 PKD
ROOT
HETATM    1  C   UNL     1      -6.530   7.018  72.990  1.00  0.00    -0.061 C  
HETATM    2  O   UNL     1      -7.278   7.268  71.805  1.00  0.00    -0.070 OA 
ENDROOT
BRANCH   2   3
HETATM    3  C   UNL     1      -7.176   6.349  70.794  1.00  0.00    -0.074 A  
HETATM    4  C   UNL     1      -7.385   4.977  70.987  1.00  0.00    -0.072 A  
HETATM    5  C   UNL     1      -7.230   4.047  69.973  1.00  0.00    -0.042 A  
HETATM    6  C   UNL     1      -6.903   4.494  68.682  1.00  0.00    -0.051 A  
HETATM    7  C   UNL     1      -6.744   5.880  68.461  1.00  0.00    -0.057 A  
HETATM    8  C   UNL     1      -6.729   3.504  67.691  1.00  0.00    -0.042 A  
HETATM    9  C   UNL     1      -6.891   2.157  68.006  1.00  0.00    -0.036 A  
HETATM   10  C   UNL     1      -6.830   6.800  69.514  1.00  0.00    -0.054 A  
HETATM   11  N   UNL     1      -7.381   2.750  70.282  1.00  0.00    -0.040 NA 
HETATM   12  C   UNL     1      -7.202   1.836  69.309  1.00  0.00    -0.036 A  
BRANCH   8  13
HETATM   13  O   UNL     1      -6.477   3.941  66.408  1.00  0.00    -0.035 OA 
BRANCH  13  14
HETATM   14  C   UNL     1      -6.772   5.231  66.038  1.00  0.00    -0.053 A  
HETATM   15  C   UNL     1      -8.016   5.409  65.438  1.00  0.00    -0.107 A  
HETATM   16  C   UNL     1      -8.457   6.687  65.092  1.00  0.00    -0.041 A  
HETATM   17  C   UNL     1      -7.660   7.806  65.342  1.00  0.00    -0.089 A  
HETATM   18  C   UNL     1      -5.973   6.341  66.299  1.00  0.00    -0.028 A  
HETATM   19  C   UNL     1      -6.403   7.622  65.928  1.00  0.00    -0.042 A  
BRANCH  17  20
HETATM   20  N   UNL     1      -8.064   9.125  65.040  1.00  0.00    -0.123 N  
HETATM   21  H   UNL     1      -7.409   9.701  64.511  1.00  0.00     0.000 HD 
HETATM   22  C   UNL     1      -9.263   9.705  65.394  1.00  0.00    -0.238 C  
HETATM   23  O   UNL     1     -10.156   9.225  66.073  1.00  0.00    -0.297 OA 
BRANCH  22  24
HETATM   24  C   UNL     1      -9.469  11.085  64.860  1.00  0.00    -0.270 C  
HETATM   25  C   UNL     1      -8.900  11.366  63.471  1.00  0.00     0.164 C  
HETATM   26  C   UNL     1     -10.382  11.307  63.656  1.00  0.00    -0.464 C  
BRANCH  24  27
HETATM   27  C   UNL     1      -9.431  12.143  65.913  1.00  0.00    -0.179 C  
HETATM   28  O   UNL     1      -9.084  11.834  67.045  1.00  0.00    -0.176 OA 
HETATM   29  N   UNL     1      -9.807  13.400  65.479  1.00  0.00    -0.485 N  
HETATM   30  H   UNL     1     -10.144  13.502  64.522  1.00  0.00     0.000 HD 
BRANCH  29  31
HETATM   31  C   UNL     1      -9.747  14.545  66.292  1.00  0.00    -0.309 A  
HETATM   32  C   UNL     1     -10.905  15.141  66.807  1.00  0.00    -0.322 A  
HETATM   33  C   UNL     1     -10.819  16.317  67.552  1.00  0.00    -0.268 A  
HETATM   34  C   UNL     1      -9.577  16.904  67.755  1.00  0.00    -0.249 A  
HETATM   35  C   UNL     1      -8.416  16.304  67.278  1.00  0.00    -0.199 A  
HETATM   36  F   UNL     1      -9.497  18.066  68.415  1.00  0.00    -0.266 F  
HETATM   37  C   UNL     1      -8.496  15.099  66.576  1.00  0.00    -0.149 A  
ENDBRANCH  29  31
ENDBRANCH  24  27
ENDBRANCH  22  24
ENDBRANCH  17  20
ENDBRANCH  13  14
ENDBRANCH   8  13
BRANCH  10  38
HETATM   38  O   UNL     1      -6.601   8.098  69.138  1.00  0.00    -0.042 OA 
HETATM   39  C   UNL     1      -7.469   8.617  68.136  1.00  0.00    -0.096 C  
ENDBRANCH  10  38
ENDBRANCH   2   3
TORSDOF 8
ENDMDL
MODEL      141
REMARK 921   NORMALIZED FREE ENERGY PREDICTED BY IDOCK:    1.28 KCAL/MOL
REMARK 922        TOTAL FREE ENERGY PREDICTED BY IDOCK:    0.42 KCAL/MOL
REMARK 923 INTER-LIGAND FREE ENERGY PREDICTED BY IDOCK:   -0.78 KCAL/MOL
REMARK 924 INTRA-LIGAND FREE ENERGY PREDICTED BY IDOCK:    1.19 KCAL/MOL
REMARK 927      BINDING AFFINITY PREDICTED BY RF-SCORE:    0.00 PKD
ROOT
HETATM    1  C   UNL     1     -10.921  16.650  64.689  1.00  0.00     0.004 C  
HETATM    2  O   UNL     1     -11.719  15.574  65.168  1.00  0.00    -0.128 OA 
ENDROOT
BRANCH   2   3
HETATM    3  C   UNL     1     -11.772  15.388  66.525  1.00  0.00     0.189 A  
HETATM    4  C   UNL     1     -11.348  16.356  67.444  1.00  0.00     0.160 A  
HETATM    5  C   UNL     1     -11.355  16.141  68.813  1.00  0.00    -0.359 A  
HETATM    6  C   UNL     1     -11.856  14.927  69.310  1.00  0.00    -0.350 A  
HETATM    7  C   UNL     1     -12.337  13.963  68.396  1.00  0.00    -0.003 A  
HETATM    8  C   UNL     1     -11.814  14.747  70.709  1.00  0.00    -0.312 A  
HETATM    9  C   UNL     1     -11.305  15.749  71.533  1.00  0.00    -0.424 A  
HETATM   10  C   UNL     1     -12.253  14.166  67.013  1.00  0.00    -0.339 A  
HETATM   11  N   UNL     1     -10.858  17.107  69.601  1.00  0.00    -0.027 NA 
HETATM   12  C   UNL     1     -10.832  16.895  70.931  1.00  0.00     0.785 A  
BRANCH   8  13
HETATM   13  O   UNL     1     -12.368  13.587  71.207  1.00  0.00    -0.336 OA 
BRANCH  13  14
HETATM   14  C   UNL     1     -12.119  12.378  70.605  1.00  0.00    -0.225 A  
HETATM   15  C   UNL     1     -10.801  11.935  70.684  1.00  0.00     2.171 A  
HETATM   16  C   UNL     1     -10.445  10.684  70.177  1.00  0.00     0.031 A  
HETATM   17  C   UNL     1     -11.402   9.859  69.584  1.00  0.00    -0.165 A  
HETATM   18  C   UNL     1     -13.082  11.559  70.023  1.00  0.00     0.583 A  
HETATM   19  C   UNL     1     -12.721  10.315  69.490  1.00  0.00     0.562 A  
BRANCH  17  20
HETATM   20  N   UNL     1     -11.108   8.573  69.079  1.00  0.00    -0.417 N  
HETATM   21  H   UNL     1     -11.764   8.178  68.405  1.00  0.00     0.000 HD 
HETATM   22  C   UNL     1     -10.015   7.804  69.415  1.00  0.00    -0.188 C  
HETATM   23  O   UNL     1      -9.148   8.050  70.237  1.00  0.00    -0.146 OA 
BRANCH  22  24
HETATM   24  C   UNL     1      -9.900   6.521  68.655  1.00  0.00    -0.143 C  
HETATM   25  C   UNL     1     -10.426   5.270  69.354  1.00  0.00    -0.284 C  
HETATM   26  C   UNL     1     -11.160   5.809  68.169  1.00  0.00     0.022 C  
BRANCH  24  27
HETATM   27  C   UNL     1      -8.679   6.444  67.800  1.00  0.00    -0.114 C  
HETATM   28  O   UNL     1      -7.596   6.248  68.337  1.00  0.00    -0.092 OA 
HETATM   29  N   UNL     1      -8.912   6.609  66.449  1.00  0.00    -0.146 N  
HETATM   30  H   UNL     1      -9.858   6.839  66.144  1.00  0.00     0.000 HD 
BRANCH  29  31
HETATM   31  C   UNL     1      -7.909   6.476  65.472  1.00  0.00    -0.104 A  
HETATM   32  C   UNL     1      -6.624   7.001  65.662  1.00  0.00    -0.051 A  
HETATM   33  C   UNL     1      -5.673   6.915  64.646  1.00  0.00    -0.032 A  
HETATM   34  C   UNL     1      -6.020   6.328  63.437  1.00  0.00    -0.022 A  
HETATM   35  C   UNL     1      -7.281   5.773  63.248  1.00  0.00    -0.053 A  
HETATM   36  F   UNL     1      -5.129   6.301  62.438  1.00  0.00    -0.018 F  
HETATM   37  C   UNL     1      -8.219   5.813  64.282  1.00  0.00    -0.106 A  
ENDBRANCH  29  31
ENDBRANCH  24  27
ENDBRANCH  22  24
ENDBRANCH  17  20
ENDBRANCH  13  14
ENDBRANCH   8  13
BRANCH  10  38
HETATM   38  O   UNL     1     -12.718  13.113  66.267  1.00  0.00    -0.293 OA 
HETATM   39  C   UNL     1     -11.850  12.652  65.237  1.00  0.00    -0.408 C  
ENDBRANCH  10  38
ENDBRANCH   2   3
TORSDOF 8
ENDMDL
MODEL      142
REMARK 921   NORMALIZED FREE ENERGY PREDICTED BY IDOCK:    1.81 KCAL/MOL
REMARK 922        TOTAL FREE ENERGY PREDICTED BY IDOCK:    1.18 KCAL/MOL
REMARK 923 INTER-LIGAND FREE ENERGY PREDICTED BY IDOCK:   -2.44 KCAL/MOL
REMARK 924 INTRA-LIGAND FREE ENERGY PREDICTED BY IDOCK:    3.63 KCAL/MOL
REMARK 927      BINDING AFFINITY PREDICTED BY RF-SCORE:    0.00 PKD
ROOT
HETATM    1  C   UNL     1     -12.263  14.016  70.590  1.00  0.00    -0.372 C  
HETATM    2  O   UNL     1     -13.031  13.884  69.399  1.00  0.00     0.394 OA 
ENDROOT
BRANCH   2   3
HETATM    3  C   UNL     1     -12.380  13.432  68.280  1.00  0.00     0.120 A  
HETATM    4  C   UNL     1     -12.221  14.209  67.126  1.00  0.00    -0.348 A  
HETATM    5  C   UNL     1     -11.609  13.729  65.980  1.00  0.00    -0.346 A  
HETATM    6  C   UNL     1     -11.075  12.429  65.986  1.00  0.00    -0.344 A  
HETATM    7  C   UNL     1     -11.180  11.655  67.162  1.00  0.00    -0.371 A  
HETATM    8  C   UNL     1     -10.487  11.978  64.784  1.00  0.00    -0.294 A  
HETATM    9  C   UNL     1     -10.443  12.808  63.667  1.00  0.00    -0.239 A  
HETATM   10  C   UNL     1     -11.868  12.128  68.286  1.00  0.00    -0.301 A  
HETATM   11  N   UNL     1     -11.574  14.530  64.904  1.00  0.00    -0.383 NA 
HETATM   12  C   UNL     1     -11.009  14.060  63.776  1.00  0.00     0.745 A  
BRANCH   8  13
HETATM   13  O   UNL     1      -9.900  10.731  64.806  1.00  0.00    -0.248 OA 
BRANCH  13  14
HETATM   14  C   UNL     1      -9.793  10.028  65.981  1.00  0.00    -0.257 A  
HETATM   15  C   UNL     1      -8.977  10.609  66.949  1.00  0.00    -0.147 A  
HETATM   16  C   UNL     1      -8.854  10.026  68.212  1.00  0.00    -0.116 A  
HETATM   17  C   UNL     1      -9.548   8.855  68.524  1.00  0.00    -0.157 A  
HETATM   18  C   UNL     1     -10.495   8.866  66.286  1.00  0.00     0.087 A  
HETATM   19  C   UNL     1     -10.353   8.265  67.544  1.00  0.00    -0.333 A  
BRANCH  17  20
HETATM   20  N   UNL     1      -9.486   8.236  69.792  1.00  0.00    -0.162 N  
HETATM   21  H   UNL     1      -9.486   7.216  69.811  1.00  0.00     0.000 HD 
HETATM   22  C   UNL     1      -9.425   8.884  71.006  1.00  0.00    -0.252 C  
HETATM   23  O   UNL     1      -9.476  10.085  71.219  1.00  0.00     0.435 OA 
BRANCH  22  24
HETATM   24  C   UNL     1      -9.269   7.981  72.187  1.00  0.00    -0.232 C  
HETATM   25  C   UNL     1      -9.363   8.640  73.561  1.00  0.00     0.577 C  
HETATM   26  C   UNL     1     -10.457   7.726  73.113  1.00  0.00    -0.413 C  
BRANCH  24  27
HETATM   27  C   UNL     1      -8.309   6.861  71.957  1.00  0.00    -0.110 C  
HETATM   28  O   UNL     1      -7.256   6.852  72.581  1.00  0.00    -0.077 OA 
HETATM   29  N   UNL     1      -8.729   5.925  71.032  1.00  0.00    -0.134 N  
HETATM   30  H   UNL     1      -9.602   6.095  70.531  1.00  0.00     0.000 HD 
BRANCH  29  31
HETATM   31  C   UNL     1      -8.013   4.750  70.747  1.00  0.00    -0.081 A  
HETATM   32  C   UNL     1      -7.971   3.678  71.648  1.00  0.00    -0.062 A  
HETATM   33  C   UNL     1      -7.194   2.554  71.368  1.00  0.00    -0.032 A  
HETATM   34  C   UNL     1      -6.444   2.520  70.201  1.00  0.00    -0.028 A  
HETATM   35  C   UNL     1      -6.503   3.562  69.282  1.00  0.00    -0.033 A  
HETATM   36  F   UNL     1      -5.648   1.470  69.959  1.00  0.00    -0.013 F  
HETATM   37  C   UNL     1      -7.320   4.666  69.537  1.00  0.00    -0.052 A  
ENDBRANCH  29  31
ENDBRANCH  24  27
ENDBRANCH  22  24
ENDBRANCH  17  20
ENDBRANCH  13  14
ENDBRANCH   8  13
BRANCH  10  38
HETATM   38  O   UNL     1     -11.921  11.234  69.324  1.00  0.00    -0.318 OA 
HETATM   39  C   UNL     1     -13.055  10.373  69.344  1.00  0.00     1.454 C  
ENDBRANCH  10  38
ENDBRANCH   2   3
TORSDOF 8
ENDMDL
MODEL      143
REMARK 921   NORMALIZED FREE ENERGY PREDICTED BY IDOCK:    3.03 KCAL/MOL
REMARK 922        TOTAL FREE ENERGY PREDICTED BY IDOCK:    2.98 KCAL/MOL
REMARK 923 INTER-LIGAND FREE ENERGY PREDICTED BY IDOCK:   -1.03 KCAL/MOL
REMARK 924 INTRA-LIGAND FREE ENERGY PREDICTED BY IDOCK:    4.01 KCAL/MOL
REMARK 927      BINDING AFFINITY PREDICTED BY RF-SCORE:    0.00 PKD
ROOT
HETATM    1  C   UNL     1      -6.357   9.141  72.614  1.00  0.00     0.207 C  
HETATM    2  O   UNL     1      -7.622   9.124  71.963  1.00  0.00    -0.335 OA 
ENDROOT
BRANCH   2   3
HETATM    3  C   UNL     1      -7.622   9.062  70.594  1.00  0.00    -0.119 A  
HETATM    4  C   UNL     1      -7.718   7.857  69.886  1.00  0.00    -0.098 A  
HETATM    5  C   UNL     1      -7.665   7.796  68.503  1.00  0.00    -0.118 A  
HETATM    6  C   UNL     1      -7.564   8.991  67.772  1.00  0.00    -0.093 A  
HETATM    7  C   UNL     1      -7.522  10.217  68.471  1.00  0.00    -0.084 A  
HETATM    8  C   UNL     1      -7.485   8.872  66.367  1.00  0.00    -0.088 A  
HETATM    9  C   UNL     1      -7.518   7.617  65.764  1.00  0.00    -0.079 A  
HETATM   10  C   UNL     1      -7.502  10.256  69.871  1.00  0.00    -0.158 A  
HETATM   11  N   UNL     1      -7.691   6.584  67.927  1.00  0.00    -0.103 NA 
HETATM   12  C   UNL     1      -7.608   6.513  66.585  1.00  0.00    -0.094 A  
BRANCH   8  13
HETATM   13  O   UNL     1      -7.457  10.044  65.641  1.00  0.00    -0.123 OA 
BRANCH  13  14
HETATM   14  C   UNL     1      -7.361  11.258  66.276  1.00  0.00     0.000 A  
HETATM   15  C   UNL     1      -8.542  11.993  66.338  1.00  0.00    -0.037 A  
HETATM   16  C   UNL     1      -8.584  13.206  67.027  1.00  0.00    -0.168 A  
HETATM   17  C   UNL     1      -7.445  13.700  67.665  1.00  0.00    -0.183 A  
HETATM   18  C   UNL     1      -6.222  11.738  66.916  1.00  0.00    -0.134 A  
HETATM   19  C   UNL     1      -6.256  12.968  67.586  1.00  0.00    -0.158 A  
BRANCH  17  20
HETATM   20  N   UNL     1      -7.434  14.906  68.400  1.00  0.00    -0.109 N  
HETATM   21  H   UNL     1      -8.330  15.245  68.750  1.00  0.00     0.000 HD 
HETATM   22  C   UNL     1      -6.322  15.667  68.688  1.00  0.00    -0.103 C  
HETATM   23  O   UNL     1      -5.173  15.486  68.320  1.00  0.00    -0.094 OA 
BRANCH  22  24
HETATM   24  C   UNL     1      -6.586  16.847  69.568  1.00  0.00    -0.203 C  
HETATM   25  C   UNL     1      -6.515  16.599  71.072  1.00  0.00     1.909 C  
HETATM   26  C   UNL     1      -5.458  17.430  70.418  1.00  0.00    -0.243 C  
BRANCH  24  27
HETATM   27  C   UNL     1      -7.600  17.790  69.011  1.00  0.00    -0.152 C  
HETATM   28  O   UNL     1      -7.958  18.740  69.694  1.00  0.00     0.277 OA 
HETATM   29  N   UNL     1      -8.040  17.476  67.740  1.00  0.00    -0.217 N  
HETATM   30  H   UNL     1      -7.710  16.610  67.312  1.00  0.00     0.000 HD 
BRANCH  29  31
HETATM   31  C   UNL     1      -8.921  18.290  67.006  1.00  0.00    -0.274 A  
HETATM   32  C   UNL     1     -10.000  17.750  66.295  1.00  0.00    -0.322 A  
HETATM   33  C   UNL     1     -10.814  18.575  65.519  1.00  0.00     0.138 A  
HETATM   34  C   UNL     1     -10.527  19.931  65.438  1.00  0.00    -0.065 A  
HETATM   35  C   UNL     1      -9.478  20.485  66.165  1.00  0.00    -0.123 A  
HETATM   36  F   UNL     1     -11.268  20.715  64.644  1.00  0.00    -0.105 F  
HETATM   37  C   UNL     1      -8.694  19.668  66.983  1.00  0.00    -0.369 A  
ENDBRANCH  29  31
ENDBRANCH  24  27
ENDBRANCH  22  24
ENDBRANCH  17  20
ENDBRANCH  13  14
ENDBRANCH   8  13
BRANCH  10  38
HETATM   38  O   UNL     1      -7.408  11.521  70.391  1.00  0.00     0.692 OA 
HETATM   39  C   UNL     1      -6.098  11.948  70.751  1.00  0.00     0.298 C  
ENDBRANCH  10  38
ENDBRANCH   2   3
TORSDOF 8
ENDMDL
MODEL      144
REMARK 921   NORMALIZED FREE ENERGY PREDICTED BY IDOCK:    3.55 KCAL/MOL
REMARK 922        TOTAL FREE ENERGY PREDICTED BY IDOCK:    3.75 KCAL/MOL
REMARK 923 INTER-LIGAND FREE ENERGY PREDICTED BY IDOCK:   -2.26 KCAL/MOL
REMARK 924 INTRA-LIGAND FREE ENERGY PREDICTED BY IDOCK:    6.00 KCAL/MOL
REMARK 927      BINDING AFFINITY PREDICTED BY RF-SCORE:    0.00 PKD
ROOT
HETATM    1  C   UNL     1      -5.176   2.633  67.372  1.00  0.00    -0.009 C  
HETATM    2  O   UNL     1      -5.133   3.069  68.726  1.00  0.00    -0.010 OA 
ENDROOT
BRANCH   2   3
HETATM    3  C   UNL     1      -6.329   3.346  69.334  1.00  0.00    -0.029 A  
HETATM    4  C   UNL     1      -6.715   2.776  70.553  1.00  0.00    -0.033 A  
HETATM    5  C   UNL     1      -7.948   3.020  71.136  1.00  0.00    -0.057 A  
HETATM    6  C   UNL     1      -8.831   3.917  70.512  1.00  0.00    -0.136 A  
HETATM    7  C   UNL     1      -8.432   4.542  69.310  1.00  0.00    -0.092 A  
HETATM    8  C   UNL     1     -10.085   4.109  71.132  1.00  0.00    -0.075 A  
HETATM    9  C   UNL     1     -10.398   3.436  72.310  1.00  0.00    -0.116 A  
HETATM   10  C   UNL     1      -7.213   4.226  68.696  1.00  0.00    -0.056 A  
HETATM   11  N   UNL     1      -8.248   2.365  72.268  1.00  0.00    -0.054 NA 
HETATM   12  C   UNL     1      -9.456   2.572  72.825  1.00  0.00    -0.093 A  
BRANCH   8  13
HETATM   13  O   UNL     1     -10.927   5.041  70.563  1.00  0.00     0.025 OA 
BRANCH  13  14
HETATM   14  C   UNL     1     -10.423   6.067  69.803  1.00  0.00    -0.255 A  
HETATM   15  C   UNL     1     -11.376   6.887  69.203  1.00  0.00    -0.097 A  
HETATM   16  C   UNL     1     -10.982   8.009  68.471  1.00  0.00     0.164 A  
HETATM   17  C   UNL     1      -9.630   8.327  68.331  1.00  0.00    -0.144 A  
HETATM   18  C   UNL     1      -9.073   6.381  69.676  1.00  0.00    -0.143 A  
HETATM   19  C   UNL     1      -8.675   7.492  68.920  1.00  0.00    -0.132 A  
BRANCH  17  20
HETATM   20  N   UNL     1      -9.173   9.464  67.627  1.00  0.00    -0.128 N  
HETATM   21  H   UNL     1      -9.555   9.615  66.694  1.00  0.00     0.000 HD 
HETATM   22  C   UNL     1      -8.259  10.386  68.088  1.00  0.00    -0.116 C  
HETATM   23  O   UNL     1      -7.636  10.366  69.137  1.00  0.00    -0.095 OA 
BRANCH  22  24
HETATM   24  C   UNL     1      -8.029  11.545  67.172  1.00  0.00    -0.160 C  
HETATM   25  C   UNL     1      -6.574  11.875  66.849  1.00  0.00    -0.083 C  
HETATM   26  C   UNL     1      -7.452  11.312  65.778  1.00  0.00     0.272 C  
BRANCH  24  27
HETATM   27  C   UNL     1      -9.027  12.643  67.341  1.00  0.00    -0.190 C  
HETATM   28  O   UNL     1      -9.119  13.494  66.466  1.00  0.00    -0.211 OA 
HETATM   29  N   UNL     1      -9.762  12.578  68.508  1.00  0.00    -0.361 N  
HETATM   30  H   UNL     1      -9.531  11.852  69.187  1.00  0.00     0.000 HD 
BRANCH  29  31
HETATM   31  C   UNL     1     -10.814  13.461  68.807  1.00  0.00    -0.246 A  
HETATM   32  C   UNL     1     -11.198  14.473  67.918  1.00  0.00    -0.310 A  
HETATM   33  C   UNL     1     -12.197  15.379  68.273  1.00  0.00     0.209 A  
HETATM   34  C   UNL     1     -12.788  15.283  69.526  1.00  0.00     0.285 A  
HETATM   35  C   UNL     1     -12.440  14.263  70.404  1.00  0.00    -0.426 A  
HETATM   36  F   UNL     1     -13.703  16.189  69.894  1.00  0.00     0.827 F  
HETATM   37  C   UNL     1     -11.475  13.324  70.030  1.00  0.00    -0.105 A  
ENDBRANCH  29  31
ENDBRANCH  24  27
ENDBRANCH  22  24
ENDBRANCH  17  20
ENDBRANCH  13  14
ENDBRANCH   8  13
BRANCH  10  38
HETATM   38  O   UNL     1      -7.001   4.883  67.511  1.00  0.00    -0.059 OA 
HETATM   39  C   UNL     1      -6.092   5.977  67.563  1.00  0.00    -0.018 C  
ENDBRANCH  10  38
ENDBRANCH   2   3
TORSDOF 8
ENDMDL
MODEL      145
REMARK 921   NORMALIZED FREE ENERGY PREDICTED BY IDOCK:    3.58 KCAL/MOL
REMARK 922        TOTAL FREE ENERGY PREDICTED BY IDOCK:    3.79 KCAL/MOL
REMARK 923 INTER-LIGAND FREE ENERGY PREDICTED BY IDOCK:    2.54 KCAL/MOL
REMARK 924 INTRA-LIGAND FREE ENERGY PREDICTED BY IDOCK:    1.25 KCAL/MOL
REMARK 927      BINDING AFFINITY PREDICTED BY RF-SCORE:    0.00 PKD
ROOT
HETATM    1  C   UNL     1      -8.581   4.705  65.442  1.00  0.00    -0.130 C  
HETATM    2  O   UNL     1      -7.769   5.681  64.798  1.00  0.00    -0.088 OA 
ENDROOT
BRANCH   2   3
HETATM    3  C   UNL     1      -8.243   6.966  64.761  1.00  0.00    -0.050 A  
HETATM    4  C   UNL     1      -7.958   7.854  63.717  1.00  0.00    -0.119 A  
HETATM    5  C   UNL     1      -8.397   9.168  63.712  1.00  0.00    -0.182 A  
HETATM    6  C   UNL     1      -9.205   9.621  64.767  1.00  0.00    -0.298 A  
HETATM    7  C   UNL     1      -9.545   8.720  65.800  1.00  0.00    -0.190 A  
HETATM    8  C   UNL     1      -9.602  10.975  64.729  1.00  0.00    -0.248 A  
HETATM    9  C   UNL     1      -9.204  11.796  63.676  1.00  0.00     0.119 A  
HETATM   10  C   UNL     1      -9.032   7.417  65.828  1.00  0.00    -0.022 A  
HETATM   11  N   UNL     1      -8.006   9.956  62.698  1.00  0.00    -0.123 NA 
HETATM   12  C   UNL     1      -8.402  11.244  62.701  1.00  0.00     0.017 A  
BRANCH   8  13
HETATM   13  O   UNL     1     -10.453  11.406  65.725  1.00  0.00    -0.249 OA 
BRANCH  13  14
HETATM   14  C   UNL     1     -10.405  12.704  66.172  1.00  0.00    -0.256 A  
HETATM   15  C   UNL     1      -9.250  13.052  66.867  1.00  0.00    -0.236 A  
HETATM   16  C   UNL     1      -9.055  14.364  67.301  1.00  0.00    -0.221 A  
HETATM   17  C   UNL     1     -10.013  15.347  67.045  1.00  0.00    -0.238 A  
HETATM   18  C   UNL     1     -11.362  13.678  65.904  1.00  0.00    -0.317 A  
HETATM   19  C   UNL     1     -11.180  14.990  66.362  1.00  0.00    -0.310 A  
BRANCH  17  20
HETATM   20  N   UNL     1      -9.858  16.696  67.434  1.00  0.00    -0.249 N  
HETATM   21  H   UNL     1      -9.554  16.870  68.392  1.00  0.00     0.000 HD 
HETATM   22  C   UNL     1     -10.082  17.798  66.638  1.00  0.00    -0.350 C  
HETATM   23  O   UNL     1     -10.506  17.823  65.494  1.00  0.00    -0.646 OA 
BRANCH  22  24
HETATM   24  C   UNL     1      -9.747  19.107  67.277  1.00  0.00    -0.386 C  
HETATM   25  C   UNL     1      -8.412  19.732  66.880  1.00  0.00    -0.364 C  
HETATM   26  C   UNL     1      -9.684  20.375  66.428  1.00  0.00    -0.400 C  
BRANCH  24  27
HETATM   27  C   UNL     1     -10.244  19.228  68.680  1.00  0.00    -0.355 C  
HETATM   28  O   UNL     1     -10.583  20.331  69.090  1.00  0.00    -0.106 OA 
HETATM   29  N   UNL     1     -10.267  18.042  69.387  1.00  0.00    -0.293 N  
HETATM   30  H   UNL     1      -9.886  17.206  68.943  1.00  0.00     0.000 HD 
BRANCH  29  31
HETATM   31  C   UNL     1     -10.789  17.930  70.687  1.00  0.00     2.057 A  
HETATM   32  C   UNL     1     -10.647  18.959  71.627  1.00  0.00     3.334 A  
HETATM   33  C   UNL     1     -11.113  18.790  72.930  1.00  0.00     3.327 A  
HETATM   34  C   UNL     1     -11.696  17.583  73.293  1.00  0.00     1.071 A  
HETATM   35  C   UNL     1     -11.873  16.567  72.361  1.00  0.00    -0.425 A  
HETATM   36  F   UNL     1     -12.087  17.395  74.560  1.00  0.00    -0.496 F  
HETATM   37  C   UNL     1     -11.453  16.753  71.042  1.00  0.00     0.357 A  
ENDBRANCH  29  31
ENDBRANCH  24  27
ENDBRANCH  22  24
ENDBRANCH  17  20
ENDBRANCH  13  14
ENDBRANCH   8  13
BRANCH  10  38
HETATM   38  O   UNL     1      -9.419   6.689  66.923  1.00  0.00    -0.143 OA 
HETATM   39  C   UNL     1     -10.581   7.158  67.600  1.00  0.00    -0.248 C  
ENDBRANCH  10  38
ENDBRANCH   2   3
TORSDOF 8
ENDMDL
MODEL      146
REMARK 921   NORMALIZED FREE ENERGY PREDICTED BY IDOCK:    3.75 KCAL/MOL
REMARK 922        TOTAL FREE ENERGY PREDICTED BY IDOCK:    4.04 KCAL/MOL
REMARK 923 INTER-LIGAND FREE ENERGY PREDICTED BY IDOCK:   -6.19 KCAL/MOL
REMARK 924 INTRA-LIGAND FREE ENERGY PREDICTED BY IDOCK:   10.22 KCAL/MOL
REMARK 927      BINDING AFFINITY PREDICTED BY RF-SCORE:    0.00 PKD
ROOT
HETATM    1  C   UNL     1     -11.284  17.179  66.362  1.00  0.00     0.648 C  
HETATM    2  O   UNL     1     -11.048  18.177  67.349  1.00  0.00    -0.211 OA 
ENDROOT
BRANCH   2   3
HETATM    3  C   UNL     1      -9.833  18.157  67.982  1.00  0.00    -0.325 A  
HETATM    4  C   UNL     1      -9.023  19.292  68.115  1.00  0.00    -0.371 A  
HETATM    5  C   UNL     1      -7.773  19.253  68.710  1.00  0.00    -0.362 A  
HETATM    6  C   UNL     1      -7.314  18.042  69.254  1.00  0.00    -0.031 A  
HETATM    7  C   UNL     1      -8.144  16.902  69.175  1.00  0.00    -0.082 A  
HETATM    8  C   UNL     1      -6.022  18.050  69.824  1.00  0.00    -0.227 A  
HETATM    9  C   UNL     1      -5.268  19.221  69.841  1.00  0.00    -0.213 A  
HETATM   10  C   UNL     1      -9.372  16.941  68.504  1.00  0.00    -0.259 A  
HETATM   11  N   UNL     1      -7.047  20.382  68.719  1.00  0.00    -0.099 NA 
HETATM   12  C   UNL     1      -5.818  20.347  69.269  1.00  0.00    -0.337 A  
BRANCH   8  13
HETATM   13  O   UNL     1      -5.595  16.883  70.420  1.00  0.00    -0.217 OA 
BRANCH  13  14
HETATM   14  C   UNL     1      -6.035  15.664  69.966  1.00  0.00    -0.155 A  
HETATM   15  C   UNL     1      -5.510  14.557  70.629  1.00  0.00    -0.142 A  
HETATM   16  C   UNL     1      -5.943  13.270  70.306  1.00  0.00    -0.134 A  
HETATM   17  C   UNL     1      -6.909  13.072  69.318  1.00  0.00    -0.019 A  
HETATM   18  C   UNL     1      -7.005  15.477  68.985  1.00  0.00    -0.141 A  
HETATM   19  C   UNL     1      -7.421  14.184  68.643  1.00  0.00    -0.125 A  
BRANCH  17  20
HETATM   20  N   UNL     1      -7.406  11.797  68.969  1.00  0.00    -0.239 N  
HETATM   21  H   UNL     1      -7.992  11.739  68.136  1.00  0.00     0.000 HD 
HETATM   22  C   UNL     1      -7.173  10.623  69.652  1.00  0.00    -0.139 C  
HETATM   23  O   UNL     1      -6.560  10.472  70.696  1.00  0.00    -0.313 OA 
BRANCH  22  24
HETATM   24  C   UNL     1      -7.743   9.402  69.005  1.00  0.00    -0.075 C  
HETATM   25  C   UNL     1      -7.621   9.321  67.486  1.00  0.00    -0.088 C  
HETATM   26  C   UNL     1      -6.815   8.391  68.335  1.00  0.00    -0.065 C  
BRANCH  24  27
HETATM   27  C   UNL     1      -8.966   8.883  69.688  1.00  0.00    -0.147 C  
HETATM   28  O   UNL     1     -10.031   9.459  69.506  1.00  0.00    -0.174 OA 
HETATM   29  N   UNL     1      -8.754   7.770  70.478  1.00  0.00    -0.139 N  
HETATM   30  H   UNL     1      -7.798   7.435  70.598  1.00  0.00     0.000 HD 
BRANCH  29  31
HETATM   31  C   UNL     1      -9.791   7.077  71.126  1.00  0.00    -0.176 A  
HETATM   32  C   UNL     1     -11.028   7.681  71.385  1.00  0.00    -0.257 A  
HETATM   33  C   UNL     1     -12.013   6.992  72.093  1.00  0.00    -0.299 A  
HETATM   34  C   UNL     1     -11.745   5.712  72.560  1.00  0.00    -0.197 A  
HETATM   35  C   UNL     1     -10.533   5.089  72.281  1.00  0.00    -0.275 A  
HETATM   36  F   UNL     1     -12.664   5.072  73.294  1.00  0.00    -0.076 F  
HETATM   37  C   UNL     1      -9.565   5.759  71.528  1.00  0.00    -0.181 A  
ENDBRANCH  29  31
ENDBRANCH  24  27
ENDBRANCH  22  24
ENDBRANCH  17  20
ENDBRANCH  13  14
ENDBRANCH   8  13
BRANCH  10  38
HETATM   38  O   UNL     1     -10.029  15.738  68.477  1.00  0.00    -0.203 OA 
HETATM   39  C   UNL     1     -11.432  15.803  68.239  1.00  0.00    -0.337 C  
ENDBRANCH  10  38
ENDBRANCH   2   3
TORSDOF 8
ENDMDL
MODEL      147
REMARK 921   NORMALIZED FREE ENERGY PREDICTED BY IDOCK:    3.86 KCAL/MOL
REMARK 922        TOTAL FREE ENERGY PREDICTED BY IDOCK:    4.19 KCAL/MOL
REMARK 923 INTER-LIGAND FREE ENERGY PREDICTED BY IDOCK:    3.87 KCAL/MOL
REMARK 924 INTRA-LIGAND FREE ENERGY PREDICTED BY IDOCK:    0.32 KCAL/MOL
REMARK 927      BINDING AFFINITY PREDICTED BY RF-SCORE:    0.00 PKD
ROOT
HETATM    1  C   UNL     1      -9.646   2.265  69.835  1.00  0.00     0.022 C  
HETATM    2  O   UNL     1     -10.334   3.495  70.033  1.00  0.00     0.619 OA 
ENDROOT
BRANCH   2   3
HETATM    3  C   UNL     1      -9.587   4.644  69.997  1.00  0.00    -0.188 A  
HETATM    4  C   UNL     1      -8.672   4.990  70.999  1.00  0.00    -0.141 A  
HETATM    5  C   UNL     1      -7.959   6.177  70.983  1.00  0.00    -0.116 A  
HETATM    6  C   UNL     1      -8.114   7.051  69.893  1.00  0.00    -0.125 A  
HETATM    7  C   UNL     1      -8.993   6.688  68.849  1.00  0.00    -0.130 A  
HETATM    8  C   UNL     1      -7.386   8.260  69.939  1.00  0.00    -0.064 A  
HETATM    9  C   UNL     1      -6.555   8.540  71.021  1.00  0.00    -0.048 A  
HETATM   10  C   UNL     1      -9.762   5.520  68.917  1.00  0.00    -0.144 A  
HETATM   11  N   UNL     1      -7.163   6.446  72.029  1.00  0.00    -0.089 NA 
HETATM   12  C   UNL     1      -6.490   7.612  72.037  1.00  0.00    -0.043 A  
BRANCH   8  13
HETATM   13  O   UNL     1      -7.481   9.088  68.841  1.00  0.00    -0.073 OA 
BRANCH  13  14
HETATM   14  C   UNL     1      -7.461  10.453  68.991  1.00  0.00    -0.106 A  
HETATM   15  C   UNL     1      -7.535  10.908  70.305  1.00  0.00     0.789 A  
HETATM   16  C   UNL     1      -7.444  12.273  70.585  1.00  0.00     3.949 A  
HETATM   17  C   UNL     1      -7.277  13.200  69.556  1.00  0.00     0.359 A  
HETATM   18  C   UNL     1      -7.285  11.369  67.958  1.00  0.00    -0.084 A  
HETATM   19  C   UNL     1      -7.221  12.741  68.236  1.00  0.00    -0.114 A  
BRANCH  17  20
HETATM   20  N   UNL     1      -7.150  14.589  69.781  1.00  0.00    -0.336 N  
HETATM   21  H   UNL     1      -7.533  14.955  70.653  1.00  0.00     0.000 HD 
HETATM   22  C   UNL     1      -6.557  15.495  68.929  1.00  0.00    -0.113 C  
HETATM   23  O   UNL     1      -6.096  15.290  67.818  1.00  0.00    -0.144 OA 
BRANCH  22  24
HETATM   24  C   UNL     1      -6.476  16.890  69.462  1.00  0.00    -0.223 C  
HETATM   25  C   UNL     1      -6.108  17.031  70.936  1.00  0.00     0.961 C  
HETATM   26  C   UNL     1      -5.127  17.462  69.894  1.00  0.00    -0.189 C  
BRANCH  24  27
HETATM   27  C   UNL     1      -7.465  17.822  68.844  1.00  0.00    -0.235 C  
HETATM   28  O   UNL     1      -7.386  19.017  69.098  1.00  0.00    -0.320 OA 
HETATM   29  N   UNL     1      -8.395  17.213  68.025  1.00  0.00    -0.212 N  
HETATM   30  H   UNL     1      -8.390  16.194  67.958  1.00  0.00     0.000 HD 
BRANCH  29  31
HETATM   31  C   UNL     1      -9.349  17.926  67.278  1.00  0.00    -0.258 A  
HETATM   32  C   UNL     1      -9.580  17.647  65.925  1.00  0.00    -0.003 A  
HETATM   33  C   UNL     1     -10.481  18.419  65.192  1.00  0.00     0.922 A  
HETATM   34  C   UNL     1     -11.126  19.482  65.810  1.00  0.00     0.044 A  
HETATM   35  C   UNL     1     -10.930  19.749  67.161  1.00  0.00    -0.351 A  
HETATM   36  F   UNL     1     -11.943  20.264  65.094  1.00  0.00     0.802 F  
HETATM   37  C   UNL     1     -10.066  18.945  67.909  1.00  0.00    -0.431 A  
ENDBRANCH  29  31
ENDBRANCH  24  27
ENDBRANCH  22  24
ENDBRANCH  17  20
ENDBRANCH  13  14
ENDBRANCH   8  13
BRANCH  10  38
HETATM   38  O   UNL     1     -10.600   5.341  67.847  1.00  0.00    -0.135 OA 
HETATM   39  C   UNL     1     -10.316   6.134  66.699  1.00  0.00    -0.187 C  
ENDBRANCH  10  38
ENDBRANCH   2   3
TORSDOF 8
ENDMDL
MODEL      148
REMARK 921   NORMALIZED FREE ENERGY PREDICTED BY IDOCK:    4.40 KCAL/MOL
REMARK 922        TOTAL FREE ENERGY PREDICTED BY IDOCK:    4.99 KCAL/MOL
REMARK 923 INTER-LIGAND FREE ENERGY PREDICTED BY IDOCK:    6.35 KCAL/MOL
REMARK 924 INTRA-LIGAND FREE ENERGY PREDICTED BY IDOCK:   -1.35 KCAL/MOL
REMARK 927      BINDING AFFINITY PREDICTED BY RF-SCORE:    0.00 PKD
ROOT
HETATM    1  C   UNL     1     -10.770  16.497  72.198  1.00  0.00     2.389 C  
HETATM    2  O   UNL     1     -10.617  15.161  71.732  1.00  0.00     0.178 OA 
ENDROOT
BRANCH   2   3
HETATM    3  C   UNL     1     -10.597  14.968  70.376  1.00  0.00    -0.045 A  
HETATM    4  C   UNL     1     -11.674  15.298  69.544  1.00  0.00    -0.359 A  
HETATM    5  C   UNL     1     -11.668  15.053  68.180  1.00  0.00    -0.312 A  
HETATM    6  C   UNL     1     -10.519  14.500  67.592  1.00  0.00    -0.246 A  
HETATM    7  C   UNL     1      -9.405  14.213  68.411  1.00  0.00    -0.208 A  
HETATM    8  C   UNL     1     -10.575  14.244  66.205  1.00  0.00    -0.293 A  
HETATM    9  C   UNL     1     -11.725  14.545  65.479  1.00  0.00    -0.343 A  
HETATM   10  C   UNL     1      -9.455  14.398  69.799  1.00  0.00     0.684 A  
HETATM   11  N   UNL     1     -12.781  15.340  67.486  1.00  0.00     1.324 NA 
HETATM   12  C   UNL     1     -12.796  15.076  66.166  1.00  0.00     1.026 A  
BRANCH   8  13
HETATM   13  O   UNL     1      -9.426  13.767  65.610  1.00  0.00    -0.079 OA 
BRANCH  13  14
HETATM   14  C   UNL     1      -9.189  12.417  65.530  1.00  0.00     0.225 A  
HETATM   15  C   UNL     1      -7.874  12.028  65.778  1.00  0.00     1.079 A  
HETATM   16  C   UNL     1      -7.531  10.675  65.801  1.00  0.00    -0.114 A  
HETATM   17  C   UNL     1      -8.497   9.692  65.579  1.00  0.00    -0.142 A  
HETATM   18  C   UNL     1     -10.161  11.444  65.315  1.00  0.00    -0.320 A  
HETATM   19  C   UNL     1      -9.812  10.087  65.312  1.00  0.00    -0.388 A  
BRANCH  17  20
HETATM   20  N   UNL     1      -8.215   8.309  65.618  1.00  0.00    -0.126 N  
HETATM   21  H   UNL     1      -7.356   7.998  65.165  1.00  0.00     0.000 HD 
HETATM   22  C   UNL     1      -8.996   7.342  66.213  1.00  0.00    -0.156 C  
HETATM   23  O   UNL     1     -10.082   7.480  66.750  1.00  0.00    -0.237 OA 
BRANCH  22  24
HETATM   24  C   UNL     1      -8.409   5.967  66.189  1.00  0.00    -0.124 C  
HETATM   25  C   UNL     1      -9.147   4.929  65.347  1.00  0.00    -0.155 C  
HETATM   26  C   UNL     1      -7.808   5.418  64.897  1.00  0.00    -0.102 C  
BRANCH  24  27
HETATM   27  C   UNL     1      -7.772   5.569  67.480  1.00  0.00    -0.096 C  
HETATM   28  O   UNL     1      -6.712   4.958  67.449  1.00  0.00    -0.052 OA 
HETATM   29  N   UNL     1      -8.475   5.947  68.607  1.00  0.00    -0.111 N  
HETATM   30  H   UNL     1      -9.386   6.390  68.486  1.00  0.00     0.000 HD 
BRANCH  29  31
HETATM   31  C   UNL     1      -7.997   5.750  69.915  1.00  0.00    -0.096 A  
HETATM   32  C   UNL     1      -8.140   4.522  70.572  1.00  0.00    -0.067 A  
HETATM   33  C   UNL     1      -7.720   4.378  71.894  1.00  0.00    -0.084 A  
HETATM   34  C   UNL     1      -7.181   5.472  72.559  1.00  0.00    -0.093 A  
HETATM   35  C   UNL     1      -7.002   6.687  71.907  1.00  0.00    -0.071 A  
HETATM   36  F   UNL     1      -6.835   5.355  73.847  1.00  0.00    -0.070 F  
HETATM   37  C   UNL     1      -7.376   6.818  70.567  1.00  0.00    -0.081 A  
ENDBRANCH  29  31
ENDBRANCH  24  27
ENDBRANCH  22  24
ENDBRANCH  17  20
ENDBRANCH  13  14
ENDBRANCH   8  13
BRANCH  10  38
HETATM   38  O   UNL     1      -8.309  14.024  70.452  1.00  0.00     1.884 OA 
HETATM   39  C   UNL     1      -7.736  12.787  70.039  1.00  0.00     2.130 C  
ENDBRANCH  10  38
ENDBRANCH   2   3
TORSDOF 8
ENDMDL
MODEL      149
REMARK 921   NORMALIZED FREE ENERGY PREDICTED BY IDOCK:    4.87 KCAL/MOL
REMARK 922        TOTAL FREE ENERGY PREDICTED BY IDOCK:    5.67 KCAL/MOL
REMARK 923 INTER-LIGAND FREE ENERGY PREDICTED BY IDOCK:   -1.23 KCAL/MOL
REMARK 924 INTRA-LIGAND FREE ENERGY PREDICTED BY IDOCK:    6.90 KCAL/MOL
REMARK 927      BINDING AFFINITY PREDICTED BY RF-SCORE:    0.00 PKD
ROOT
HETATM    1  C   UNL     1      -5.177   2.633  67.371  1.00  0.00    -0.009 C  
HETATM    2  O   UNL     1      -5.145   3.072  68.725  1.00  0.00    -0.010 OA 
ENDROOT
BRANCH   2   3
HETATM    3  C   UNL     1      -6.347   3.346  69.323  1.00  0.00    -0.029 A  
HETATM    4  C   UNL     1      -6.735   2.784  70.546  1.00  0.00    -0.033 A  
HETATM    5  C   UNL     1      -7.973   3.024  71.120  1.00  0.00    -0.057 A  
HETATM    6  C   UNL     1      -8.860   3.908  70.483  1.00  0.00    -0.136 A  
HETATM    7  C   UNL     1      -8.459   4.524  69.277  1.00  0.00    -0.092 A  
HETATM    8  C   UNL     1     -10.118   4.096  71.095  1.00  0.00    -0.075 A  
HETATM    9  C   UNL     1     -10.432   3.431  72.278  1.00  0.00    -0.036 A  
HETATM   10  C   UNL     1      -7.235   4.213  68.672  1.00  0.00    -0.055 A  
HETATM   11  N   UNL     1      -8.273   2.377  72.257  1.00  0.00    -0.054 NA 
HETATM   12  C   UNL     1      -9.486   2.580  72.806  1.00  0.00    -0.093 A  
BRANCH   8  13
HETATM   13  O   UNL     1     -10.965   5.015  70.512  1.00  0.00     0.025 OA 
BRANCH  13  14
HETATM   14  C   UNL     1     -10.465   6.036  69.741  1.00  0.00    -0.255 A  
HETATM   15  C   UNL     1     -11.422   6.839  69.125  1.00  0.00    -0.122 A  
HETATM   16  C   UNL     1     -11.033   7.954  68.380  1.00  0.00     0.150 A  
HETATM   17  C   UNL     1      -9.684   8.282  68.243  1.00  0.00    -0.158 A  
HETATM   18  C   UNL     1      -9.117   6.360  69.618  1.00  0.00    -0.143 A  
HETATM   19  C   UNL     1      -8.725   7.463  68.849  1.00  0.00    -0.132 A  
BRANCH  17  20
HETATM   20  N   UNL     1      -9.233   9.413  67.527  1.00  0.00    -0.123 N  
HETATM   21  H   UNL     1      -9.607   9.546  66.587  1.00  0.00     0.000 HD 
HETATM   22  C   UNL     1      -8.333  10.353  67.982  1.00  0.00    -0.118 C  
HETATM   23  O   UNL     1      -7.721  10.356  69.037  1.00  0.00    -0.096 OA 
BRANCH  22  24
HETATM   24  C   UNL     1      -8.108  11.501  67.051  1.00  0.00    -0.161 C  
HETATM   25  C   UNL     1      -7.608  11.150  65.652  1.00  0.00     0.219 C  
HETATM   26  C   UNL     1      -8.999  11.671  65.822  1.00  0.00    -0.067 C  
BRANCH  24  27
HETATM   27  C   UNL     1      -7.617  12.734  67.735  1.00  0.00    -0.141 C  
HETATM   28  O   UNL     1      -7.677  13.801  67.139  1.00  0.00    -0.121 OA 
HETATM   29  N   UNL     1      -7.131  12.528  69.011  1.00  0.00    -0.237 N  
HETATM   30  H   UNL     1      -7.072  11.571  69.360  1.00  0.00     0.000 HD 
BRANCH  29  31
HETATM   31  C   UNL     1      -6.712  13.573  69.854  1.00  0.00     0.147 A  
HETATM   32  C   UNL     1      -6.777  14.913  69.450  1.00  0.00    -0.153 A  
HETATM   33  C   UNL     1      -6.288  15.922  70.280  1.00  0.00     0.071 A  
HETATM   34  C   UNL     1      -5.714  15.582  71.498  1.00  0.00     0.439 A  
HETATM   35  C   UNL     1      -5.675  14.259  71.925  1.00  0.00    -0.124 A  
HETATM   36  F   UNL     1      -5.187  16.542  72.268  1.00  0.00    -0.009 F  
HETATM   37  C   UNL     1      -6.210  13.252  71.117  1.00  0.00     0.641 A  
ENDBRANCH  29  31
ENDBRANCH  24  27
ENDBRANCH  22  24
ENDBRANCH  17  20
ENDBRANCH  13  14
ENDBRANCH   8  13
BRANCH  10  38
HETATM   38  O   UNL     1      -7.022   4.860  67.482  1.00  0.00    -0.059 OA 
HETATM   39  C   UNL     1      -6.122   5.962  67.528  1.00  0.00    -0.022 C  
ENDBRANCH  10  38
ENDBRANCH   2   3
TORSDOF 8
ENDMDL
MODEL      150
REMARK 921   NORMALIZED FREE ENERGY PREDICTED BY IDOCK:    5.19 KCAL/MOL
REMARK 922        TOTAL FREE ENERGY PREDICTED BY IDOCK:    6.15 KCAL/MOL
REMARK 923 INTER-LIGAND FREE ENERGY PREDICTED BY IDOCK:    0.56 KCAL/MOL
REMARK 924 INTRA-LIGAND FREE ENERGY PREDICTED BY IDOCK:    5.59 KCAL/MOL
REMARK 927      BINDING AFFINITY PREDICTED BY RF-SCORE:    0.00 PKD
ROOT
HETATM    1  C   UNL     1      -7.533   7.469  72.166  1.00  0.00    -0.077 C  
HETATM    2  O   UNL     1      -6.806   8.071  71.100  1.00  0.00    -0.043 OA 
ENDROOT
BRANCH   2   3
HETATM    3  C   UNL     1      -7.152   7.711  69.824  1.00  0.00    -0.067 A  
HETATM    4  C   UNL     1      -6.591   6.612  69.163  1.00  0.00    -0.041 A  
HETATM    5  C   UNL     1      -6.906   6.285  67.854  1.00  0.00    -0.067 A  
HETATM    6  C   UNL     1      -7.868   7.050  67.173  1.00  0.00    -0.109 A  
HETATM    7  C   UNL     1      -8.482   8.129  67.847  1.00  0.00    -0.132 A  
HETATM    8  C   UNL     1      -8.132   6.693  65.833  1.00  0.00    -0.126 A  
HETATM    9  C   UNL     1      -7.464   5.622  65.245  1.00  0.00    -0.074 A  
HETATM   10  C   UNL     1      -8.097   8.491  69.144  1.00  0.00    -0.117 A  
HETATM   11  N   UNL     1      -6.256   5.255  67.290  1.00  0.00    -0.030 NA 
HETATM   12  C   UNL     1      -6.534   4.950  66.008  1.00  0.00    -0.040 A  
BRANCH   8  13
HETATM   13  O   UNL     1      -9.124   7.396  65.183  1.00  0.00     0.256 OA 
BRANCH  13  14
HETATM   14  C   UNL     1      -9.367   8.712  65.493  1.00  0.00    -0.035 A  
HETATM   15  C   UNL     1      -8.237   9.475  65.777  1.00  0.00    -0.116 A  
HETATM   16  C   UNL     1      -8.353  10.843  66.029  1.00  0.00    -0.165 A  
HETATM   17  C   UNL     1      -9.601  11.467  66.000  1.00  0.00    -0.228 A  
HETATM   18  C   UNL     1     -10.615   9.327  65.453  1.00  0.00     1.595 A  
HETATM   19  C   UNL     1     -10.736  10.695  65.732  1.00  0.00    -0.097 A  
BRANCH  17  20
HETATM   20  N   UNL     1      -9.777  12.851  66.218  1.00  0.00    -0.272 N  
HETATM   21  H   UNL     1      -9.548  13.207  67.146  1.00  0.00     0.000 HD 
HETATM   22  C   UNL     1     -10.230  13.765  65.291  1.00  0.00    -0.335 C  
HETATM   23  O   UNL     1     -10.616  13.552  64.154  1.00  0.00    -0.365 OA 
BRANCH  22  24
HETATM   24  C   UNL     1     -10.228  15.184  65.763  1.00  0.00    -0.365 C  
HETATM   25  C   UNL     1     -10.500  16.250  64.705  1.00  0.00     0.179 C  
HETATM   26  C   UNL     1     -11.526  15.988  65.761  1.00  0.00     0.392 C  
BRANCH  24  27
HETATM   27  C   UNL     1      -9.245  15.446  66.855  1.00  0.00    -0.233 C  
HETATM   28  O   UNL     1      -8.862  16.595  67.039  1.00  0.00    -0.187 OA 
HETATM   29  N   UNL     1      -8.859  14.325  67.564  1.00  0.00    -0.188 N  
HETATM   30  H   UNL     1      -9.203  13.415  67.256  1.00  0.00     0.000 HD 
BRANCH  29  31
HETATM   31  C   UNL     1      -8.017  14.376  68.688  1.00  0.00    -0.145 A  
HETATM   32  C   UNL     1      -7.084  13.365  68.954  1.00  0.00    -0.084 A  
HETATM   33  C   UNL     1      -6.312  13.408  70.114  1.00  0.00     0.011 A  
HETATM   34  C   UNL     1      -6.496  14.448  71.016  1.00  0.00     0.234 A  
HETATM   35  C   UNL     1      -7.395  15.475  70.748  1.00  0.00     1.474 A  
HETATM   36  F   UNL     1      -5.802  14.458  72.161  1.00  0.00    -0.172 F  
HETATM   37  C   UNL     1      -8.132  15.460  69.561  1.00  0.00    -0.207 A  
ENDBRANCH  29  31
ENDBRANCH  24  27
ENDBRANCH  22  24
ENDBRANCH  17  20
ENDBRANCH  13  14
ENDBRANCH   8  13
BRANCH  10  38
HETATM   38  O   UNL     1      -8.754   9.591  69.633  1.00  0.00    -0.151 OA 
HETATM   39  C   UNL     1      -8.676   9.783  71.041  1.00  0.00     0.686 C  
ENDBRANCH  10  38
ENDBRANCH   2   3
TORSDOF 8
ENDMDL
MODEL      151
REMARK 921   NORMALIZED FREE ENERGY PREDICTED BY IDOCK:    7.38 KCAL/MOL
REMARK 922        TOTAL FREE ENERGY PREDICTED BY IDOCK:    9.36 KCAL/MOL
REMARK 923 INTER-LIGAND FREE ENERGY PREDICTED BY IDOCK:    2.07 KCAL/MOL
REMARK 924 INTRA-LIGAND FREE ENERGY PREDICTED BY IDOCK:    7.29 KCAL/MOL
REMARK 927      BINDING AFFINITY PREDICTED BY RF-SCORE:    0.00 PKD
ROOT
HETATM    1  C   UNL     1     -13.261  13.752  69.744  1.00  0.00     1.194 C  
HETATM    2  O   UNL     1     -12.904  14.556  68.625  1.00  0.00     0.463 OA 
ENDROOT
BRANCH   2   3
HETATM    3  C   UNL     1     -12.433  13.908  67.513  1.00  0.00     0.133 A  
HETATM    4  C   UNL     1     -12.565  14.424  66.218  1.00  0.00    -0.116 A  
HETATM    5  C   UNL     1     -12.134  13.740  65.093  1.00  0.00    -0.399 A  
HETATM    6  C   UNL     1     -11.489  12.502  65.253  1.00  0.00    -0.374 A  
HETATM    7  C   UNL     1     -11.301  11.996  66.558  1.00  0.00    -0.413 A  
HETATM    8  C   UNL     1     -11.095  11.833  64.074  1.00  0.00    -0.390 A  
HETATM    9  C   UNL     1     -11.338  12.403  62.827  1.00  0.00     0.767 A  
HETATM   10  C   UNL     1     -11.809  12.665  67.679  1.00  0.00    -0.329 A  
HETATM   11  N   UNL     1     -12.376  14.290  63.893  1.00  0.00    -0.757 NA 
HETATM   12  C   UNL     1     -11.988  13.618  62.792  1.00  0.00     1.412 A  
BRANCH   8  13
HETATM   13  O   UNL     1     -10.400  10.652  64.228  1.00  0.00    -0.360 OA 
BRANCH  13  14
HETATM   14  C   UNL     1     -10.271  10.073  65.467  1.00  0.00    -0.178 A  
HETATM   15  C   UNL     1      -8.962   9.895  65.907  1.00  0.00    -0.183 A  
HETATM   16  C   UNL     1      -8.709   9.387  67.183  1.00  0.00    -0.134 A  
HETATM   17  C   UNL     1      -9.762   9.053  68.036  1.00  0.00    -0.155 A  
HETATM   18  C   UNL     1     -11.328   9.751  66.313  1.00  0.00     1.448 A  
HETATM   19  C   UNL     1     -11.076   9.217  67.584  1.00  0.00     0.110 A  
BRANCH  17  20
HETATM   20  N   UNL     1      -9.568   8.564  69.347  1.00  0.00    -0.169 N  
HETATM   21  H   UNL     1      -9.233   7.605  69.439  1.00  0.00     0.000 HD 
HETATM   22  C   UNL     1      -9.791   9.264  70.513  1.00  0.00    -0.253 C  
HETATM   23  O   UNL     1     -10.246  10.389  70.637  1.00  0.00     0.127 OA 
BRANCH  22  24
HETATM   24  C   UNL     1      -9.410   8.533  71.760  1.00  0.00    -0.323 C  
HETATM   25  C   UNL     1      -7.943   8.619  72.174  1.00  0.00    -0.098 C  
HETATM   26  C   UNL     1      -8.978   9.315  72.999  1.00  0.00     2.069 C  
BRANCH  24  27
HETATM   27  C   UNL     1     -10.173   7.266  71.964  1.00  0.00    -0.190 C  
HETATM   28  O   UNL     1     -11.168   7.062  71.280  1.00  0.00    -0.250 OA 
HETATM   29  N   UNL     1      -9.656   6.434  72.938  1.00  0.00    -0.153 N  
HETATM   30  H   UNL     1      -8.859   6.763  73.485  1.00  0.00     0.000 HD 
BRANCH  29  31
HETATM   31  C   UNL     1     -10.173   5.156  73.213  1.00  0.00    -0.186 A  
HETATM   32  C   UNL     1     -11.411   4.740  72.707  1.00  0.00    -0.178 A  
HETATM   33  C   UNL     1     -11.930   3.494  73.055  1.00  0.00     0.534 A  
HETATM   34  C   UNL     1     -11.220   2.682  73.930  1.00  0.00    -0.127 A  
HETATM   35  C   UNL     1      -9.975   3.069  74.413  1.00  0.00    -0.172 A  
HETATM   36  F   UNL     1     -11.745   1.512  74.316  1.00  0.00    -0.182 F  
HETATM   37  C   UNL     1      -9.430   4.295  74.025  1.00  0.00    -0.119 A  
ENDBRANCH  29  31
ENDBRANCH  24  27
ENDBRANCH  22  24
ENDBRANCH  17  20
ENDBRANCH  13  14
ENDBRANCH   8  13
BRANCH  10  38
HETATM   38  O   UNL     1     -11.584  12.014  68.864  1.00  0.00    -0.270 OA 
HETATM   39  C   UNL     1     -12.560  11.046  69.235  1.00  0.00     0.273 C  
ENDBRANCH  10  38
ENDBRANCH   2   3
TORSDOF 8
ENDMDL
MODEL      152
REMARK 921   NORMALIZED FREE ENERGY PREDICTED BY IDOCK:    7.48 KCAL/MOL
REMARK 922        TOTAL FREE ENERGY PREDICTED BY IDOCK:    9.50 KCAL/MOL
REMARK 923 INTER-LIGAND FREE ENERGY PREDICTED BY IDOCK:    9.47 KCAL/MOL
REMARK 924 INTRA-LIGAND FREE ENERGY PREDICTED BY IDOCK:    0.04 KCAL/MOL
REMARK 927      BINDING AFFINITY PREDICTED BY RF-SCORE:    0.00 PKD
ROOT
HETATM    1  C   UNL     1      -8.561  13.335  65.428  1.00  0.00     2.196 C  
HETATM    2  O   UNL     1      -7.859  12.166  65.836  1.00  0.00     0.641 OA 
ENDROOT
BRANCH   2   3
HETATM    3  C   UNL     1      -7.686  11.976  67.182  1.00  0.00    -0.161 A  
HETATM    4  C   UNL     1      -6.654  12.582  67.910  1.00  0.00    -0.104 A  
HETATM    5  C   UNL     1      -6.453  12.345  69.260  1.00  0.00    -0.107 A  
HETATM    6  C   UNL     1      -7.347  11.507  69.946  1.00  0.00     0.582 A  
HETATM    7  C   UNL     1      -8.425  10.933  69.235  1.00  0.00    -0.006 A  
HETATM    8  C   UNL     1      -7.082  11.276  71.313  1.00  0.00     3.752 A  
HETATM    9  C   UNL     1      -5.983  11.873  71.927  1.00  0.00     1.698 A  
HETATM   10  C   UNL     1      -8.570  11.123  67.855  1.00  0.00    -0.135 A  
HETATM   11  N   UNL     1      -5.390  12.918  69.846  1.00  0.00    -0.086 NA 
HETATM   12  C   UNL     1      -5.169  12.669  71.151  1.00  0.00    -0.161 A  
BRANCH   8  13
HETATM   13  O   UNL     1      -7.995  10.511  72.007  1.00  0.00     4.112 OA 
BRANCH  13  14
HETATM   14  C   UNL     1      -8.167   9.182  71.705  1.00  0.00     0.226 A  
HETATM   15  C   UNL     1      -8.959   8.466  72.600  1.00  0.00    -0.304 A  
HETATM   16  C   UNL     1      -9.268   7.127  72.354  1.00  0.00    -0.154 A  
HETATM   17  C   UNL     1      -8.791   6.486  71.210  1.00  0.00    -0.137 A  
HETATM   18  C   UNL     1      -7.694   8.554  70.557  1.00  0.00    -0.084 A  
HETATM   19  C   UNL     1      -7.981   7.203  70.322  1.00  0.00    -0.116 A  
BRANCH  17  20
HETATM   20  N   UNL     1      -9.094   5.143  70.894  1.00  0.00    -0.137 N  
HETATM   21  H   UNL     1     -10.079   4.880  70.883  1.00  0.00     0.000 HD 
HETATM   22  C   UNL     1      -8.179   4.156  70.600  1.00  0.00    -0.066 C  
HETATM   23  O   UNL     1      -6.961   4.232  70.617  1.00  0.00    -0.035 OA 
BRANCH  22  24
HETATM   24  C   UNL     1      -8.782   2.845  70.207  1.00  0.00    -0.132 C  
HETATM   25  C   UNL     1      -8.342   1.628  71.017  1.00  0.00    -0.067 C  
HETATM   26  C   UNL     1      -9.742   2.133  71.158  1.00  0.00    -0.182 C  
BRANCH  24  27
HETATM   27  C   UNL     1      -9.029   2.720  68.741  1.00  0.00    -0.130 C  
HETATM   28  O   UNL     1      -9.459   1.660  68.304  1.00  0.00    -0.181 OA 
HETATM   29  N   UNL     1      -8.736   3.854  68.009  1.00  0.00    -0.097 N  
HETATM   30  H   UNL     1      -8.313   4.648  68.493  1.00  0.00     0.000 HD 
BRANCH  29  31
HETATM   31  C   UNL     1      -8.989   3.970  66.631  1.00  0.00    -0.130 A  
HETATM   32  C   UNL     1     -10.139   4.606  66.147  1.00  0.00    -0.291 A  
HETATM   33  C   UNL     1     -10.399   4.642  64.777  1.00  0.00     0.125 A  
HETATM   34  C   UNL     1      -9.519   4.019  63.902  1.00  0.00    -0.156 A  
HETATM   35  C   UNL     1      -8.357   3.413  64.367  1.00  0.00    -0.093 A  
HETATM   36  F   UNL     1      -9.798   3.997  62.592  1.00  0.00    -0.128 F  
HETATM   37  C   UNL     1      -8.070   3.420  65.734  1.00  0.00    -0.093 A  
ENDBRANCH  29  31
ENDBRANCH  24  27
ENDBRANCH  22  24
ENDBRANCH  17  20
ENDBRANCH  13  14
ENDBRANCH   8  13
BRANCH  10  38
HETATM   38  O   UNL     1      -9.637  10.456  67.311  1.00  0.00    -0.153 OA 
HETATM   39  C   UNL     1     -10.662  10.077  68.224  1.00  0.00    -0.240 C  
ENDBRANCH  10  38
ENDBRANCH   2   3
TORSDOF 8
ENDMDL
MODEL      153
REMARK 921   NORMALIZED FREE ENERGY PREDICTED BY IDOCK:    8.83 KCAL/MOL
REMARK 922        TOTAL FREE ENERGY PREDICTED BY IDOCK:   11.49 KCAL/MOL
REMARK 923 INTER-LIGAND FREE ENERGY PREDICTED BY IDOCK:   -0.91 KCAL/MOL
REMARK 924 INTRA-LIGAND FREE ENERGY PREDICTED BY IDOCK:   12.40 KCAL/MOL
REMARK 927      BINDING AFFINITY PREDICTED BY RF-SCORE:    0.00 PKD
ROOT
HETATM    1  C   UNL     1     -13.813   8.231  71.526  1.00  0.00    -0.328 C  
HETATM    2  O   UNL     1     -12.958   9.351  71.326  1.00  0.00    -0.328 OA 
ENDROOT
BRANCH   2   3
HETATM    3  C   UNL     1     -11.822   9.148  70.587  1.00  0.00    -0.175 A  
HETATM    4  C   UNL     1     -11.228   7.889  70.431  1.00  0.00    -0.240 A  
HETATM    5  C   UNL     1     -10.051   7.699  69.726  1.00  0.00    -0.196 A  
HETATM    6  C   UNL     1      -9.450   8.800  69.093  1.00  0.00    -0.157 A  
HETATM    7  C   UNL     1     -10.068  10.066  69.196  1.00  0.00    -0.219 A  
HETATM    8  C   UNL     1      -8.238   8.558  68.412  1.00  0.00    -0.123 A  
HETATM    9  C   UNL     1      -7.694   7.276  68.377  1.00  0.00    -0.120 A  
HETATM   10  C   UNL     1     -11.217  10.254  69.975  1.00  0.00    -0.311 A  
HETATM   11  N   UNL     1      -9.528   6.464  69.701  1.00  0.00    -0.147 NA 
HETATM   12  C   UNL     1      -8.367   6.275  69.044  1.00  0.00    -0.117 A  
BRANCH   8  13
HETATM   13  O   UNL     1      -7.681   9.619  67.730  1.00  0.00    -0.093 OA 
BRANCH  13  14
HETATM   14  C   UNL     1      -8.238  10.872  67.812  1.00  0.00    -0.116 A  
HETATM   15  C   UNL     1      -8.949  11.132  68.982  1.00  0.00    -0.027 A  
HETATM   16  C   UNL     1      -9.492  12.397  69.211  1.00  0.00     0.795 A  
HETATM   17  C   UNL     1      -9.331  13.420  68.275  1.00  0.00    -0.205 A  
HETATM   18  C   UNL     1      -8.065  11.888  66.877  1.00  0.00    -0.146 A  
HETATM   19  C   UNL     1      -8.632  13.151  67.094  1.00  0.00    -0.194 A  
BRANCH  17  20
HETATM   20  N   UNL     1      -9.833  14.727  68.465  1.00  0.00    -0.212 N  
HETATM   21  H   UNL     1     -10.162  15.222  67.637  1.00  0.00     0.000 HD 
HETATM   22  C   UNL     1      -9.920  15.392  69.669  1.00  0.00    -0.264 C  
HETATM   23  O   UNL     1      -9.532  15.018  70.763  1.00  0.00     0.832 OA 
BRANCH  22  24
HETATM   24  C   UNL     1     -10.583  16.730  69.594  1.00  0.00    -0.242 C  
HETATM   25  C   UNL     1     -12.081  16.761  69.883  1.00  0.00     1.588 C  
HETATM   26  C   UNL     1     -11.135  17.379  70.861  1.00  0.00     1.485 C  
BRANCH  24  27
HETATM   27  C   UNL     1     -10.004  17.624  68.547  1.00  0.00    -0.368 C  
HETATM   28  O   UNL     1     -10.613  18.639  68.237  1.00  0.00    -0.311 OA 
HETATM   29  N   UNL     1      -8.801  17.192  68.024  1.00  0.00    -0.224 N  
HETATM   30  H   UNL     1      -8.439  16.285  68.323  1.00  0.00     0.000 HD 
BRANCH  29  31
HETATM   31  C   UNL     1      -8.050  17.939  67.100  1.00  0.00    -0.212 A  
HETATM   32  C   UNL     1      -8.105  19.338  67.069  1.00  0.00    -0.284 A  
HETATM   33  C   UNL     1      -7.404  20.048  66.094  1.00  0.00    -0.319 A  
HETATM   34  C   UNL     1      -6.673  19.352  65.140  1.00  0.00    -0.171 A  
HETATM   35  C   UNL     1      -6.583  17.965  65.180  1.00  0.00     0.512 A  
HETATM   36  F   UNL     1      -6.050  20.028  64.166  1.00  0.00    -0.263 F  
HETATM   37  C   UNL     1      -7.244  17.255  66.186  1.00  0.00    -0.304 A  
ENDBRANCH  29  31
ENDBRANCH  24  27
ENDBRANCH  22  24
ENDBRANCH  17  20
ENDBRANCH  13  14
ENDBRANCH   8  13
BRANCH  10  38
HETATM   38  O   UNL     1     -11.659  11.551  70.009  1.00  0.00    -0.301 OA 
HETATM   39  C   UNL     1     -12.027  12.047  71.292  1.00  0.00     0.595 C  
ENDBRANCH  10  38
ENDBRANCH   2   3
TORSDOF 8
ENDMDL
MODEL      154
REMARK 921   NORMALIZED FREE ENERGY PREDICTED BY IDOCK:    9.02 KCAL/MOL
REMARK 922        TOTAL FREE ENERGY PREDICTED BY IDOCK:   11.77 KCAL/MOL
REMARK 923 INTER-LIGAND FREE ENERGY PREDICTED BY IDOCK:   12.67 KCAL/MOL
REMARK 924 INTRA-LIGAND FREE ENERGY PREDICTED BY IDOCK:   -0.90 KCAL/MOL
REMARK 927      BINDING AFFINITY PREDICTED BY RF-SCORE:    0.00 PKD
ROOT
HETATM    1  C   UNL     1     -10.755  16.510  72.224  1.00  0.00     2.582 C  
HETATM    2  O   UNL     1     -10.602  15.227  71.627  1.00  0.00     0.073 OA 
ENDROOT
BRANCH   2   3
HETATM    3  C   UNL     1     -10.539  15.176  70.259  1.00  0.00    -0.166 A  
HETATM    4  C   UNL     1     -11.575  15.626  69.431  1.00  0.00    -0.378 A  
HETATM    5  C   UNL     1     -11.526  15.523  68.050  1.00  0.00    -0.308 A  
HETATM    6  C   UNL     1     -10.373  14.996  67.446  1.00  0.00    -0.238 A  
HETATM    7  C   UNL     1      -9.299  14.588  68.268  1.00  0.00    -0.203 A  
HETATM    8  C   UNL     1     -10.386  14.886  66.039  1.00  0.00    -0.299 A  
HETATM    9  C   UNL     1     -11.500  15.299  65.311  1.00  0.00    -0.217 A  
HETATM   10  C   UNL     1      -9.394  14.630  69.664  1.00  0.00     0.316 A  
HETATM   11  N   UNL     1     -12.604  15.916  67.354  1.00  0.00     1.787 NA 
HETATM   12  C   UNL     1     -12.578  15.791  66.013  1.00  0.00     2.027 A  
BRANCH   8  13
HETATM   13  O   UNL     1      -9.231  14.436  65.436  1.00  0.00     0.233 OA 
BRANCH  13  14
HETATM   14  C   UNL     1      -9.037  13.095  65.210  1.00  0.00     0.980 A  
HETATM   15  C   UNL     1      -7.744  12.633  65.444  1.00  0.00     3.683 A  
HETATM   16  C   UNL     1      -7.447  11.274  65.323  1.00  0.00     0.664 A  
HETATM   17  C   UNL     1      -8.439  10.359  64.969  1.00  0.00    -0.176 A  
HETATM   18  C   UNL     1     -10.035  12.189  64.865  1.00  0.00    -0.235 A  
HETATM   19  C   UNL     1      -9.733  10.829  64.718  1.00  0.00    -0.338 A  
BRANCH  17  20
HETATM   20  N   UNL     1      -8.205   8.970  64.859  1.00  0.00    -0.144 N  
HETATM   21  H   UNL     1      -7.343   8.680  64.398  1.00  0.00     0.000 HD 
HETATM   22  C   UNL     1      -9.036   7.971  65.319  1.00  0.00     0.250 C  
HETATM   23  O   UNL     1     -10.134   8.089  65.839  1.00  0.00     0.196 OA 
BRANCH  22  24
HETATM   24  C   UNL     1      -8.495   6.587  65.156  1.00  0.00    -0.052 C  
HETATM   25  C   UNL     1      -9.241   5.679  64.182  1.00  0.00     0.642 C  
HETATM   26  C   UNL     1      -7.872   6.165  63.827  1.00  0.00    -0.112 C  
BRANCH  24  27
HETATM   27  C   UNL     1      -7.915   6.024  66.411  1.00  0.00    -0.105 C  
HETATM   28  O   UNL     1      -7.785   6.759  67.382  1.00  0.00    -0.105 OA 
HETATM   29  N   UNL     1      -7.574   4.687  66.337  1.00  0.00    -0.089 N  
HETATM   30  H   UNL     1      -7.669   4.211  65.440  1.00  0.00     0.000 HD 
BRANCH  29  31
HETATM   31  C   UNL     1      -7.103   3.950  67.438  1.00  0.00    -0.063 A  
HETATM   32  C   UNL     1      -7.798   3.921  68.654  1.00  0.00    -0.067 A  
HETATM   33  C   UNL     1      -7.269   3.239  69.749  1.00  0.00    -0.041 A  
HETATM   34  C   UNL     1      -6.036   2.613  69.630  1.00  0.00    -0.023 A  
HETATM   35  C   UNL     1      -5.352   2.606  68.419  1.00  0.00    -0.013 A  
HETATM   36  F   UNL     1      -5.496   2.011  70.697  1.00  0.00    -0.009 F  
HETATM   37  C   UNL     1      -5.904   3.245  67.306  1.00  0.00    -0.023 A  
ENDBRANCH  29  31
ENDBRANCH  24  27
ENDBRANCH  22  24
ENDBRANCH  17  20
ENDBRANCH  13  14
ENDBRANCH   8  13
BRANCH  10  38
HETATM   38  O   UNL     1      -8.284  14.153  70.312  1.00  0.00     1.260 OA 
HETATM   39  C   UNL     1      -7.749  12.933  69.808  1.00  0.00     1.381 C  
ENDBRANCH  10  38
ENDBRANCH   2   3
TORSDOF 8
ENDMDL
MODEL      155
REMARK 921   NORMALIZED FREE ENERGY PREDICTED BY IDOCK:    9.10 KCAL/MOL
REMARK 922        TOTAL FREE ENERGY PREDICTED BY IDOCK:   11.89 KCAL/MOL
REMARK 923 INTER-LIGAND FREE ENERGY PREDICTED BY IDOCK:    5.62 KCAL/MOL
REMARK 924 INTRA-LIGAND FREE ENERGY PREDICTED BY IDOCK:    6.27 KCAL/MOL
REMARK 927      BINDING AFFINITY PREDICTED BY RF-SCORE:    0.00 PKD
ROOT
HETATM    1  C   UNL     1      -8.233  17.747  68.151  1.00  0.00    -0.260 C  
HETATM    2  O   UNL     1      -8.196  16.904  69.297  1.00  0.00    -0.128 OA 
ENDROOT
BRANCH   2   3
HETATM    3  C   UNL     1      -9.393  16.428  69.764  1.00  0.00     0.382 A  
HETATM    4  C   UNL     1     -10.228  17.166  70.612  1.00  0.00     1.735 A  
HETATM    5  C   UNL     1     -11.411  16.660  71.123  1.00  0.00     0.150 A  
HETATM    6  C   UNL     1     -11.825  15.374  70.738  1.00  0.00    -0.394 A  
HETATM    7  C   UNL     1     -11.019  14.640  69.839  1.00  0.00    -0.194 A  
HETATM    8  C   UNL     1     -13.024  14.894  71.309  1.00  0.00    -0.363 A  
HETATM    9  C   UNL     1     -13.744  15.684  72.200  1.00  0.00    -0.554 A  
HETATM   10  C   UNL     1      -9.789  15.137  69.392  1.00  0.00    -0.212 A  
HETATM   11  N   UNL     1     -12.100  17.423  71.987  1.00  0.00     2.235 NA 
HETATM   12  C   UNL     1     -13.235  16.926  72.513  1.00  0.00     2.599 A  
BRANCH   8  13
HETATM   13  O   UNL     1     -13.470  13.662  70.880  1.00  0.00    -0.068 OA 
BRANCH  13  14
HETATM   14  C   UNL     1     -12.605  12.599  70.784  1.00  0.00    -0.217 A  
HETATM   15  C   UNL     1     -13.201  11.341  70.829  1.00  0.00     0.169 A  
HETATM   16  C   UNL     1     -12.431  10.188  70.662  1.00  0.00    -0.372 A  
HETATM   17  C   UNL     1     -11.055  10.278  70.446  1.00  0.00    -0.319 A  
HETATM   18  C   UNL     1     -11.235  12.700  70.560  1.00  0.00     1.100 A  
HETATM   19  C   UNL     1     -10.457  11.543  70.419  1.00  0.00     1.813 A  
BRANCH  17  20
HETATM   20  N   UNL     1     -10.230   9.150  70.242  1.00  0.00    -0.200 N  
HETATM   21  H   UNL     1     -10.591   8.417  69.631  1.00  0.00     0.000 HD 
HETATM   22  C   UNL     1      -8.983   8.950  70.792  1.00  0.00    -0.209 C  
HETATM   23  O   UNL     1      -8.393   9.660  71.591  1.00  0.00     0.115 OA 
BRANCH  22  24
HETATM   24  C   UNL     1      -8.290   7.710  70.329  1.00  0.00    -0.132 C  
HETATM   25  C   UNL     1      -7.023   7.319  71.087  1.00  0.00    -0.060 C  
HETATM   26  C   UNL     1      -8.251   6.478  71.231  1.00  0.00    -0.121 C  
BRANCH  24  27
HETATM   27  C   UNL     1      -8.377   7.495  68.855  1.00  0.00    -0.129 C  
HETATM   28  O   UNL     1      -8.028   8.399  68.106  1.00  0.00    -0.115 OA 
HETATM   29  N   UNL     1      -8.860   6.255  68.482  1.00  0.00    -0.115 N  
HETATM   30  H   UNL     1      -9.183   5.621  69.213  1.00  0.00     0.000 HD 
BRANCH  29  31
HETATM   31  C   UNL     1      -8.928   5.825  67.145  1.00  0.00    -0.113 A  
HETATM   32  C   UNL     1      -8.207   6.466  66.130  1.00  0.00    -0.122 A  
HETATM   33  C   UNL     1      -8.350   6.062  64.803  1.00  0.00    -0.086 A  
HETATM   34  C   UNL     1      -9.233   5.034  64.497  1.00  0.00     0.066 A  
HETATM   35  C   UNL     1      -9.929   4.367  65.499  1.00  0.00    -0.242 A  
HETATM   36  F   UNL     1      -9.420   4.686  63.217  1.00  0.00    -0.142 F  
HETATM   37  C   UNL     1      -9.748   4.738  66.834  1.00  0.00    -0.204 A  
ENDBRANCH  29  31
ENDBRANCH  24  27
ENDBRANCH  22  24
ENDBRANCH  17  20
ENDBRANCH  13  14
ENDBRANCH   8  13
BRANCH  10  38
HETATM   38  O   UNL     1      -9.110  14.279  68.566  1.00  0.00    -0.194 OA 
HETATM   39  C   UNL     1      -8.955  12.948  69.047  1.00  0.00     0.520 C  
ENDBRANCH  10  38
ENDBRANCH   2   3
TORSDOF 8
ENDMDL
MODEL      156
REMARK 921   NORMALIZED FREE ENERGY PREDICTED BY IDOCK:    9.31 KCAL/MOL
REMARK 922        TOTAL FREE ENERGY PREDICTED BY IDOCK:   12.20 KCAL/MOL
REMARK 923 INTER-LIGAND FREE ENERGY PREDICTED BY IDOCK:    4.35 KCAL/MOL
REMARK 924 INTRA-LIGAND FREE ENERGY PREDICTED BY IDOCK:    7.85 KCAL/MOL
REMARK 927      BINDING AFFINITY PREDICTED BY RF-SCORE:    0.00 PKD
ROOT
HETATM    1  C   UNL     1     -14.022  13.464  72.802  1.00  0.00     0.042 C  
HETATM    2  O   UNL     1     -13.820  12.862  71.528  1.00  0.00     0.079 OA 
ENDROOT
BRANCH   2   3
HETATM    3  C   UNL     1     -13.319  11.587  71.509  1.00  0.00    -0.066 A  
HETATM    4  C   UNL     1     -13.048  10.857  72.673  1.00  0.00     1.073 A  
HETATM    5  C   UNL     1     -12.493   9.588  72.648  1.00  0.00     0.234 A  
HETATM    6  C   UNL     1     -12.237   8.980  71.408  1.00  0.00    -0.387 A  
HETATM    7  C   UNL     1     -12.556   9.684  70.225  1.00  0.00     0.215 A  
HETATM    8  C   UNL     1     -11.645   7.699  71.438  1.00  0.00    -0.274 A  
HETATM    9  C   UNL     1     -11.350   7.088  72.654  1.00  0.00    -0.290 A  
HETATM   10  C   UNL     1     -13.047  10.995  70.268  1.00  0.00     0.147 A  
HETATM   11  N   UNL     1     -12.205   9.006  73.823  1.00  0.00     3.116 NA 
HETATM   12  C   UNL     1     -11.637   7.785  73.808  1.00  0.00     2.164 A  
BRANCH   8  13
HETATM   13  O   UNL     1     -11.457   7.069  70.226  1.00  0.00    -0.300 OA 
BRANCH  13  14
HETATM   14  C   UNL     1     -11.254   7.801  69.082  1.00  0.00     0.301 A  
HETATM   15  C   UNL     1     -11.057   9.166  69.276  1.00  0.00     0.001 A  
HETATM   16  C   UNL     1     -10.763   9.998  68.194  1.00  0.00    -0.282 A  
HETATM   17  C   UNL     1     -10.660   9.476  66.903  1.00  0.00    -0.171 A  
HETATM   18  C   UNL     1     -11.145   7.269  67.800  1.00  0.00    -0.031 A  
HETATM   19  C   UNL     1     -10.876   8.107  66.710  1.00  0.00     0.144 A  
BRANCH  17  20
HETATM   20  N   UNL     1     -10.337  10.262  65.775  1.00  0.00    -0.210 N  
HETATM   21  H   UNL     1     -10.876  11.117  65.637  1.00  0.00     0.000 HD 
HETATM   22  C   UNL     1      -9.362   9.979  64.845  1.00  0.00    -0.266 C  
HETATM   23  O   UNL     1      -8.650   8.990  64.781  1.00  0.00    -0.173 OA 
BRANCH  22  24
HETATM   24  C   UNL     1      -9.168  11.035  63.804  1.00  0.00    -0.191 C  
HETATM   25  C   UNL     1      -8.003  10.830  62.840  1.00  0.00    -0.031 C  
HETATM   26  C   UNL     1      -9.403  10.705  62.332  1.00  0.00    -0.282 C  
BRANCH  24  27
HETATM   27  C   UNL     1      -9.517  12.407  64.278  1.00  0.00     0.315 C  
HETATM   28  O   UNL     1     -10.048  13.183  63.493  1.00  0.00    -0.006 OA 
HETATM   29  N   UNL     1      -9.190  12.662  65.595  1.00  0.00    -0.430 N  
HETATM   30  H   UNL     1      -8.683  11.946  66.116  1.00  0.00     0.000 HD 
BRANCH  29  31
HETATM   31  C   UNL     1      -9.522  13.858  66.254  1.00  0.00    -0.215 A  
HETATM   32  C   UNL     1      -8.539  14.694  66.798  1.00  0.00    -0.195 A  
HETATM   33  C   UNL     1      -8.903  15.838  67.508  1.00  0.00    -0.196 A  
HETATM   34  C   UNL     1     -10.249  16.125  67.691  1.00  0.00    -0.265 A  
HETATM   35  C   UNL     1     -11.234  15.322  67.128  1.00  0.00    -0.291 A  
HETATM   36  F   UNL     1     -10.602  17.188  68.426  1.00  0.00    -0.307 F  
HETATM   37  C   UNL     1     -10.870  14.203  66.374  1.00  0.00    -0.304 A  
ENDBRANCH  29  31
ENDBRANCH  24  27
ENDBRANCH  22  24
ENDBRANCH  17  20
ENDBRANCH  13  14
ENDBRANCH   8  13
BRANCH  10  38
HETATM   38  O   UNL     1     -13.257  11.551  69.033  1.00  0.00     1.146 OA 
HETATM   39  C   UNL     1     -12.464  12.693  68.725  1.00  0.00     0.530 C  
ENDBRANCH  10  38
ENDBRANCH   2   3
TORSDOF 8
ENDMDL
MODEL      157
REMARK 921   NORMALIZED FREE ENERGY PREDICTED BY IDOCK:   12.62 KCAL/MOL
REMARK 922        TOTAL FREE ENERGY PREDICTED BY IDOCK:   17.05 KCAL/MOL
REMARK 923 INTER-LIGAND FREE ENERGY PREDICTED BY IDOCK:   11.84 KCAL/MOL
REMARK 924 INTRA-LIGAND FREE ENERGY PREDICTED BY IDOCK:    5.21 KCAL/MOL
REMARK 927      BINDING AFFINITY PREDICTED BY RF-SCORE:    0.00 PKD
ROOT
HETATM    1  C   UNL     1      -9.817  11.070  71.815  1.00  0.00     8.721 C  
HETATM    2  O   UNL     1     -11.065  11.168  71.138  1.00  0.00     0.928 OA 
ENDROOT
BRANCH   2   3
HETATM    3  C   UNL     1     -11.040  11.587  69.834  1.00  0.00    -0.004 A  
HETATM    4  C   UNL     1     -11.512  12.842  69.427  1.00  0.00    -0.321 A  
HETATM    5  C   UNL     1     -11.532  13.239  68.100  1.00  0.00    -0.312 A  
HETATM    6  C   UNL     1     -11.011  12.376  67.122  1.00  0.00    -0.304 A  
HETATM    7  C   UNL     1     -10.482  11.129  67.525  1.00  0.00    -0.239 A  
HETATM    8  C   UNL     1     -11.081  12.816  65.782  1.00  0.00    -0.285 A  
HETATM    9  C   UNL     1     -11.636  14.056  65.478  1.00  0.00    -0.333 A  
HETATM   10  C   UNL     1     -10.538  10.713  68.861  1.00  0.00    -0.212 A  
HETATM   11  N   UNL     1     -12.073  14.433  67.810  1.00  0.00    -0.326 NA 
HETATM   12  C   UNL     1     -12.125  14.814  66.520  1.00  0.00    -0.104 A  
BRANCH   8  13
HETATM   13  O   UNL     1     -10.508  12.004  64.827  1.00  0.00    -0.271 OA 
BRANCH  13  14
HETATM   14  C   UNL     1     -10.133  10.719  65.135  1.00  0.00    -0.299 A  
HETATM   15  C   UNL     1      -8.762  10.518  65.283  1.00  0.00    -0.200 A  
HETATM   16  C   UNL     1      -8.269   9.272  65.673  1.00  0.00    -0.119 A  
HETATM   17  C   UNL     1      -9.139   8.209  65.921  1.00  0.00    -0.130 A  
HETATM   18  C   UNL     1     -11.009   9.668  65.388  1.00  0.00     1.975 A  
HETATM   19  C   UNL     1     -10.514   8.409  65.753  1.00  0.00     1.605 A  
BRANCH  17  20
HETATM   20  N   UNL     1      -8.701   6.935  66.344  1.00  0.00    -0.136 N  
HETATM   21  H   UNL     1      -9.177   6.125  65.947  1.00  0.00     0.000 HD 
HETATM   22  C   UNL     1      -7.689   6.686  67.246  1.00  0.00    -0.104 C  
HETATM   23  O   UNL     1      -7.036   7.497  67.883  1.00  0.00    -0.079 OA 
BRANCH  22  24
HETATM   24  C   UNL     1      -7.369   5.239  67.439  1.00  0.00    -0.083 C  
HETATM   25  C   UNL     1      -7.614   4.325  66.241  1.00  0.00    -0.089 C  
HETATM   26  C   UNL     1      -6.210   4.607  66.671  1.00  0.00    -0.032 C  
BRANCH  24  27
HETATM   27  C   UNL     1      -7.640   4.749  68.823  1.00  0.00    -0.069 C  
HETATM   28  O   UNL     1      -6.861   5.052  69.718  1.00  0.00    -0.048 OA 
HETATM   29  N   UNL     1      -8.780   3.979  68.947  1.00  0.00    -0.088 N  
HETATM   30  H   UNL     1      -9.301   3.744  68.102  1.00  0.00     0.000 HD 
BRANCH  29  31
HETATM   31  C   UNL     1      -9.259   3.505  70.181  1.00  0.00    -0.154 A  
HETATM   32  C   UNL     1      -8.536   3.684  71.367  1.00  0.00    -0.095 A  
HETATM   33  C   UNL     1      -9.002   3.140  72.564  1.00  0.00    -0.116 A  
HETATM   34  C   UNL     1     -10.175   2.398  72.562  1.00  0.00    -0.159 A  
HETATM   35  C   UNL     1     -10.919   2.240  71.398  1.00  0.00     1.878 A  
HETATM   36  F   UNL     1     -10.591   1.821  73.696  1.00  0.00    -0.136 F  
HETATM   37  C   UNL     1     -10.480   2.827  70.209  1.00  0.00     1.881 A  
ENDBRANCH  29  31
ENDBRANCH  24  27
ENDBRANCH  22  24
ENDBRANCH  17  20
ENDBRANCH  13  14
ENDBRANCH   8  13
BRANCH  10  38
HETATM   38  O   UNL     1     -10.027   9.458  69.075  1.00  0.00    -0.167 OA 
HETATM   39  C   UNL     1      -8.658   9.279  68.729  1.00  0.00    -0.131 C  
ENDBRANCH  10  38
ENDBRANCH   2   3
TORSDOF 8
ENDMDL
MODEL      158
REMARK 921   NORMALIZED FREE ENERGY PREDICTED BY IDOCK:   16.04 KCAL/MOL
REMARK 922        TOTAL FREE ENERGY PREDICTED BY IDOCK:   22.07 KCAL/MOL
REMARK 923 INTER-LIGAND FREE ENERGY PREDICTED BY IDOCK:   17.16 KCAL/MOL
REMARK 924 INTRA-LIGAND FREE ENERGY PREDICTED BY IDOCK:    4.91 KCAL/MOL
REMARK 927      BINDING AFFINITY PREDICTED BY RF-SCORE:    0.00 PKD
ROOT
HETATM    1  C   UNL     1      -5.345   4.373  68.884  1.00  0.00    -0.011 C  
HETATM    2  O   UNL     1      -5.231   4.626  70.280  1.00  0.00     0.000 OA 
ENDROOT
BRANCH   2   3
HETATM    3  C   UNL     1      -6.138   5.489  70.837  1.00  0.00    -0.029 A  
HETATM    4  C   UNL     1      -5.972   6.051  72.109  1.00  0.00    -0.036 A  
HETATM    5  C   UNL     1      -6.918   6.881  72.688  1.00  0.00    -0.070 A  
HETATM    6  C   UNL     1      -8.067   7.221  71.956  1.00  0.00    -0.099 A  
HETATM    7  C   UNL     1      -8.220   6.704  70.650  1.00  0.00    -0.124 A  
HETATM    8  C   UNL     1      -9.012   8.047  72.602  1.00  0.00    -0.218 A  
HETATM    9  C   UNL     1      -8.783   8.496  73.900  1.00  0.00     0.148 A  
HETATM   10  C   UNL     1      -7.291   5.807  70.109  1.00  0.00    -0.073 A  
HETATM   11  N   UNL     1      -6.696   7.307  73.942  1.00  0.00    -0.076 NA 
HETATM   12  C   UNL     1      -7.624   8.090  74.524  1.00  0.00    -0.211 A  
BRANCH   8  13
HETATM   13  O   UNL     1     -10.108   8.440  71.863  1.00  0.00    -0.215 OA 
BRANCH  13  14
HETATM   14  C   UNL     1      -9.962   8.845  70.558  1.00  0.00    -0.201 A  
HETATM   15  C   UNL     1     -11.046   9.540  70.026  1.00  0.00    -0.268 A  
HETATM   16  C   UNL     1     -10.981  10.068  68.735  1.00  0.00    -0.242 A  
HETATM   17  C   UNL     1      -9.832   9.909  67.960  1.00  0.00    -0.147 A  
HETATM   18  C   UNL     1      -8.808   8.688  69.795  1.00  0.00    -0.137 A  
HETATM   19  C   UNL     1      -8.752   9.195  68.490  1.00  0.00    -0.129 A  
BRANCH  17  20
HETATM   20  N   UNL     1      -9.697  10.445  66.660  1.00  0.00    -0.183 N  
HETATM   21  H   UNL     1      -8.775  10.790  66.393  1.00  0.00     0.000 HD 
HETATM   22  C   UNL     1     -10.699  10.545  65.719  1.00  0.00     0.016 C  
HETATM   23  O   UNL     1     -11.878  10.257  65.845  1.00  0.00     1.636 OA 
BRANCH  22  24
HETATM   24  C   UNL     1     -10.256  11.065  64.390  1.00  0.00    -0.409 C  
HETATM   25  C   UNL     1      -8.787  10.850  64.034  1.00  0.00    -0.055 C  
HETATM   26  C   UNL     1      -9.838  10.089  63.292  1.00  0.00     0.232 C  
BRANCH  24  27
HETATM   27  C   UNL     1     -10.949  12.322  63.980  1.00  0.00    -0.383 C  
HETATM   28  O   UNL     1     -11.634  12.313  62.966  1.00  0.00    -0.257 OA 
HETATM   29  N   UNL     1     -10.733  13.397  64.820  1.00  0.00    -0.366 N  
HETATM   30  H   UNL     1     -10.078  13.284  65.595  1.00  0.00     0.000 HD 
BRANCH  29  31
HETATM   31  C   UNL     1     -11.372  14.640  64.661  1.00  0.00    -0.369 A  
HETATM   32  C   UNL     1     -10.647  15.837  64.612  1.00  0.00     0.001 A  
HETATM   33  C   UNL     1     -11.313  17.060  64.525  1.00  0.00     0.669 A  
HETATM   34  C   UNL     1     -12.701  17.078  64.514  1.00  0.00     5.415 A  
HETATM   35  C   UNL     1     -13.432  15.895  64.528  1.00  0.00     2.892 A  
HETATM   36  F   UNL     1     -13.344  18.252  64.494  1.00  0.00    10.617 F  
HETATM   37  C   UNL     1     -12.765  14.668  64.564  1.00  0.00     0.016 A  
ENDBRANCH  29  31
ENDBRANCH  24  27
ENDBRANCH  22  24
ENDBRANCH  17  20
ENDBRANCH  13  14
ENDBRANCH   8  13
BRANCH  10  38
HETATM   38  O   UNL     1      -7.614   5.362  68.853  1.00  0.00    -0.077 OA 
HETATM   39  C   UNL     1      -7.594   6.345  67.823  1.00  0.00    -0.102 C  
ENDBRANCH  10  38
ENDBRANCH   2   3
TORSDOF 8
ENDMDL
MODEL      159
REMARK 921   NORMALIZED FREE ENERGY PREDICTED BY IDOCK:   16.71 KCAL/MOL
REMARK 922        TOTAL FREE ENERGY PREDICTED BY IDOCK:   23.05 KCAL/MOL
REMARK 923 INTER-LIGAND FREE ENERGY PREDICTED BY IDOCK:   14.07 KCAL/MOL
REMARK 924 INTRA-LIGAND FREE ENERGY PREDICTED BY IDOCK:    8.98 KCAL/MOL
REMARK 927      BINDING AFFINITY PREDICTED BY RF-SCORE:    0.00 PKD
ROOT
HETATM    1  C   UNL     1      -5.203   2.619  67.358  1.00  0.00    -0.009 C  
HETATM    2  O   UNL     1      -5.354   3.150  68.670  1.00  0.00    -0.012 OA 
ENDROOT
BRANCH   2   3
HETATM    3  C   UNL     1      -6.631   3.301  69.143  1.00  0.00    -0.034 A  
HETATM    4  C   UNL     1      -7.021   2.899  70.427  1.00  0.00    -0.034 A  
HETATM    5  C   UNL     1      -8.325   3.006  70.880  1.00  0.00    -0.057 A  
HETATM    6  C   UNL     1      -9.292   3.589  70.044  1.00  0.00    -0.246 A  
HETATM    7  C   UNL     1      -8.900   4.048  68.767  1.00  0.00    -0.147 A  
HETATM    8  C   UNL     1     -10.611   3.648  70.542  1.00  0.00     1.612 A  
HETATM    9  C   UNL     1     -10.908   3.154  71.810  1.00  0.00     1.030 A  
HETATM   10  C   UNL     1      -7.594   3.864  68.296  1.00  0.00    -0.066 A  
HETATM   11  N   UNL     1      -8.607   2.523  72.100  1.00  0.00    -0.065 NA 
HETATM   12  C   UNL     1      -9.879   2.595  72.537  1.00  0.00    -0.146 A  
BRANCH   8  13
HETATM   13  O   UNL     1     -11.549   4.282  69.755  1.00  0.00     5.037 OA 
BRANCH  13  14
HETATM   14  C   UNL     1     -11.163   5.210  68.818  1.00  0.00     1.526 A  
HETATM   15  C   UNL     1     -12.192   5.728  68.035  1.00  0.00     5.180 A  
HETATM   16  C   UNL     1     -11.932   6.734  67.103  1.00  0.00     2.331 A  
HETATM   17  C   UNL     1     -10.640   7.238  66.943  1.00  0.00    -0.305 A  
HETATM   18  C   UNL     1      -9.873   5.712  68.672  1.00  0.00    -0.190 A  
HETATM   19  C   UNL     1      -9.606   6.704  67.719  1.00  0.00    -0.129 A  
BRANCH  17  20
HETATM   20  N   UNL     1     -10.323   8.275  66.039  1.00  0.00    -0.118 N  
HETATM   21  H   UNL     1     -10.677   8.185  65.086  1.00  0.00     0.000 HD 
HETATM   22  C   UNL     1      -9.577   9.398  66.325  1.00  0.00    -0.234 C  
HETATM   23  O   UNL     1      -9.009   9.675  67.369  1.00  0.00    -0.130 OA 
BRANCH  22  24
HETATM   24  C   UNL     1      -9.477  10.382  65.204  1.00  0.00    -0.303 C  
HETATM   25  C   UNL     1      -8.915   9.853  63.887  1.00  0.00    -0.280 C  
HETATM   26  C   UNL     1     -10.361  10.221  63.969  1.00  0.00     0.293 C  
BRANCH  24  27
HETATM   27  C   UNL     1      -9.151  11.767  65.655  1.00  0.00    -0.028 C  
HETATM   28  O   UNL     1      -9.331  12.697  64.879  1.00  0.00     0.249 OA 
HETATM   29  N   UNL     1      -8.662  11.852  66.944  1.00  0.00    -0.187 N  
HETATM   30  H   UNL     1      -8.493  10.986  67.457  1.00  0.00     0.000 HD 
BRANCH  29  31
HETATM   31  C   UNL     1      -8.388  13.073  67.585  1.00  0.00    -0.181 A  
HETATM   32  C   UNL     1      -8.393  14.287  66.886  1.00  0.00    -0.084 A  
HETATM   33  C   UNL     1      -8.046  15.472  67.533  1.00  0.00    -0.185 A  
HETATM   34  C   UNL     1      -7.672  15.433  68.870  1.00  0.00    -0.165 A  
HETATM   35  C   UNL     1      -7.695  14.239  69.584  1.00  0.00     0.303 A  
HETATM   36  F   UNL     1      -7.278  16.559  69.477  1.00  0.00    -0.229 F  
HETATM   37  C   UNL     1      -8.091  13.059  68.950  1.00  0.00     0.206 A  
ENDBRANCH  29  31
ENDBRANCH  24  27
ENDBRANCH  22  24
ENDBRANCH  17  20
ENDBRANCH  13  14
ENDBRANCH   8  13
BRANCH  10  38
HETATM   38  O   UNL     1      -7.394   4.322  67.019  1.00  0.00    -0.071 OA 
HETATM   39  C   UNL     1      -7.068   3.331  66.050  1.00  0.00    -0.062 C  
ENDBRANCH  10  38
ENDBRANCH   2   3
TORSDOF 8
ENDMDL
MODEL      160
REMARK 921   NORMALIZED FREE ENERGY PREDICTED BY IDOCK:   19.39 KCAL/MOL
REMARK 922        TOTAL FREE ENERGY PREDICTED BY IDOCK:   27.00 KCAL/MOL
REMARK 923 INTER-LIGAND FREE ENERGY PREDICTED BY IDOCK:   26.52 KCAL/MOL
REMARK 924 INTRA-LIGAND FREE ENERGY PREDICTED BY IDOCK:    0.48 KCAL/MOL
REMARK 927      BINDING AFFINITY PREDICTED BY RF-SCORE:    0.00 PKD
ROOT
HETATM    1  C   UNL     1      -8.243  17.399  64.364  1.00  0.00     8.301 C  
HETATM    2  O   UNL     1      -9.147  16.439  64.900  1.00  0.00     1.090 OA 
ENDROOT
BRANCH   2   3
HETATM    3  C   UNL     1      -9.080  16.198  66.247  1.00  0.00    -0.338 A  
HETATM    4  C   UNL     1      -8.183  16.860  67.096  1.00  0.00    -0.215 A  
HETATM    5  C   UNL     1      -8.084  16.574  68.448  1.00  0.00    -0.196 A  
HETATM    6  C   UNL     1      -8.950  15.622  69.009  1.00  0.00    -0.239 A  
HETATM    7  C   UNL     1      -9.897  14.986  68.174  1.00  0.00    -0.216 A  
HETATM    8  C   UNL     1      -8.789  15.347  70.384  1.00  0.00     1.106 A  
HETATM    9  C   UNL     1      -7.815  16.012  71.125  1.00  0.00     4.249 A  
HETATM   10  C   UNL     1      -9.933  15.232  66.796  1.00  0.00    -0.242 A  
HETATM   11  N   UNL     1      -7.140  17.214  69.156  1.00  0.00    -0.237 NA 
HETATM   12  C   UNL     1      -7.015  16.920  70.464  1.00  0.00     1.906 A  
BRANCH   8  13
HETATM   13  O   UNL     1      -9.682  14.465  70.954  1.00  0.00     1.926 OA 
BRANCH  13  14
HETATM   14  C   UNL     1      -9.972  13.270  70.343  1.00  0.00     3.740 A  
HETATM   15  C   UNL     1      -8.979  12.297  70.438  1.00  0.00     5.646 A  
HETATM   16  C   UNL     1      -9.193  11.017  69.923  1.00  0.00     0.982 A  
HETATM   17  C   UNL     1     -10.402  10.692  69.307  1.00  0.00    -0.218 A  
HETATM   18  C   UNL     1     -11.184  12.953  69.738  1.00  0.00    -0.001 A  
HETATM   19  C   UNL     1     -11.390  11.677  69.198  1.00  0.00    -0.345 A  
BRANCH  17  20
HETATM   20  N   UNL     1     -10.686   9.408  68.793  1.00  0.00    -0.339 N  
HETATM   21  H   UNL     1     -11.369   9.351  68.038  1.00  0.00     0.000 HD 
HETATM   22  C   UNL     1     -10.125   8.224  69.220  1.00  0.00    -0.199 C  
HETATM   23  O   UNL     1      -9.343   8.053  70.141  1.00  0.00    -0.155 OA 
BRANCH  22  24
HETATM   24  C   UNL     1     -10.536   7.021  68.434  1.00  0.00    -0.240 C  
HETATM   25  C   UNL     1     -11.884   6.402  68.796  1.00  0.00     0.811 C  
HETATM   26  C   UNL     1     -11.730   7.103  67.484  1.00  0.00     1.268 C  
BRANCH  24  27
HETATM   27  C   UNL     1      -9.391   6.146  68.043  1.00  0.00    -0.114 C  
HETATM   28  O   UNL     1      -8.857   5.456  68.903  1.00  0.00    -0.100 OA 
HETATM   29  N   UNL     1      -9.046   6.212  66.707  1.00  0.00    -0.129 N  
HETATM   30  H   UNL     1      -9.531   6.886  66.114  1.00  0.00     0.000 HD 
BRANCH  29  31
HETATM   31  C   UNL     1      -8.061   5.396  66.125  1.00  0.00    -0.106 A  
HETATM   32  C   UNL     1      -6.837   5.921  65.690  1.00  0.00    -0.056 A  
HETATM   33  C   UNL     1      -5.907   5.100  65.051  1.00  0.00    -0.017 A  
HETATM   34  C   UNL     1      -6.219   3.765  64.828  1.00  0.00    -0.023 A  
HETATM   35  C   UNL     1      -7.416   3.225  65.285  1.00  0.00    -0.076 A  
HETATM   36  F   UNL     1      -5.356   2.990  64.160  1.00  0.00    -0.007 F  
HETATM   37  C   UNL     1      -8.326   4.034  65.970  1.00  0.00    -0.109 A  
ENDBRANCH  29  31
ENDBRANCH  24  27
ENDBRANCH  22  24
ENDBRANCH  17  20
ENDBRANCH  13  14
ENDBRANCH   8  13
BRANCH  10  38
HETATM   38  O   UNL     1     -10.876  14.497  66.125  1.00  0.00    -0.305 OA 
HETATM   39  C   UNL     1     -10.488  13.177  65.759  1.00  0.00    -0.283 C  
ENDBRANCH  10  38
ENDBRANCH   2   3
TORSDOF 8
ENDMDL
MODEL      161
REMARK 921   NORMALIZED FREE ENERGY PREDICTED BY IDOCK:   22.74 KCAL/MOL
REMARK 922        TOTAL FREE ENERGY PREDICTED BY IDOCK:   31.90 KCAL/MOL
REMARK 923 INTER-LIGAND FREE ENERGY PREDICTED BY IDOCK:   25.35 KCAL/MOL
REMARK 924 INTRA-LIGAND FREE ENERGY PREDICTED BY IDOCK:    6.55 KCAL/MOL
REMARK 927      BINDING AFFINITY PREDICTED BY RF-SCORE:    0.00 PKD
ROOT
HETATM    1  C   UNL     1     -13.638  13.560  69.545  1.00  0.00     3.279 C  
HETATM    2  O   UNL     1     -13.689  14.717  68.717  1.00  0.00     3.565 OA 
ENDROOT
BRANCH   2   3
HETATM    3  C   UNL     1     -13.161  14.610  67.457  1.00  0.00     3.358 A  
HETATM    4  C   UNL     1     -13.475  15.499  66.421  1.00  0.00     4.264 A  
HETATM    5  C   UNL     1     -12.978  15.354  65.136  1.00  0.00     1.091 A  
HETATM    6  C   UNL     1     -12.081  14.308  64.865  1.00  0.00    -0.442 A  
HETATM    7  C   UNL     1     -11.714  13.437  65.915  1.00  0.00    -0.389 A  
HETATM    8  C   UNL     1     -11.627  14.188  63.534  1.00  0.00     0.592 A  
HETATM    9  C   UNL     1     -12.057  15.086  62.560  1.00  0.00     4.660 A  
HETATM   10  C   UNL     1     -12.283  13.552  67.189  1.00  0.00    -0.281 A  
HETATM   11  N   UNL     1     -13.400  16.219  64.200  1.00  0.00     1.571 NA 
HETATM   12  C   UNL     1     -12.947  16.067  62.941  1.00  0.00     6.384 A  
BRANCH   8  13
HETATM   13  O   UNL     1     -10.693  13.207  63.278  1.00  0.00     0.113 OA 
BRANCH  13  14
HETATM   14  C   UNL     1     -10.219  12.411  64.292  1.00  0.00    -0.332 A  
HETATM   15  C   UNL     1      -9.477  13.071  65.269  1.00  0.00     0.266 A  
HETATM   16  C   UNL     1      -9.010  12.380  66.388  1.00  0.00    -0.101 A  
HETATM   17  C   UNL     1      -9.280  11.020  66.548  1.00  0.00    -0.171 A  
HETATM   18  C   UNL     1     -10.501  11.057  64.446  1.00  0.00    -0.422 A  
HETATM   19  C   UNL     1     -10.011  10.356  65.556  1.00  0.00    -0.348 A  
BRANCH  17  20
HETATM   20  N   UNL     1      -8.860  10.275  67.671  1.00  0.00    -0.122 N  
HETATM   21  H   UNL     1      -7.908   9.907  67.654  1.00  0.00     0.000 HD 
HETATM   22  C   UNL     1      -9.617  10.001  68.789  1.00  0.00    -0.168 C  
HETATM   23  O   UNL     1     -10.786  10.285  68.992  1.00  0.00    -0.207 OA 
BRANCH  22  24
HETATM   24  C   UNL     1      -8.888   9.272  69.872  1.00  0.00    -0.196 C  
HETATM   25  C   UNL     1      -7.686   9.990  70.481  1.00  0.00     0.139 C  
HETATM   26  C   UNL     1      -8.921   9.805  71.303  1.00  0.00     0.954 C  
BRANCH  24  27
HETATM   27  C   UNL     1      -8.857   7.792  69.677  1.00  0.00    -0.139 C  
HETATM   28  O   UNL     1      -9.086   7.340  68.563  1.00  0.00    -0.137 OA 
HETATM   29  N   UNL     1      -8.563   7.069  70.816  1.00  0.00    -0.142 N  
HETATM   30  H   UNL     1      -8.464   7.571  71.699  1.00  0.00     0.000 HD 
BRANCH  29  31
HETATM   31  C   UNL     1      -8.393   5.673  70.820  1.00  0.00    -0.123 A  
HETATM   32  C   UNL     1      -7.126   5.087  70.708  1.00  0.00    -0.056 A  
HETATM   33  C   UNL     1      -6.996   3.700  70.642  1.00  0.00    -0.033 A  
HETATM   34  C   UNL     1      -8.137   2.908  70.664  1.00  0.00    -0.045 A  
HETATM   35  C   UNL     1      -9.398   3.476  70.809  1.00  0.00    -0.227 A  
HETATM   36  F   UNL     1      -8.020   1.580  70.538  1.00  0.00    -0.039 F  
HETATM   37  C   UNL     1      -9.526   4.862  70.925  1.00  0.00    -0.227 A  
ENDBRANCH  29  31
ENDBRANCH  24  27
ENDBRANCH  22  24
ENDBRANCH  17  20
ENDBRANCH  13  14
ENDBRANCH   8  13
BRANCH  10  38
HETATM   38  O   UNL     1     -11.856  12.598  68.077  1.00  0.00    -0.338 OA 
HETATM   39  C   UNL     1     -11.166  13.083  69.224  1.00  0.00    -0.199 C  
ENDBRANCH  10  38
ENDBRANCH   2   3
TORSDOF 8
ENDMDL
MODEL      162
REMARK 921   NORMALIZED FREE ENERGY PREDICTED BY IDOCK:   27.02 KCAL/MOL
REMARK 922        TOTAL FREE ENERGY PREDICTED BY IDOCK:   38.19 KCAL/MOL
REMARK 923 INTER-LIGAND FREE ENERGY PREDICTED BY IDOCK:   37.00 KCAL/MOL
REMARK 924 INTRA-LIGAND FREE ENERGY PREDICTED BY IDOCK:    1.19 KCAL/MOL
REMARK 927      BINDING AFFINITY PREDICTED BY RF-SCORE:    0.00 PKD
ROOT
HETATM    1  C   UNL     1      -9.377   6.746  65.962  1.00  0.00     0.016 C  
HETATM    2  O   UNL     1      -9.665   6.956  67.340  1.00  0.00    -0.130 OA 
ENDROOT
BRANCH   2   3
HETATM    3  C   UNL     1     -10.220   8.159  67.688  1.00  0.00    -0.234 A  
HETATM    4  C   UNL     1     -11.315   8.716  67.016  1.00  0.00     1.411 A  
HETATM    5  C   UNL     1     -11.839   9.957  67.340  1.00  0.00     2.341 A  
HETATM    6  C   UNL     1     -11.290  10.668  68.420  1.00  0.00    -0.348 A  
HETATM    7  C   UNL     1     -10.221  10.093  69.141  1.00  0.00    -0.229 A  
HETATM    8  C   UNL     1     -11.842  11.939  68.690  1.00  0.00    -0.308 A  
HETATM    9  C   UNL     1     -12.887  12.433  67.913  1.00  0.00     2.519 A  
HETATM   10  C   UNL     1      -9.655   8.872  68.754  1.00  0.00    -0.157 A  
HETATM   11  N   UNL     1     -12.842  10.431  66.584  1.00  0.00     7.399 NA 
HETATM   12  C   UNL     1     -13.337  11.650  66.872  1.00  0.00     8.150 A  
BRANCH   8  13
HETATM   13  O   UNL     1     -11.355  12.610  69.792  1.00  0.00    -0.169 OA 
BRANCH  13  14
HETATM   14  C   UNL     1     -10.996  13.933  69.702  1.00  0.00    -0.002 A  
HETATM   15  C   UNL     1     -10.486  14.492  70.871  1.00  0.00     1.088 A  
HETATM   16  C   UNL     1     -10.015  15.806  70.879  1.00  0.00     1.139 A  
HETATM   17  C   UNL     1     -10.046  16.579  69.717  1.00  0.00    -0.015 A  
HETATM   18  C   UNL     1     -11.023  14.693  68.536  1.00  0.00    -0.261 A  
HETATM   19  C   UNL     1     -10.575  16.020  68.549  1.00  0.00    -0.268 A  
BRANCH  17  20
HETATM   20  N   UNL     1      -9.558  17.903  69.657  1.00  0.00     0.439 N  
HETATM   21  H   UNL     1      -9.136  18.202  68.778  1.00  0.00     0.000 HD 
HETATM   22  C   UNL     1      -9.601  18.827  70.678  1.00  0.00     2.674 C  
HETATM   23  O   UNL     1     -10.000  18.666  71.820  1.00  0.00     3.796 OA 
BRANCH  22  24
HETATM   24  C   UNL     1      -9.100  20.186  70.309  1.00  0.00     1.295 C  
HETATM   25  C   UNL     1      -9.814  21.371  70.955  1.00  0.00     3.747 C  
HETATM   26  C   UNL     1      -8.410  21.055  71.359  1.00  0.00     3.567 C  
BRANCH  24  27
HETATM   27  C   UNL     1      -8.619  20.280  68.899  1.00  0.00     0.480 C  
HETATM   28  O   UNL     1      -8.780  21.331  68.291  1.00  0.00     0.824 OA 
HETATM   29  N   UNL     1      -8.024  19.131  68.416  1.00  0.00    -0.327 N  
HETATM   30  H   UNL     1      -8.021  18.301  69.009  1.00  0.00     0.000 HD 
BRANCH  29  31
HETATM   31  C   UNL     1      -7.424  19.049  67.148  1.00  0.00    -0.228 A  
HETATM   32  C   UNL     1      -7.307  17.829  66.468  1.00  0.00    -0.283 A  
HETATM   33  C   UNL     1      -6.642  17.768  65.243  1.00  0.00     0.410 A  
HETATM   34  C   UNL     1      -6.076  18.922  64.718  1.00  0.00    -0.229 A  
HETATM   35  C   UNL     1      -6.214  20.144  65.367  1.00  0.00    -0.268 A  
HETATM   36  F   UNL     1      -5.384  18.854  63.574  1.00  0.00    -0.261 F  
HETATM   37  C   UNL     1      -6.923  20.217  66.568  1.00  0.00    -0.268 A  
ENDBRANCH  29  31
ENDBRANCH  24  27
ENDBRANCH  22  24
ENDBRANCH  17  20
ENDBRANCH  13  14
ENDBRANCH   8  13
BRANCH  10  38
HETATM   38  O   UNL     1      -8.594   8.480  69.529  1.00  0.00    -0.128 OA 
HETATM   39  C   UNL     1      -8.749   8.666  70.932  1.00  0.00    -0.181 C  
ENDBRANCH  10  38
ENDBRANCH   2   3
TORSDOF 8
ENDMDL
MODEL      163
REMARK 921   NORMALIZED FREE ENERGY PREDICTED BY IDOCK:   29.14 KCAL/MOL
REMARK 922        TOTAL FREE ENERGY PREDICTED BY IDOCK:   41.30 KCAL/MOL
REMARK 923 INTER-LIGAND FREE ENERGY PREDICTED BY IDOCK:   38.75 KCAL/MOL
REMARK 924 INTRA-LIGAND FREE ENERGY PREDICTED BY IDOCK:    2.54 KCAL/MOL
REMARK 927      BINDING AFFINITY PREDICTED BY RF-SCORE:    0.00 PKD
ROOT
HETATM    1  C   UNL     1     -14.156  13.298  73.312  1.00  0.00     2.506 C  
HETATM    2  O   UNL     1     -14.163  12.949  71.932  1.00  0.00     0.110 OA 
ENDROOT
BRANCH   2   3
HETATM    3  C   UNL     1     -14.010  11.623  71.620  1.00  0.00     1.108 A  
HETATM    4  C   UNL     1     -14.110  10.600  72.571  1.00  0.00     0.868 A  
HETATM    5  C   UNL     1     -13.903   9.266  72.259  1.00  0.00    -0.426 A  
HETATM    6  C   UNL     1     -13.633   8.912  70.927  1.00  0.00     0.155 A  
HETATM    7  C   UNL     1     -13.583   9.929  69.948  1.00  0.00     1.450 A  
HETATM    8  C   UNL     1     -13.401   7.543  70.667  1.00  0.00     0.470 A  
HETATM    9  C   UNL     1     -13.455   6.612  71.701  1.00  0.00    -0.049 A  
HETATM   10  C   UNL     1     -13.721  11.279  70.293  1.00  0.00     2.102 A  
HETATM   11  N   UNL     1     -13.950   8.373  73.260  1.00  0.00     0.224 NA 
HETATM   12  C   UNL     1     -13.718   7.078  72.971  1.00  0.00     1.931 A  
BRANCH   8  13
HETATM   13  O   UNL     1     -13.206   7.181  69.351  1.00  0.00     3.264 OA 
BRANCH  13  14
HETATM   14  C   UNL     1     -12.177   7.726  68.622  1.00  0.00     3.360 A  
HETATM   15  C   UNL     1     -11.318   8.558  69.335  1.00  0.00     0.339 A  
HETATM   16  C   UNL     1     -10.192   9.106  68.717  1.00  0.00    -0.228 A  
HETATM   17  C   UNL     1      -9.909   8.827  67.379  1.00  0.00    -0.194 A  
HETATM   18  C   UNL     1     -11.899   7.435  67.289  1.00  0.00     2.364 A  
HETATM   19  C   UNL     1     -10.784   8.005  66.661  1.00  0.00     0.105 A  
BRANCH  17  20
HETATM   20  N   UNL     1      -8.771   9.329  66.709  1.00  0.00    -0.126 N  
HETATM   21  H   UNL     1      -8.828  10.281  66.347  1.00  0.00     0.000 HD 
HETATM   22  C   UNL     1      -7.591   8.648  66.500  1.00  0.00    -0.088 C  
HETATM   23  O   UNL     1      -7.330   7.492  66.789  1.00  0.00    -0.088 OA 
BRANCH  22  24
HETATM   24  C   UNL     1      -6.515   9.455  65.847  1.00  0.00    -0.075 C  
HETATM   25  C   UNL     1      -5.155   8.777  65.700  1.00  0.00    -0.030 C  
HETATM   26  C   UNL     1      -5.977   9.040  64.479  1.00  0.00    -0.066 C  
BRANCH  24  27
HETATM   27  C   UNL     1      -6.596  10.914  66.152  1.00  0.00    -0.108 C  
HETATM   28  O   UNL     1      -5.602  11.479  66.590  1.00  0.00    -0.127 OA 
HETATM   29  N   UNL     1      -7.827  11.487  65.900  1.00  0.00    -0.354 N  
HETATM   30  H   UNL     1      -8.593  10.881  65.603  1.00  0.00     0.000 HD 
BRANCH  29  31
HETATM   31  C   UNL     1      -8.077  12.864  66.032  1.00  0.00     1.498 A  
HETATM   32  C   UNL     1      -7.270  13.821  65.404  1.00  0.00     8.926 A  
HETATM   33  C   UNL     1      -7.501  15.181  65.611  1.00  0.00     5.200 A  
HETATM   34  C   UNL     1      -8.521  15.574  66.467  1.00  0.00    -0.248 A  
HETATM   35  C   UNL     1      -9.351  14.635  67.070  1.00  0.00    -0.244 A  
HETATM   36  F   UNL     1      -8.705  16.877  66.717  1.00  0.00    -0.203 F  
HETATM   37  C   UNL     1      -9.153  13.275  66.823  1.00  0.00    -0.216 A  
ENDBRANCH  29  31
ENDBRANCH  24  27
ENDBRANCH  22  24
ENDBRANCH  17  20
ENDBRANCH  13  14
ENDBRANCH   8  13
BRANCH  10  38
HETATM   38  O   UNL     1     -13.597  12.140  69.233  1.00  0.00     2.943 OA 
HETATM   39  C   UNL     1     -13.482  13.519  69.565  1.00  0.00     2.702 C  
ENDBRANCH  10  38
ENDBRANCH   2   3
TORSDOF 8
ENDMDL
MODEL      164
REMARK 921   NORMALIZED FREE ENERGY PREDICTED BY IDOCK:   31.37 KCAL/MOL
REMARK 922        TOTAL FREE ENERGY PREDICTED BY IDOCK:   44.58 KCAL/MOL
REMARK 923 INTER-LIGAND FREE ENERGY PREDICTED BY IDOCK:   38.07 KCAL/MOL
REMARK 924 INTRA-LIGAND FREE ENERGY PREDICTED BY IDOCK:    6.50 KCAL/MOL
REMARK 927      BINDING AFFINITY PREDICTED BY RF-SCORE:    0.00 PKD
ROOT
HETATM    1  C   UNL     1      -5.345   4.373  68.884  1.00  0.00    -0.011 C  
HETATM    2  O   UNL     1      -5.240   4.618  70.282  1.00  0.00     0.000 OA 
ENDROOT
BRANCH   2   3
HETATM    3  C   UNL     1      -6.155   5.473  70.840  1.00  0.00    -0.029 A  
HETATM    4  C   UNL     1      -5.999   6.028  72.116  1.00  0.00    -0.036 A  
HETATM    5  C   UNL     1      -6.952   6.850  72.694  1.00  0.00    -0.070 A  
HETATM    6  C   UNL     1      -8.099   7.189  71.957  1.00  0.00    -0.100 A  
HETATM    7  C   UNL     1      -8.242   6.679  70.647  1.00  0.00    -0.124 A  
HETATM    8  C   UNL     1      -9.052   8.006  72.603  1.00  0.00    -0.227 A  
HETATM    9  C   UNL     1      -8.833   8.448  73.905  1.00  0.00     0.044 A  
HETATM   10  C   UNL     1      -7.306   5.790  70.106  1.00  0.00    -0.073 A  
HETATM   11  N   UNL     1      -6.739   7.269  73.952  1.00  0.00    -0.076 NA 
HETATM   12  C   UNL     1      -7.675   8.043  74.534  1.00  0.00    -0.227 A  
BRANCH   8  13
HETATM   13  O   UNL     1     -10.145   8.398  71.860  1.00  0.00    -0.215 OA 
BRANCH  13  14
HETATM   14  C   UNL     1      -9.994   8.811  70.559  1.00  0.00    -0.189 A  
HETATM   15  C   UNL     1     -11.078   9.504  70.025  1.00  0.00    -0.268 A  
HETATM   16  C   UNL     1     -11.008  10.041  68.738  1.00  0.00    -0.242 A  
HETATM   17  C   UNL     1      -9.854   9.893  67.968  1.00  0.00    -0.147 A  
HETATM   18  C   UNL     1      -8.835   8.666  69.802  1.00  0.00    -0.137 A  
HETATM   19  C   UNL     1      -8.774   9.181  68.500  1.00  0.00    -0.129 A  
BRANCH  17  20
HETATM   20  N   UNL     1      -9.715  10.437  66.672  1.00  0.00    -0.183 N  
HETATM   21  H   UNL     1      -8.793  10.788  66.413  1.00  0.00     0.000 HD 
HETATM   22  C   UNL     1     -10.712  10.538  65.726  1.00  0.00     0.016 C  
HETATM   23  O   UNL     1     -11.890  10.243  65.843  1.00  0.00     1.636 OA 
BRANCH  22  24
HETATM   24  C   UNL     1     -10.263  11.068  64.402  1.00  0.00    -0.409 C  
HETATM   25  C   UNL     1      -9.790  10.035  63.384  1.00  0.00     0.216 C  
HETATM   26  C   UNL     1     -11.074  10.762  63.145  1.00  0.00     0.880 C  
BRANCH  24  27
HETATM   27  C   UNL     1      -9.586  12.396  64.491  1.00  0.00     0.163 C  
HETATM   28  O   UNL     1     -10.188  13.390  64.105  1.00  0.00    -0.363 OA 
HETATM   29  N   UNL     1      -8.310  12.357  65.018  1.00  0.00     1.373 N  
HETATM   30  H   UNL     1      -7.901  11.447  65.233  1.00  0.00     0.000 HD 
BRANCH  29  31
HETATM   31  C   UNL     1      -7.546  13.509  65.271  1.00  0.00     7.511 A  
HETATM   32  C   UNL     1      -6.228  13.428  65.739  1.00  0.00     7.174 A  
HETATM   33  C   UNL     1      -5.519  14.589  66.049  1.00  0.00     6.606 A  
HETATM   34  C   UNL     1      -6.142  15.822  65.915  1.00  0.00     4.376 A  
HETATM   35  C   UNL     1      -7.438  15.918  65.420  1.00  0.00     4.647 A  
HETATM   36  F   UNL     1      -5.486  16.934  66.272  1.00  0.00    -0.184 F  
HETATM   37  C   UNL     1      -8.131  14.760  65.061  1.00  0.00     7.011 A  
ENDBRANCH  29  31
ENDBRANCH  24  27
ENDBRANCH  22  24
ENDBRANCH  17  20
ENDBRANCH  13  14
ENDBRANCH   8  13
BRANCH  10  38
HETATM   38  O   UNL     1      -7.619   5.351  68.845  1.00  0.00    -0.077 OA 
HETATM   39  C   UNL     1      -6.887   5.950  67.781  1.00  0.00    -0.060 C  
ENDBRANCH  10  38
ENDBRANCH   2   3
TORSDOF 8
ENDMDL
MODEL      165
REMARK 921   NORMALIZED FREE ENERGY PREDICTED BY IDOCK:   32.09 KCAL/MOL
REMARK 922        TOTAL FREE ENERGY PREDICTED BY IDOCK:   45.63 KCAL/MOL
REMARK 923 INTER-LIGAND FREE ENERGY PREDICTED BY IDOCK:   36.14 KCAL/MOL
REMARK 924 INTRA-LIGAND FREE ENERGY PREDICTED BY IDOCK:    9.50 KCAL/MOL
REMARK 927      BINDING AFFINITY PREDICTED BY RF-SCORE:    0.00 PKD
ROOT
HETATM    1  C   UNL     1      -9.417  16.219  71.265  1.00  0.00     4.259 C  
HETATM    2  O   UNL     1      -9.644  14.904  70.770  1.00  0.00     0.857 OA 
ENDROOT
BRANCH   2   3
HETATM    3  C   UNL     1      -9.053  14.572  69.579  1.00  0.00     0.342 A  
HETATM    4  C   UNL     1      -8.520  15.524  68.701  1.00  0.00    -0.174 A  
HETATM    5  C   UNL     1      -7.972  15.186  67.474  1.00  0.00    -0.174 A  
HETATM    6  C   UNL     1      -7.895  13.831  67.112  1.00  0.00    -0.030 A  
HETATM    7  C   UNL     1      -8.380  12.856  68.013  1.00  0.00    -0.169 A  
HETATM    8  C   UNL     1      -7.354  13.542  65.841  1.00  0.00     4.572 A  
HETATM    9  C   UNL     1      -6.916  14.572  65.012  1.00  0.00    14.130 A  
HETATM   10  C   UNL     1      -8.998  13.220  69.215  1.00  0.00     0.876 A  
HETATM   11  N   UNL     1      -7.556  16.182  66.677  1.00  0.00    -0.233 NA 
HETATM   12  C   UNL     1      -7.050  15.865  65.470  1.00  0.00     4.827 A  
BRANCH   8  13
HETATM   13  O   UNL     1      -7.211  12.212  65.510  1.00  0.00     1.672 OA 
BRANCH  13  14
HETATM   14  C   UNL     1      -7.989  11.254  66.113  1.00  0.00    -0.038 A  
HETATM   15  C   UNL     1      -7.722   9.942  65.730  1.00  0.00    -0.112 A  
HETATM   16  C   UNL     1      -8.395   8.878  66.333  1.00  0.00    -0.117 A  
HETATM   17  C   UNL     1      -9.344   9.112  67.330  1.00  0.00    -0.135 A  
HETATM   18  C   UNL     1      -8.928  11.497  67.111  1.00  0.00    -0.166 A  
HETATM   19  C   UNL     1      -9.623  10.432  67.699  1.00  0.00    -0.168 A  
BRANCH  17  20
HETATM   20  N   UNL     1     -10.036   8.077  67.996  1.00  0.00    -0.172 N  
HETATM   21  H   UNL     1     -10.137   7.191  67.499  1.00  0.00     0.000 HD 
HETATM   22  C   UNL     1     -10.587   8.153  69.256  1.00  0.00    -0.182 C  
HETATM   23  O   UNL     1     -10.639   9.123  69.995  1.00  0.00    -0.210 OA 
BRANCH  22  24
HETATM   24  C   UNL     1     -11.179   6.874  69.756  1.00  0.00    -0.315 C  
HETATM   25  C   UNL     1     -12.696   6.849  69.923  1.00  0.00     1.328 C  
HETATM   26  C   UNL     1     -12.066   6.036  68.838  1.00  0.00     2.538 C  
BRANCH  24  27
HETATM   27  C   UNL     1     -10.305   6.156  70.731  1.00  0.00    -0.213 C  
HETATM   28  O   UNL     1     -10.559   4.988  70.999  1.00  0.00    -0.183 OA 
HETATM   29  N   UNL     1      -9.271   6.914  71.244  1.00  0.00    -0.157 N  
HETATM   30  H   UNL     1      -9.219   7.900  70.988  1.00  0.00     0.000 HD 
BRANCH  29  31
HETATM   31  C   UNL     1      -8.286   6.393  72.101  1.00  0.00    -0.108 A  
HETATM   32  C   UNL     1      -7.016   6.976  72.199  1.00  0.00    -0.064 A  
HETATM   33  C   UNL     1      -6.036   6.395  73.004  1.00  0.00    -0.054 A  
HETATM   34  C   UNL     1      -6.325   5.221  73.686  1.00  0.00    -0.062 A  
HETATM   35  C   UNL     1      -7.592   4.651  73.623  1.00  0.00    -0.083 A  
HETATM   36  F   UNL     1      -5.367   4.626  74.409  1.00  0.00    -0.007 F  
HETATM   37  C   UNL     1      -8.589   5.259  72.857  1.00  0.00    -0.115 A  
ENDBRANCH  29  31
ENDBRANCH  24  27
ENDBRANCH  22  24
ENDBRANCH  17  20
ENDBRANCH  13  14
ENDBRANCH   8  13
BRANCH  10  38
HETATM   38  O   UNL     1      -9.457  12.156  69.949  1.00  0.00     1.813 OA 
HETATM   39  C   UNL     1      -8.494  11.152  70.252  1.00  0.00     2.362 C  
ENDBRANCH  10  38
ENDBRANCH   2   3
TORSDOF 8
ENDMDL
MODEL      166
REMARK 921   NORMALIZED FREE ENERGY PREDICTED BY IDOCK:   39.96 KCAL/MOL
REMARK 922        TOTAL FREE ENERGY PREDICTED BY IDOCK:   57.18 KCAL/MOL
REMARK 923 INTER-LIGAND FREE ENERGY PREDICTED BY IDOCK:   50.78 KCAL/MOL
REMARK 924 INTRA-LIGAND FREE ENERGY PREDICTED BY IDOCK:    6.40 KCAL/MOL
REMARK 927      BINDING AFFINITY PREDICTED BY RF-SCORE:    0.00 PKD
ROOT
HETATM    1  C   UNL     1      -7.585  17.267  70.784  1.00  0.00     4.368 C  
HETATM    2  O   UNL     1      -7.893  15.990  70.238  1.00  0.00     0.764 OA 
ENDROOT
BRANCH   2   3
HETATM    3  C   UNL     1      -7.322  15.668  69.034  1.00  0.00    -0.169 A  
HETATM    4  C   UNL     1      -6.688  16.611  68.215  1.00  0.00    -0.143 A  
HETATM    5  C   UNL     1      -6.158  16.290  66.976  1.00  0.00    -0.039 A  
HETATM    6  C   UNL     1      -6.207  14.956  66.539  1.00  0.00     2.836 A  
HETATM    7  C   UNL     1      -6.796  13.984  67.379  1.00  0.00    -0.025 A  
HETATM    8  C   UNL     1      -5.680  14.687  65.257  1.00  0.00    13.621 A  
HETATM    9  C   UNL     1      -5.133  15.714  64.492  1.00  0.00    11.679 A  
HETATM   10  C   UNL     1      -7.392  14.339  68.595  1.00  0.00    -0.125 A  
HETATM   11  N   UNL     1      -5.638  17.284  66.240  1.00  0.00    -0.299 NA 
HETATM   12  C   UNL     1      -5.149  16.986  65.021  1.00  0.00     2.167 A  
BRANCH   8  13
HETATM   13  O   UNL     1      -5.662  13.369  64.853  1.00  0.00    10.356 OA 
BRANCH  13  14
HETATM   14  C   UNL     1      -6.558  12.466  65.371  1.00  0.00     4.759 A  
HETATM   15  C   UNL     1      -6.258  11.127  65.135  1.00  0.00     0.545 A  
HETATM   16  C   UNL     1      -7.054  10.118  65.680  1.00  0.00    -0.133 A  
HETATM   17  C   UNL     1      -8.160  10.434  66.470  1.00  0.00    -0.122 A  
HETATM   18  C   UNL     1      -7.654  12.792  66.165  1.00  0.00     1.737 A  
HETATM   19  C   UNL     1      -8.469  11.780  66.691  1.00  0.00    -0.153 A  
BRANCH  17  20
HETATM   20  N   UNL     1      -8.984   9.457  67.071  1.00  0.00    -0.129 N  
HETATM   21  H   UNL     1      -9.972   9.464  66.818  1.00  0.00     0.000 HD 
HETATM   22  C   UNL     1      -8.575   8.495  67.969  1.00  0.00    -0.134 C  
HETATM   23  O   UNL     1      -7.466   8.345  68.454  1.00  0.00    -0.092 OA 
BRANCH  22  24
HETATM   24  C   UNL     1      -9.640   7.527  68.372  1.00  0.00    -0.152 C  
HETATM   25  C   UNL     1     -10.105   7.598  69.824  1.00  0.00    -0.196 C  
HETATM   26  C   UNL     1     -11.033   8.036  68.737  1.00  0.00     0.140 C  
BRANCH  24  27
HETATM   27  C   UNL     1      -9.537   6.207  67.683  1.00  0.00    -0.111 C  
HETATM   28  O   UNL     1     -10.377   5.350  67.923  1.00  0.00    -0.188 OA 
HETATM   29  N   UNL     1      -8.465   6.093  66.818  1.00  0.00    -0.110 N  
HETATM   30  H   UNL     1      -7.798   6.863  66.768  1.00  0.00     0.000 HD 
BRANCH  29  31
HETATM   31  C   UNL     1      -8.249   4.967  66.005  1.00  0.00    -0.112 A  
HETATM   32  C   UNL     1      -7.161   4.109  66.212  1.00  0.00    -0.067 A  
HETATM   33  C   UNL     1      -6.932   3.041  65.345  1.00  0.00    -0.053 A  
HETATM   34  C   UNL     1      -7.779   2.852  64.261  1.00  0.00    -0.077 A  
HETATM   35  C   UNL     1      -8.882   3.676  64.063  1.00  0.00    -0.103 A  
HETATM   36  F   UNL     1      -7.526   1.866  63.391  1.00  0.00    -0.047 F  
HETATM   37  C   UNL     1      -9.141   4.715  64.960  1.00  0.00    -0.156 A  
ENDBRANCH  29  31
ENDBRANCH  24  27
ENDBRANCH  22  24
ENDBRANCH  17  20
ENDBRANCH  13  14
ENDBRANCH   8  13
BRANCH  10  38
HETATM   38  O   UNL     1      -7.961  13.286  69.264  1.00  0.00     0.292 OA 
HETATM   39  C   UNL     1      -9.363  13.117  69.077  1.00  0.00     0.445 C  
ENDBRANCH  10  38
ENDBRANCH   2   3
TORSDOF 8
ENDMDL
MODEL      167
REMARK 921   NORMALIZED FREE ENERGY PREDICTED BY IDOCK:   40.89 KCAL/MOL
REMARK 922        TOTAL FREE ENERGY PREDICTED BY IDOCK:   58.55 KCAL/MOL
REMARK 923 INTER-LIGAND FREE ENERGY PREDICTED BY IDOCK:   52.70 KCAL/MOL
REMARK 924 INTRA-LIGAND FREE ENERGY PREDICTED BY IDOCK:    5.85 KCAL/MOL
REMARK 927      BINDING AFFINITY PREDICTED BY RF-SCORE:    0.00 PKD
ROOT
HETATM    1  C   UNL     1      -7.585  17.267  70.784  1.00  0.00     4.368 C  
HETATM    2  O   UNL     1      -7.866  15.985  70.234  1.00  0.00     0.764 OA 
ENDROOT
BRANCH   2   3
HETATM    3  C   UNL     1      -7.295  15.682  69.026  1.00  0.00    -0.169 A  
HETATM    4  C   UNL     1      -6.687  16.643  68.208  1.00  0.00    -0.143 A  
HETATM    5  C   UNL     1      -6.158  16.339  66.964  1.00  0.00    -0.039 A  
HETATM    6  C   UNL     1      -6.179  15.006  66.521  1.00  0.00     2.667 A  
HETATM    7  C   UNL     1      -6.740  14.018  67.361  1.00  0.00     0.014 A  
HETATM    8  C   UNL     1      -5.652  14.754  65.236  1.00  0.00    13.161 A  
HETATM    9  C   UNL     1      -5.134  15.797  64.471  1.00  0.00    10.769 A  
HETATM   10  C   UNL     1      -7.337  14.354  68.582  1.00  0.00    -0.123 A  
HETATM   11  N   UNL     1      -5.665  17.347  66.229  1.00  0.00    -0.211 NA 
HETATM   12  C   UNL     1      -5.176  17.066  65.006  1.00  0.00     2.311 A  
BRANCH   8  13
HETATM   13  O   UNL     1      -5.606  13.439  64.826  1.00  0.00    10.745 OA 
BRANCH  13  14
HETATM   14  C   UNL     1      -6.478  12.514  65.345  1.00  0.00     5.441 A  
HETATM   15  C   UNL     1      -6.148  11.183  65.101  1.00  0.00     0.511 A  
HETATM   16  C   UNL     1      -6.918  10.153  65.646  1.00  0.00    -0.125 A  
HETATM   17  C   UNL     1      -8.026  10.440  66.444  1.00  0.00    -0.130 A  
HETATM   18  C   UNL     1      -7.577  12.810  66.146  1.00  0.00     1.737 A  
HETATM   19  C   UNL     1      -8.365  11.778  66.673  1.00  0.00    -0.136 A  
BRANCH  17  20
HETATM   20  N   UNL     1      -8.824   9.442  67.046  1.00  0.00    -0.127 N  
HETATM   21  H   UNL     1      -8.835   8.525  66.599  1.00  0.00     0.000 HD 
HETATM   22  C   UNL     1      -9.591   9.595  68.181  1.00  0.00    -0.143 C  
HETATM   23  O   UNL     1      -9.773  10.611  68.832  1.00  0.00    -0.186 OA 
BRANCH  22  24
HETATM   24  C   UNL     1     -10.260   8.344  68.653  1.00  0.00    -0.220 C  
HETATM   25  C   UNL     1     -11.783   8.311  68.550  1.00  0.00     1.798 C  
HETATM   26  C   UNL     1     -10.970   7.436  67.651  1.00  0.00    -0.136 C  
BRANCH  24  27
HETATM   27  C   UNL     1      -9.573   7.703  69.813  1.00  0.00    -0.163 C  
HETATM   28  O   UNL     1      -9.854   6.546  70.098  1.00  0.00    -0.166 OA 
HETATM   29  N   UNL     1      -8.663   8.515  70.463  1.00  0.00    -0.143 N  
HETATM   30  H   UNL     1      -8.580   9.487  70.163  1.00  0.00     0.000 HD 
BRANCH  29  31
HETATM   31  C   UNL     1      -7.847   8.067  71.516  1.00  0.00    -0.100 A  
HETATM   32  C   UNL     1      -7.870   8.681  72.775  1.00  0.00     0.022 A  
HETATM   33  C   UNL     1      -6.998   8.261  73.778  1.00  0.00    -0.165 A  
HETATM   34  C   UNL     1      -6.089   7.246  73.508  1.00  0.00    -0.057 A  
HETATM   35  C   UNL     1      -6.079   6.606  72.274  1.00  0.00    -0.039 A  
HETATM   36  F   UNL     1      -5.208   6.883  74.449  1.00  0.00    -0.043 F  
HETATM   37  C   UNL     1      -6.987   6.991  71.284  1.00  0.00    -0.061 A  
ENDBRANCH  29  31
ENDBRANCH  24  27
ENDBRANCH  22  24
ENDBRANCH  17  20
ENDBRANCH  13  14
ENDBRANCH   8  13
BRANCH  10  38
HETATM   38  O   UNL     1      -7.878  13.285  69.249  1.00  0.00     0.248 OA 
HETATM   39  C   UNL     1      -7.016  12.635  70.179  1.00  0.00     0.968 C  
ENDBRANCH  10  38
ENDBRANCH   2   3
TORSDOF 8
ENDMDL
MODEL      168
REMARK 921   NORMALIZED FREE ENERGY PREDICTED BY IDOCK:   43.64 KCAL/MOL
REMARK 922        TOTAL FREE ENERGY PREDICTED BY IDOCK:   62.59 KCAL/MOL
REMARK 923 INTER-LIGAND FREE ENERGY PREDICTED BY IDOCK:   54.70 KCAL/MOL
REMARK 924 INTRA-LIGAND FREE ENERGY PREDICTED BY IDOCK:    7.88 KCAL/MOL
REMARK 927      BINDING AFFINITY PREDICTED BY RF-SCORE:    0.00 PKD
ROOT
HETATM    1  C   UNL     1     -13.629  13.872  69.189  1.00  0.00     4.128 C  
HETATM    2  O   UNL     1     -13.479  15.083  68.456  1.00  0.00     2.736 OA 
ENDROOT
BRANCH   2   3
HETATM    3  C   UNL     1     -12.475  15.132  67.525  1.00  0.00     0.868 A  
HETATM    4  C   UNL     1     -12.406  16.114  66.530  1.00  0.00     2.314 A  
HETATM    5  C   UNL     1     -11.417  16.128  65.560  1.00  0.00     0.359 A  
HETATM    6  C   UNL     1     -10.408  15.151  65.601  1.00  0.00    -0.379 A  
HETATM    7  C   UNL     1     -10.435  14.187  66.633  1.00  0.00    -0.278 A  
HETATM    8  C   UNL     1      -9.440  15.193  64.574  1.00  0.00     2.635 A  
HETATM    9  C   UNL     1      -9.504  16.173  63.587  1.00  0.00    10.382 A  
HETATM   10  C   UNL     1     -11.483  14.143  67.561  1.00  0.00    -0.340 A  
HETATM   11  N   UNL     1     -11.486  17.070  64.607  1.00  0.00    -0.696 NA 
HETATM   12  C   UNL     1     -10.546  17.073  63.642  1.00  0.00     6.060 A  
BRANCH   8  13
HETATM   13  O   UNL     1      -8.409  14.281  64.650  1.00  0.00     5.167 OA 
BRANCH  13  14
HETATM   14  C   UNL     1      -8.339  13.389  65.692  1.00  0.00     2.395 A  
HETATM   15  C   UNL     1      -7.937  13.929  66.912  1.00  0.00     0.190 A  
HETATM   16  C   UNL     1      -7.905  13.135  68.059  1.00  0.00    -0.147 A  
HETATM   17  C   UNL     1      -8.276  11.791  68.004  1.00  0.00    -0.152 A  
HETATM   18  C   UNL     1      -8.719  12.052  65.628  1.00  0.00     0.372 A  
HETATM   19  C   UNL     1      -8.662  11.247  66.774  1.00  0.00    -0.166 A  
BRANCH  17  20
HETATM   20  N   UNL     1      -8.290  10.946  69.136  1.00  0.00    -0.317 N  
HETATM   21  H   UNL     1      -7.497  10.316  69.255  1.00  0.00     0.000 HD 
HETATM   22  C   UNL     1      -9.279  10.896  70.094  1.00  0.00     1.381 C  
HETATM   23  O   UNL     1     -10.334  11.509  70.117  1.00  0.00     0.787 OA 
BRANCH  22  24
HETATM   24  C   UNL     1      -8.991   9.978  71.238  1.00  0.00     1.836 C  
HETATM   25  C   UNL     1      -7.710  10.251  72.021  1.00  0.00     4.162 C  
HETATM   26  C   UNL     1      -9.032  10.508  72.670  1.00  0.00    10.639 C  
BRANCH  24  27
HETATM   27  C   UNL     1      -9.439   8.573  71.001  1.00  0.00    -0.186 C  
HETATM   28  O   UNL     1      -9.475   8.154  69.851  1.00  0.00    -0.159 OA 
HETATM   29  N   UNL     1      -9.776   7.876  72.144  1.00  0.00    -0.184 N  
HETATM   30  H   UNL     1      -9.768   8.373  73.036  1.00  0.00     0.000 HD 
BRANCH  29  31
HETATM   31  C   UNL     1     -10.128   6.515  72.141  1.00  0.00    -0.179 A  
HETATM   32  C   UNL     1      -9.600   5.617  73.077  1.00  0.00    -0.159 A  
HETATM   33  C   UNL     1      -9.914   4.260  73.004  1.00  0.00    -0.196 A  
HETATM   34  C   UNL     1     -10.733   3.806  71.980  1.00  0.00     0.355 A  
HETATM   35  C   UNL     1     -11.291   4.692  71.064  1.00  0.00     1.785 A  
HETATM   36  F   UNL     1     -10.985   2.495  71.870  1.00  0.00     0.206 F  
HETATM   37  C   UNL     1     -11.019   6.058  71.166  1.00  0.00    -0.341 A  
ENDBRANCH  29  31
ENDBRANCH  24  27
ENDBRANCH  22  24
ENDBRANCH  17  20
ENDBRANCH  13  14
ENDBRANCH   8  13
BRANCH  10  38
HETATM   38  O   UNL     1     -11.384  13.116  68.464  1.00  0.00    -0.248 OA 
HETATM   39  C   UNL     1     -11.283  13.501  69.831  1.00  0.00     0.073 C  
ENDBRANCH  10  38
ENDBRANCH   2   3
TORSDOF 8
ENDMDL
MODEL      169
REMARK 921   NORMALIZED FREE ENERGY PREDICTED BY IDOCK:   44.24 KCAL/MOL
REMARK 922        TOTAL FREE ENERGY PREDICTED BY IDOCK:   63.46 KCAL/MOL
REMARK 923 INTER-LIGAND FREE ENERGY PREDICTED BY IDOCK:   63.57 KCAL/MOL
REMARK 924 INTRA-LIGAND FREE ENERGY PREDICTED BY IDOCK:   -0.11 KCAL/MOL
REMARK 927      BINDING AFFINITY PREDICTED BY RF-SCORE:    0.00 PKD
ROOT
HETATM    1  C   UNL     1      -8.770  12.993  66.436  1.00  0.00     0.184 C  
HETATM    2  O   UNL     1      -8.125  11.886  67.055  1.00  0.00    -0.161 OA 
ENDROOT
BRANCH   2   3
HETATM    3  C   UNL     1      -8.096  11.863  68.425  1.00  0.00    -0.155 A  
HETATM    4  C   UNL     1      -7.132  12.544  69.179  1.00  0.00     0.020 A  
HETATM    5  C   UNL     1      -7.077  12.474  70.561  1.00  0.00     2.299 A  
HETATM    6  C   UNL     1      -8.056  11.736  71.246  1.00  0.00     9.302 A  
HETATM    7  C   UNL     1      -9.066  11.089  70.501  1.00  0.00     3.000 A  
HETATM    8  C   UNL     1      -7.938  11.674  72.652  1.00  0.00    17.414 A  
HETATM    9  C   UNL     1      -6.896  12.332  73.300  1.00  0.00     7.957 A  
HETATM   10  C   UNL     1      -9.064  11.108  69.101  1.00  0.00     0.066 A  
HETATM   11  N   UNL     1      -6.067  13.106  71.181  1.00  0.00    -0.100 NA 
HETATM   12  C   UNL     1      -5.988  13.018  72.523  1.00  0.00     1.674 A  
BRANCH   8  13
HETATM   13  O   UNL     1      -8.935  11.010  73.334  1.00  0.00    13.861 OA 
BRANCH  13  14
HETATM   14  C   UNL     1      -9.109   9.657  73.175  1.00  0.00     4.675 A  
HETATM   15  C   UNL     1     -10.255   9.131  73.766  1.00  0.00     5.071 A  
HETATM   16  C   UNL     1     -10.578   7.782  73.605  1.00  0.00     0.090 A  
HETATM   17  C   UNL     1      -9.759   6.941  72.850  1.00  0.00    -0.160 A  
HETATM   18  C   UNL     1      -8.291   8.828  72.413  1.00  0.00     0.024 A  
HETATM   19  C   UNL     1      -8.599   7.469  72.272  1.00  0.00    -0.141 A  
BRANCH  17  20
HETATM   20  N   UNL     1     -10.049   5.577  72.628  1.00  0.00    -0.178 N  
HETATM   21  H   UNL     1     -10.973   5.352  72.260  1.00  0.00     0.000 HD 
HETATM   22  C   UNL     1      -9.196   4.520  72.864  1.00  0.00    -0.123 C  
HETATM   23  O   UNL     1      -8.080   4.553  73.356  1.00  0.00    -0.094 OA 
BRANCH  22  24
HETATM   24  C   UNL     1      -9.727   3.186  72.448  1.00  0.00    -0.215 C  
HETATM   25  C   UNL     1     -10.199   2.265  73.570  1.00  0.00    -0.185 C  
HETATM   26  C   UNL     1     -11.206   2.862  72.641  1.00  0.00     0.380 C  
BRANCH  24  27
HETATM   27  C   UNL     1      -9.037   2.618  71.253  1.00  0.00    -0.108 C  
HETATM   28  O   UNL     1      -9.342   1.493  70.876  1.00  0.00    -0.087 OA 
HETATM   29  N   UNL     1      -8.094   3.451  70.682  1.00  0.00    -0.052 N  
HETATM   30  H   UNL     1      -7.887   4.337  71.144  1.00  0.00     0.000 HD 
BRANCH  29  31
HETATM   31  C   UNL     1      -7.407   3.138  69.497  1.00  0.00    -0.045 A  
HETATM   32  C   UNL     1      -8.086   2.880  68.299  1.00  0.00    -0.070 A  
HETATM   33  C   UNL     1      -7.380   2.503  67.157  1.00  0.00    -0.057 A  
HETATM   34  C   UNL     1      -6.001   2.362  67.226  1.00  0.00    -0.020 A  
HETATM   35  C   UNL     1      -5.311   2.648  68.400  1.00  0.00    -0.013 A  
HETATM   36  F   UNL     1      -5.327   1.939  66.149  1.00  0.00    -0.004 F  
HETATM   37  C   UNL     1      -6.012   3.074  69.530  1.00  0.00    -0.024 A  
ENDBRANCH  29  31
ENDBRANCH  24  27
ENDBRANCH  22  24
ENDBRANCH  17  20
ENDBRANCH  13  14
ENDBRANCH   8  13
BRANCH  10  38
HETATM   38  O   UNL     1     -10.084  10.390  68.533  1.00  0.00    -0.159 OA 
HETATM   39  C   UNL     1     -11.181  11.153  68.042  1.00  0.00    -0.296 C  
ENDBRANCH  10  38
ENDBRANCH   2   3
TORSDOF 8
ENDMDL
MODEL      170
REMARK 921   NORMALIZED FREE ENERGY PREDICTED BY IDOCK:   99.85 KCAL/MOL
REMARK 922        TOTAL FREE ENERGY PREDICTED BY IDOCK:  145.07 KCAL/MOL
REMARK 923 INTER-LIGAND FREE ENERGY PREDICTED BY IDOCK:  140.09 KCAL/MOL
REMARK 924 INTRA-LIGAND FREE ENERGY PREDICTED BY IDOCK:    4.99 KCAL/MOL
REMARK 927      BINDING AFFINITY PREDICTED BY RF-SCORE:    0.00 PKD
ROOT
HETATM    1  C   UNL     1      -9.784  10.837  71.530  1.00  0.00     6.021 C  
HETATM    2  O   UNL     1     -10.700  11.926  71.541  1.00  0.00     4.675 OA 
ENDROOT
BRANCH   2   3
HETATM    3  C   UNL     1     -10.947  12.550  70.346  1.00  0.00     1.528 A  
HETATM    4  C   UNL     1     -10.486  13.839  70.049  1.00  0.00     0.917 A  
HETATM    5  C   UNL     1     -10.783  14.484  68.860  1.00  0.00    -0.254 A  
HETATM    6  C   UNL     1     -11.532  13.805  67.884  1.00  0.00    -0.347 A  
HETATM    7  C   UNL     1     -11.957  12.484  68.149  1.00  0.00    -0.274 A  
HETATM    8  C   UNL     1     -11.832  14.517  66.703  1.00  0.00    -0.366 A  
HETATM    9  C   UNL     1     -11.383  15.825  66.536  1.00  0.00     0.132 A  
HETATM   10  C   UNL     1     -11.712  11.874  69.386  1.00  0.00    -0.339 A  
HETATM   11  N   UNL     1     -10.354  15.746  68.706  1.00  0.00    -0.213 NA 
HETATM   12  C   UNL     1     -10.665  16.392  67.566  1.00  0.00    -0.298 A  
BRANCH   8  13
HETATM   13  O   UNL     1     -12.506  13.832  65.714  1.00  0.00    -0.455 OA 
BRANCH  13  14
HETATM   14  C   UNL     1     -12.771  12.491  65.849  1.00  0.00     0.705 A  
HETATM   15  C   UNL     1     -12.026  11.651  65.025  1.00  0.00     0.129 A  
HETATM   16  C   UNL     1     -12.154  10.264  65.129  1.00  0.00     5.214 A  
HETATM   17  C   UNL     1     -13.027   9.699  66.060  1.00  0.00    15.627 A  
HETATM   18  C   UNL     1     -13.639  11.937  66.786  1.00  0.00     9.339 A  
HETATM   19  C   UNL     1     -13.787  10.546  66.874  1.00  0.00    18.807 A  
BRANCH  17  20
HETATM   20  N   UNL     1     -13.177   8.305  66.231  1.00  0.00    16.462 N  
HETATM   21  H   UNL     1     -13.956   7.990  66.809  1.00  0.00     0.000 HD 
HETATM   22  C   UNL     1     -12.366   7.332  65.689  1.00  0.00    10.621 C  
HETATM   23  O   UNL     1     -11.352   7.484  65.026  1.00  0.00     8.012 OA 
BRANCH  22  24
HETATM   24  C   UNL     1     -12.813   5.930  65.953  1.00  0.00     7.208 C  
HETATM   25  C   UNL     1     -14.238   5.760  66.472  1.00  0.00    19.669 C  
HETATM   26  C   UNL     1     -13.904   5.304  65.088  1.00  0.00    10.304 C  
BRANCH  24  27
HETATM   27  C   UNL     1     -11.722   5.042  66.454  1.00  0.00     2.737 C  
HETATM   28  O   UNL     1     -11.875   4.471  67.526  1.00  0.00     5.475 OA 
HETATM   29  N   UNL     1     -10.621   4.960  65.625  1.00  0.00    -0.509 N  
HETATM   30  H   UNL     1     -10.596   5.549  64.792  1.00  0.00     0.000 HD 
BRANCH  29  31
HETATM   31  C   UNL     1      -9.533   4.105  65.872  1.00  0.00    -0.178 A  
HETATM   32  C   UNL     1      -9.458   3.329  67.036  1.00  0.00    -0.161 A  
HETATM   33  C   UNL     1      -8.332   2.545  67.286  1.00  0.00    -0.094 A  
HETATM   34  C   UNL     1      -7.277   2.562  66.384  1.00  0.00    -0.065 A  
HETATM   35  C   UNL     1      -7.353   3.301  65.209  1.00  0.00    -0.071 A  
HETATM   36  F   UNL     1      -6.169   1.859  66.653  1.00  0.00    -0.021 F  
HETATM   37  C   UNL     1      -8.501   4.048  64.932  1.00  0.00    -0.113 A  
ENDBRANCH  29  31
ENDBRANCH  24  27
ENDBRANCH  22  24
ENDBRANCH  17  20
ENDBRANCH  13  14
ENDBRANCH   8  13
BRANCH  10  38
HETATM   38  O   UNL     1     -12.235  10.612  69.497  1.00  0.00    -0.271 OA 
HETATM   39  C   UNL     1     -13.422  10.499  70.274  1.00  0.00     0.535 C  
ENDBRANCH  10  38
ENDBRANCH   2   3
TORSDOF 8
ENDMDL
