MODEL        1
REMARK 921   NORMALIZED FREE ENERGY PREDICTED BY IDOCK:   -8.34 KCAL/MOL
REMARK 922        TOTAL FREE ENERGY PREDICTED BY IDOCK:  -11.09 KCAL/MOL
REMARK 923 INTER-LIGAND FREE ENERGY PREDICTED BY IDOCK:   -9.81 KCAL/MOL
REMARK 924 INTRA-LIGAND FREE ENERGY PREDICTED BY IDOCK:   -1.28 KCAL/MOL
REMARK 927      BINDING AFFINITY PREDICTED BY RF-SCORE:    0.00 PKD
ROOT
HETATM    1  O   UNL     1     -14.250   9.705  72.880  1.00  0.00    -0.764 OA 
HETATM    2  C   UNL     1     -13.592   9.203  71.720  1.00  0.00    -0.415 C  
HETATM    3  H   UNL     1     -14.971  10.248  72.584  1.00  0.00     0.000 HD 
ENDROOT
BRANCH   2   4
HETATM    4  C   UNL     1     -13.232  10.374  70.839  1.00  0.00    -0.321 C  
HETATM    5  C   UNL     1     -11.807  10.855  70.729  1.00  0.00    -0.424 C  
HETATM    6  C   UNL     1     -12.821  11.684  71.464  1.00  0.00    -0.469 C  
ENDBRANCH   2   4
BRANCH   2   7
HETATM    7  C   UNL     1     -12.457   8.348  72.186  1.00  0.00    -0.422 C  
HETATM    8  C   UNL     1     -12.090   7.161  71.670  1.00  0.00    -0.371 C  
HETATM    9  C   UNL     1     -10.915   6.340  72.144  1.00  0.00    -0.298 C  
HETATM   10  C   UNL     1     -11.476   5.023  72.723  1.00  0.00    -0.243 C  
HETATM   11  C   UNL     1      -9.807   6.107  71.052  1.00  0.00    -0.213 C  
HETATM   12  C   UNL     1     -10.360   5.271  69.883  1.00  0.00    -0.374 C  
HETATM   13  C   UNL     1     -10.560   6.202  68.707  1.00  0.00    -0.330 C  
HETATM   14  C   UNL     1     -10.049   7.593  69.102  1.00  0.00    -0.194 C  
HETATM   15  C   UNL     1      -9.459   8.298  67.884  1.00  0.00    -0.163 C  
HETATM   16  C   UNL     1      -8.140   8.992  68.097  1.00  0.00    -0.105 C  
HETATM   17  C   UNL     1     -10.129   8.303  66.707  1.00  0.00    -0.373 C  
HETATM   18  C   UNL     1      -7.132   8.196  68.938  1.00  0.00    -0.066 C  
HETATM   19  C   UNL     1      -9.030   8.594  71.294  1.00  0.00    -0.268 C  
HETATM   20  C   UNL     1      -9.142   7.371  70.352  1.00  0.00    -0.157 C  
HETATM   21  C   UNL     1      -7.702   7.088  69.845  1.00  0.00    -0.108 C  
BRANCH  17  22
HETATM   22  C   UNL     1      -9.892   9.234  65.627  1.00  0.00    -0.237 C  
HETATM   23  C   UNL     1     -10.109  10.561  65.545  1.00  0.00    -0.349 C  
HETATM   24  C   UNL     1      -9.554  11.293  64.333  1.00  0.00    -0.257 C  
HETATM   25  C   UNL     1     -10.626  12.093  63.597  1.00  0.00    -0.461 C  
HETATM   26  C   UNL     1     -11.333  13.052  64.553  1.00  0.00    -0.377 C  
HETATM   27  O   UNL     1     -11.569  11.231  62.969  1.00  0.00    -0.857 OA 
HETATM   28  C   UNL     1     -11.910  12.311  65.762  1.00  0.00    -0.352 C  
HETATM   29  H   UNL     1     -12.236  11.729  62.510  1.00  0.00     0.000 HD 
HETATM   30  O   UNL     1     -12.458  13.289  66.653  1.00  0.00    -0.278 OA 
HETATM   31  C   UNL     1     -10.864  11.434  66.456  1.00  0.00    -0.334 C  
HETATM   32  C   UNL     1     -10.608  11.510  67.774  1.00  0.00    -0.227 C  
HETATM   33  H   UNL     1     -12.816  12.829  67.404  1.00  0.00     0.000 HD 
ENDBRANCH  17  22
ENDBRANCH   2   7
TORSDOF 3
ENDMDL
MODEL        2
REMARK 921   NORMALIZED FREE ENERGY PREDICTED BY IDOCK:   -8.10 KCAL/MOL
REMARK 922        TOTAL FREE ENERGY PREDICTED BY IDOCK:  -10.81 KCAL/MOL
REMARK 923 INTER-LIGAND FREE ENERGY PREDICTED BY IDOCK:   -9.65 KCAL/MOL
REMARK 924 INTRA-LIGAND FREE ENERGY PREDICTED BY IDOCK:   -1.16 KCAL/MOL
REMARK 927      BINDING AFFINITY PREDICTED BY RF-SCORE:    0.00 PKD
ROOT
HETATM    1  O   UNL     1     -11.859  16.578  72.030  1.00  0.00    -0.640 OA 
HETATM    2  C   UNL     1     -11.925  15.405  71.223  1.00  0.00    -0.374 C  
HETATM    3  H   UNL     1     -12.145  16.337  72.903  1.00  0.00     0.000 HD 
ENDROOT
BRANCH   2   4
HETATM    4  C   UNL     1     -13.316  14.832  71.339  1.00  0.00    -0.464 C  
HETATM    5  C   UNL     1     -14.241  15.257  72.452  1.00  0.00    -0.579 C  
HETATM    6  C   UNL     1     -13.643  13.879  72.463  1.00  0.00    -0.680 C  
ENDBRANCH   2   4
BRANCH   2   7
HETATM    7  C   UNL     1     -11.475  15.785  69.848  1.00  0.00    -0.347 C  
HETATM    8  C   UNL     1     -10.233  15.644  69.351  1.00  0.00    -0.261 C  
HETATM    9  C   UNL     1      -9.821  16.007  67.944  1.00  0.00    -0.226 C  
HETATM   10  C   UNL     1      -8.799  17.159  68.044  1.00  0.00    -0.229 C  
HETATM   11  C   UNL     1      -9.295  14.793  67.093  1.00  0.00    -0.233 C  
HETATM   12  C   UNL     1      -7.997  14.225  67.694  1.00  0.00    -0.191 C  
HETATM   13  C   UNL     1      -8.336  12.911  68.364  1.00  0.00    -0.116 C  
HETATM   14  C   UNL     1      -9.817  12.608  68.104  1.00  0.00    -0.226 C  
HETATM   15  C   UNL     1     -10.027  11.101  67.984  1.00  0.00    -0.190 C  
HETATM   16  C   UNL     1     -10.898  10.645  66.843  1.00  0.00    -0.267 C  
HETATM   17  C   UNL     1      -9.473  10.261  68.889  1.00  0.00    -0.190 C  
HETATM   18  C   UNL     1     -10.639  11.373  65.516  1.00  0.00    -0.328 C  
HETATM   19  C   UNL     1     -11.737  13.880  66.863  1.00  0.00    -0.425 C  
HETATM   20  C   UNL     1     -10.232  13.521  66.909  1.00  0.00    -0.256 C  
HETATM   21  C   UNL     1      -9.939  12.743  65.597  1.00  0.00    -0.249 C  
BRANCH  17  22
HETATM   22  C   UNL     1      -9.904   8.900  69.123  1.00  0.00    -0.180 C  
HETATM   23  C   UNL     1     -10.911   8.412  69.873  1.00  0.00    -0.207 C  
HETATM   24  C   UNL     1     -11.233   6.931  69.743  1.00  0.00    -0.315 C  
HETATM   25  C   UNL     1     -11.227   6.216  71.092  1.00  0.00    -0.292 C  
HETATM   26  C   UNL     1     -12.171   6.909  72.073  1.00  0.00    -0.318 C  
HETATM   27  O   UNL     1      -9.911   6.147  71.630  1.00  0.00    -0.176 OA 
HETATM   28  C   UNL     1     -11.832   8.395  72.219  1.00  0.00    -0.389 C  
HETATM   29  H   UNL     1      -9.907   5.702  72.470  1.00  0.00     0.000 HD 
HETATM   30  O   UNL     1     -12.822   8.987  73.067  1.00  0.00    -0.549 OA 
HETATM   31  C   UNL     1     -11.747   9.105  70.864  1.00  0.00    -0.341 C  
HETATM   32  C   UNL     1     -12.436  10.224  70.584  1.00  0.00    -0.407 C  
HETATM   33  H   UNL     1     -12.611   9.909  73.158  1.00  0.00     0.000 HD 
ENDBRANCH  17  22
ENDBRANCH   2   7
TORSDOF 3
ENDMDL
MODEL        3
REMARK 921   NORMALIZED FREE ENERGY PREDICTED BY IDOCK:   -7.55 KCAL/MOL
REMARK 922        TOTAL FREE ENERGY PREDICTED BY IDOCK:  -10.15 KCAL/MOL
REMARK 923 INTER-LIGAND FREE ENERGY PREDICTED BY IDOCK:   -9.19 KCAL/MOL
REMARK 924 INTRA-LIGAND FREE ENERGY PREDICTED BY IDOCK:   -0.96 KCAL/MOL
REMARK 927      BINDING AFFINITY PREDICTED BY RF-SCORE:    0.00 PKD
ROOT
HETATM    1  O   UNL     1     -11.937  13.270  70.721  1.00  0.00    -0.501 OA 
HETATM    2  C   UNL     1     -12.342  14.604  71.016  1.00  0.00    -0.333 C  
HETATM    3  H   UNL     1     -12.143  12.737  71.479  1.00  0.00     0.000 HD 
ENDROOT
BRANCH   2   4
HETATM    4  C   UNL     1     -11.700  15.013  72.319  1.00  0.00    -0.423 C  
HETATM    5  C   UNL     1     -12.513  15.127  73.583  1.00  0.00    -0.692 C  
HETATM    6  C   UNL     1     -12.001  16.369  72.910  1.00  0.00    -0.569 C  
ENDBRANCH   2   4
BRANCH   2   7
HETATM    7  C   UNL     1     -12.016  15.443  69.821  1.00  0.00    -0.381 C  
HETATM    8  C   UNL     1     -10.804  15.585  69.255  1.00  0.00    -0.252 C  
HETATM    9  C   UNL     1     -10.517  16.414  68.026  1.00  0.00    -0.303 C  
HETATM   10  C   UNL     1      -9.579  17.564  68.454  1.00  0.00    -0.303 C  
HETATM   11  C   UNL     1      -9.962  15.590  66.807  1.00  0.00    -0.257 C  
HETATM   12  C   UNL     1      -8.587  14.983  67.139  1.00  0.00    -0.246 C  
HETATM   13  C   UNL     1      -8.781  13.498  67.359  1.00  0.00    -0.220 C  
HETATM   14  C   UNL     1     -10.250  13.158  67.075  1.00  0.00    -0.250 C  
HETATM   15  C   UNL     1     -10.355  11.757  66.482  1.00  0.00    -0.258 C  
HETATM   16  C   UNL     1     -11.265  11.610  65.291  1.00  0.00    -0.263 C  
HETATM   17  C   UNL     1      -9.679  10.726  67.042  1.00  0.00    -0.205 C  
HETATM   18  C   UNL     1     -11.152  12.745  64.263  1.00  0.00    -0.410 C  
HETATM   19  C   UNL     1     -12.339  14.577  66.393  1.00  0.00    -0.198 C  
HETATM   20  C   UNL     1     -10.812  14.363  66.259  1.00  0.00    -0.313 C  
HETATM   21  C   UNL     1     -10.552  14.076  64.755  1.00  0.00    -0.441 C  
BRANCH  17  22
HETATM   22  C   UNL     1      -9.990   9.329  66.839  1.00  0.00    -0.298 C  
HETATM   23  C   UNL     1     -10.468   8.400  67.691  1.00  0.00    -0.307 C  
HETATM   24  C   UNL     1     -10.887   7.058  67.109  1.00  0.00    -0.427 C  
HETATM   25  C   UNL     1     -10.201   5.885  67.804  1.00  0.00    -0.182 C  
HETATM   26  C   UNL     1     -10.440   5.939  69.312  1.00  0.00    -0.342 C  
HETATM   27  O   UNL     1      -8.807   5.864  67.521  1.00  0.00    -0.109 OA 
HETATM   28  C   UNL     1      -9.998   7.282  69.900  1.00  0.00    -0.183 C  
HETATM   29  H   UNL     1      -8.380   5.134  67.954  1.00  0.00     0.000 HD 
HETATM   30  O   UNL     1     -10.352   7.289  71.287  1.00  0.00    -0.195 OA 
HETATM   31  C   UNL     1     -10.610   8.470  69.152  1.00  0.00    -0.188 C  
HETATM   32  C   UNL     1     -11.282   9.454  69.774  1.00  0.00    -0.139 C  
HETATM   33  H   UNL     1     -10.077   8.122  71.652  1.00  0.00     0.000 HD 
ENDBRANCH  17  22
ENDBRANCH   2   7
TORSDOF 3
ENDMDL
MODEL        4
REMARK 921   NORMALIZED FREE ENERGY PREDICTED BY IDOCK:   -7.51 KCAL/MOL
REMARK 922        TOTAL FREE ENERGY PREDICTED BY IDOCK:  -10.10 KCAL/MOL
REMARK 923 INTER-LIGAND FREE ENERGY PREDICTED BY IDOCK:   -8.68 KCAL/MOL
REMARK 924 INTRA-LIGAND FREE ENERGY PREDICTED BY IDOCK:   -1.42 KCAL/MOL
REMARK 927      BINDING AFFINITY PREDICTED BY RF-SCORE:    0.00 PKD
ROOT
HETATM    1  O   UNL     1     -12.593   6.262  72.383  1.00  0.00    -0.549 OA 
HETATM    2  C   UNL     1     -12.415   7.181  71.309  1.00  0.00    -0.386 C  
HETATM    3  H   UNL     1     -13.338   6.560  72.891  1.00  0.00     0.000 HD 
ENDROOT
BRANCH   2   4
HETATM    4  C   UNL     1     -12.318   8.570  71.891  1.00  0.00    -0.407 C  
HETATM    5  C   UNL     1     -12.451   9.791  71.015  1.00  0.00    -0.414 C  
HETATM    6  C   UNL     1     -11.112   9.427  71.592  1.00  0.00    -0.409 C  
ENDBRANCH   2   4
BRANCH   2   7
HETATM    7  C   UNL     1     -11.241   6.712  70.510  1.00  0.00    -0.388 C  
HETATM    8  C   UNL     1     -11.117   6.763  69.172  1.00  0.00    -0.270 C  
HETATM    9  C   UNL     1      -9.901   6.311  68.399  1.00  0.00    -0.141 C  
HETATM   10  C   UNL     1     -10.329   5.114  67.523  1.00  0.00    -0.190 C  
HETATM   11  C   UNL     1      -9.198   7.453  67.577  1.00  0.00    -0.140 C  
HETATM   12  C   UNL     1     -10.128   7.983  66.471  1.00  0.00    -0.270 C  
HETATM   13  C   UNL     1     -10.628   9.344  66.904  1.00  0.00    -0.238 C  
HETATM   14  C   UNL     1      -9.943   9.709  68.227  1.00  0.00    -0.178 C  
HETATM   15  C   UNL     1      -9.718  11.216  68.299  1.00  0.00    -0.190 C  
HETATM   16  C   UNL     1      -8.361  11.660  68.777  1.00  0.00    -0.040 C  
HETATM   17  C   UNL     1     -10.716  12.072  67.974  1.00  0.00    -0.244 C  
HETATM   18  C   UNL     1      -7.189  10.854  68.197  1.00  0.00    -0.083 C  
HETATM   19  C   UNL     1      -8.246   8.476  69.789  1.00  0.00    -0.121 C  
HETATM   20  C   UNL     1      -8.711   8.761  68.341  1.00  0.00    -0.135 C  
HETATM   21  C   UNL     1      -7.513   9.456  67.637  1.00  0.00    -0.087 C  
BRANCH  17  22
HETATM   22  C   UNL     1     -10.771  13.462  68.367  1.00  0.00    -0.271 C  
HETATM   23  C   UNL     1     -11.128  14.560  67.671  1.00  0.00    -0.314 C  
HETATM   24  C   UNL     1     -11.278  15.864  68.440  1.00  0.00    -0.368 C  
HETATM   25  C   UNL     1     -10.440  16.990  67.841  1.00  0.00    -0.354 C  
HETATM   26  C   UNL     1     -10.767  17.174  66.360  1.00  0.00    -0.072 C  
HETATM   27  O   UNL     1      -9.050  16.746  68.017  1.00  0.00    -0.220 OA 
HETATM   28  C   UNL     1     -10.595  15.866  65.583  1.00  0.00    -0.378 C  
HETATM   29  H   UNL     1      -8.528  17.447  67.644  1.00  0.00     0.000 HD 
HETATM   30  O   UNL     1     -11.020  16.099  64.236  1.00  0.00    -1.016 OA 
HETATM   31  C   UNL     1     -11.360  14.706  66.227  1.00  0.00    -0.347 C  
HETATM   32  C   UNL     1     -12.225  13.936  65.545  1.00  0.00    -0.467 C  
HETATM   33  H   UNL     1     -10.913  15.287  63.754  1.00  0.00     0.000 HD 
ENDBRANCH  17  22
ENDBRANCH   2   7
TORSDOF 3
ENDMDL
MODEL        5
REMARK 921   NORMALIZED FREE ENERGY PREDICTED BY IDOCK:   -7.50 KCAL/MOL
REMARK 922        TOTAL FREE ENERGY PREDICTED BY IDOCK:  -10.10 KCAL/MOL
REMARK 923 INTER-LIGAND FREE ENERGY PREDICTED BY IDOCK:   -8.71 KCAL/MOL
REMARK 924 INTRA-LIGAND FREE ENERGY PREDICTED BY IDOCK:   -1.38 KCAL/MOL
REMARK 927      BINDING AFFINITY PREDICTED BY RF-SCORE:    0.00 PKD
ROOT
HETATM    1  O   UNL     1     -10.037  10.094  62.373  1.00  0.00    -0.659 OA 
HETATM    2  C   UNL     1      -9.647  10.966  63.431  1.00  0.00    -0.332 C  
HETATM    3  H   UNL     1      -9.994  10.592  61.565  1.00  0.00     0.000 HD 
ENDROOT
BRANCH   2   4
HETATM    4  C   UNL     1     -10.505  12.204  63.360  1.00  0.00    -0.450 C  
HETATM    5  C   UNL     1     -10.489  13.226  64.468  1.00  0.00    -0.434 C  
HETATM    6  C   UNL     1     -11.693  12.348  64.280  1.00  0.00    -0.452 C  
ENDBRANCH   2   4
BRANCH   2   7
HETATM    7  C   UNL     1      -9.714  10.181  64.702  1.00  0.00    -0.377 C  
HETATM    8  C   UNL     1      -8.859  10.268  65.737  1.00  0.00    -0.179 C  
HETATM    9  C   UNL     1      -8.978   9.485  67.023  1.00  0.00    -0.150 C  
HETATM   10  C   UNL     1      -7.750   8.552  67.110  1.00  0.00    -0.097 C  
HETATM   11  C   UNL     1      -9.165  10.375  68.306  1.00  0.00    -0.149 C  
HETATM   12  C   UNL     1      -7.921  11.249  68.551  1.00  0.00    -0.145 C  
HETATM   13  C   UNL     1      -8.276  12.670  68.173  1.00  0.00    -0.170 C  
HETATM   14  C   UNL     1      -9.759  12.708  67.783  1.00  0.00    -0.206 C  
HETATM   15  C   UNL     1     -10.369  14.048  68.184  1.00  0.00    -0.241 C  
HETATM   16  C   UNL     1     -11.711  13.986  68.863  1.00  0.00    -0.375 C  
HETATM   17  C   UNL     1      -9.725  15.204  67.897  1.00  0.00    -0.208 C  
HETATM   18  C   UNL     1     -11.841  12.874  69.913  1.00  0.00    -0.373 C  
HETATM   19  C   UNL     1     -11.632  10.891  67.604  1.00  0.00    -0.171 C  
HETATM   20  C   UNL     1     -10.381  11.399  68.360  1.00  0.00    -0.209 C  
HETATM   21  C   UNL     1     -10.850  11.698  69.810  1.00  0.00     0.111 C  
BRANCH  17  22
HETATM   22  C   UNL     1     -10.348  16.508  67.858  1.00  0.00    -0.294 C  
HETATM   23  C   UNL     1      -9.887  17.691  67.408  1.00  0.00    -0.305 C  
HETATM   24  C   UNL     1     -10.875  18.844  67.315  1.00  0.00    -0.448 C  
HETATM   25  C   UNL     1     -10.390  20.084  68.063  1.00  0.00    -0.361 C  
HETATM   26  C   UNL     1      -9.002  20.497  67.576  1.00  0.00    -0.379 C  
HETATM   27  O   UNL     1     -10.380  19.865  69.469  1.00  0.00    -0.631 OA 
HETATM   28  C   UNL     1      -8.004  19.342  67.690  1.00  0.00    -0.283 C  
HETATM   29  H   UNL     1     -10.079  20.637  69.934  1.00  0.00     0.000 HD 
HETATM   30  O   UNL     1      -6.765  19.778  67.119  1.00  0.00    -0.204 OA 
HETATM   31  C   UNL     1      -8.519  18.065  67.020  1.00  0.00    -0.247 C  
HETATM   32  C   UNL     1      -7.808  17.386  66.103  1.00  0.00    -0.293 C  
HETATM   33  H   UNL     1      -6.145  19.061  67.190  1.00  0.00     0.000 HD 
ENDBRANCH  17  22
ENDBRANCH   2   7
TORSDOF 3
ENDMDL
MODEL        6
REMARK 921   NORMALIZED FREE ENERGY PREDICTED BY IDOCK:   -7.44 KCAL/MOL
REMARK 922        TOTAL FREE ENERGY PREDICTED BY IDOCK:  -10.02 KCAL/MOL
REMARK 923 INTER-LIGAND FREE ENERGY PREDICTED BY IDOCK:   -8.77 KCAL/MOL
REMARK 924 INTRA-LIGAND FREE ENERGY PREDICTED BY IDOCK:   -1.25 KCAL/MOL
REMARK 927      BINDING AFFINITY PREDICTED BY RF-SCORE:    0.00 PKD
ROOT
HETATM    1  O   UNL     1     -12.537   8.339  72.977  1.00  0.00    -0.680 OA 
HETATM    2  C   UNL     1     -12.112   8.524  71.630  1.00  0.00    -0.321 C  
HETATM    3  H   UNL     1     -13.285   8.907  73.119  1.00  0.00     0.000 HD 
ENDROOT
BRANCH   2   4
HETATM    4  C   UNL     1     -11.886   9.999  71.406  1.00  0.00    -0.447 C  
HETATM    5  C   UNL     1     -12.979  11.002  71.676  1.00  0.00    -0.561 C  
HETATM    6  C   UNL     1     -12.576  10.699  70.261  1.00  0.00    -0.333 C  
ENDBRANCH   2   4
BRANCH   2   7
HETATM    7  C   UNL     1     -10.935   7.629  71.407  1.00  0.00    -0.257 C  
HETATM    8  C   UNL     1     -10.791   6.737  70.410  1.00  0.00    -0.306 C  
HETATM    9  C   UNL     1      -9.571   5.874  70.195  1.00  0.00    -0.198 C  
HETATM   10  C   UNL     1     -10.006   4.404  70.385  1.00  0.00    -0.253 C  
HETATM   11  C   UNL     1      -8.836   6.124  68.827  1.00  0.00    -0.121 C  
HETATM   12  C   UNL     1      -9.741   5.740  67.642  1.00  0.00    -0.127 C  
HETATM   13  C   UNL     1     -10.224   7.021  66.998  1.00  0.00    -0.330 C  
HETATM   14  C   UNL     1      -9.553   8.201  67.713  1.00  0.00    -0.180 C  
HETATM   15  C   UNL     1      -9.303   9.336  66.724  1.00  0.00    -0.202 C  
HETATM   16  C   UNL     1      -7.946   9.984  66.791  1.00  0.00    -0.114 C  
HETATM   17  C   UNL     1     -10.282   9.728  65.874  1.00  0.00    -0.245 C  
HETATM   18  C   UNL     1      -6.780   9.000  66.959  1.00  0.00    -0.069 C  
HETATM   19  C   UNL     1      -7.900   8.394  69.731  1.00  0.00    -0.099 C  
HETATM   20  C   UNL     1      -8.338   7.595  68.481  1.00  0.00    -0.129 C  
HETATM   21  C   UNL     1      -7.119   7.605  67.518  1.00  0.00    -0.086 C  
BRANCH  17  22
HETATM   22  C   UNL     1     -10.319  11.002  65.191  1.00  0.00    -0.346 C  
HETATM   23  C   UNL     1     -10.511  12.249  65.664  1.00  0.00    -0.293 C  
HETATM   24  C   UNL     1     -10.284  13.409  64.705  1.00  0.00    -0.339 C  
HETATM   25  C   UNL     1     -11.492  14.339  64.625  1.00  0.00    -0.385 C  
HETATM   26  C   UNL     1     -11.885  14.833  66.016  1.00  0.00    -0.201 C  
HETATM   27  O   UNL     1     -12.594  13.696  63.995  1.00  0.00    -0.672 OA 
HETATM   28  C   UNL     1     -12.134  13.664  66.974  1.00  0.00    -0.380 C  
HETATM   29  H   UNL     1     -13.346  14.275  63.944  1.00  0.00     0.000 HD 
HETATM   30  O   UNL     1     -12.391  14.211  68.272  1.00  0.00    -0.574 OA 
HETATM   31  C   UNL     1     -10.965  12.675  66.995  1.00  0.00    -0.300 C  
HETATM   32  C   UNL     1     -10.360  12.288  68.131  1.00  0.00    -0.221 C  
HETATM   33  H   UNL     1     -12.546  13.485  68.866  1.00  0.00     0.000 HD 
ENDBRANCH  17  22
ENDBRANCH   2   7
TORSDOF 3
ENDMDL
MODEL        7
REMARK 921   NORMALIZED FREE ENERGY PREDICTED BY IDOCK:   -7.36 KCAL/MOL
REMARK 922        TOTAL FREE ENERGY PREDICTED BY IDOCK:   -9.93 KCAL/MOL
REMARK 923 INTER-LIGAND FREE ENERGY PREDICTED BY IDOCK:   -8.44 KCAL/MOL
REMARK 924 INTRA-LIGAND FREE ENERGY PREDICTED BY IDOCK:   -1.49 KCAL/MOL
REMARK 927      BINDING AFFINITY PREDICTED BY RF-SCORE:    0.00 PKD
ROOT
HETATM    1  O   UNL     1     -12.486  14.871  63.388  1.00  0.00    -0.856 OA 
HETATM    2  C   UNL     1     -12.304  13.761  64.262  1.00  0.00    -0.337 C  
HETATM    3  H   UNL     1     -13.018  14.574  62.659  1.00  0.00     0.000 HD 
ENDROOT
BRANCH   2   4
HETATM    4  C   UNL     1     -11.753  12.612  63.455  1.00  0.00    -0.604 C  
HETATM    5  C   UNL     1     -11.266  11.352  64.127  1.00  0.00    -0.327 C  
HETATM    6  C   UNL     1     -10.278  12.298  63.506  1.00  0.00    -0.410 C  
ENDBRANCH   2   4
BRANCH   2   7
HETATM    7  C   UNL     1     -11.468  14.230  65.410  1.00  0.00    -0.332 C  
HETATM    8  C   UNL     1     -11.704  13.998  66.714  1.00  0.00    -0.430 C  
HETATM    9  C   UNL     1     -10.817  14.458  67.846  1.00  0.00    -0.256 C  
HETATM   10  C   UNL     1     -11.629  15.464  68.690  1.00  0.00    -0.373 C  
HETATM   11  C   UNL     1     -10.207  13.289  68.704  1.00  0.00    -0.178 C  
HETATM   12  C   UNL     1     -11.317  12.510  69.433  1.00  0.00    -0.275 C  
HETATM   13  C   UNL     1     -11.485  11.181  68.729  1.00  0.00    -0.366 C  
HETATM   14  C   UNL     1     -10.425  11.085  67.624  1.00  0.00    -0.239 C  
HETATM   15  C   UNL     1      -9.979   9.636  67.455  1.00  0.00    -0.237 C  
HETATM   16  C   UNL     1      -8.495   9.411  67.338  1.00  0.00    -0.125 C  
HETATM   17  C   UNL     1     -10.897   8.643  67.385  1.00  0.00    -0.083 C  
HETATM   18  C   UNL     1      -7.648  10.241  68.313  1.00  0.00    -0.091 C  
HETATM   19  C   UNL     1      -8.560  12.702  66.757  1.00  0.00    -0.101 C  
HETATM   20  C   UNL     1      -9.353  12.163  67.972  1.00  0.00    -0.197 C  
HETATM   21  C   UNL     1      -8.305  11.502  68.908  1.00  0.00    -0.005 C  
BRANCH  17  22
HETATM   22  C   UNL     1     -10.648   7.326  66.843  1.00  0.00    -0.375 C  
HETATM   23  C   UNL     1     -10.598   6.121  67.444  1.00  0.00    -0.352 C  
HETATM   24  C   UNL     1     -10.519   4.891  66.553  1.00  0.00    -0.299 C  
HETATM   25  C   UNL     1      -9.336   3.993  66.908  1.00  0.00    -0.182 C  
HETATM   26  C   UNL     1      -9.376   3.610  68.386  1.00  0.00    -0.225 C  
HETATM   27  O   UNL     1      -8.100   4.621  66.590  1.00  0.00    -0.102 OA 
HETATM   28  C   UNL     1      -9.435   4.849  69.283  1.00  0.00    -0.142 C  
HETATM   29  H   UNL     1      -7.364   4.062  66.810  1.00  0.00     0.000 HD 
HETATM   30  O   UNL     1      -9.576   4.404  70.636  1.00  0.00    -0.159 OA 
HETATM   31  C   UNL     1     -10.563   5.803  68.879  1.00  0.00    -0.337 C  
HETATM   32  C   UNL     1     -11.484   6.252  69.749  1.00  0.00    -0.449 C  
HETATM   33  H   UNL     1      -9.612   5.173  71.192  1.00  0.00     0.000 HD 
ENDBRANCH  17  22
ENDBRANCH   2   7
TORSDOF 3
ENDMDL
MODEL        8
REMARK 921   NORMALIZED FREE ENERGY PREDICTED BY IDOCK:   -7.35 KCAL/MOL
REMARK 922        TOTAL FREE ENERGY PREDICTED BY IDOCK:   -9.91 KCAL/MOL
REMARK 923 INTER-LIGAND FREE ENERGY PREDICTED BY IDOCK:   -8.32 KCAL/MOL
REMARK 924 INTRA-LIGAND FREE ENERGY PREDICTED BY IDOCK:   -1.60 KCAL/MOL
REMARK 927      BINDING AFFINITY PREDICTED BY RF-SCORE:    0.00 PKD
ROOT
HETATM    1  O   UNL     1      -5.128  11.824  65.908  1.00  0.00    -0.450 OA 
HETATM    2  C   UNL     1      -6.168  11.651  66.866  1.00  0.00    -0.149 C  
HETATM    3  H   UNL     1      -4.425  12.299  66.335  1.00  0.00     0.000 HD 
ENDROOT
BRANCH   2   4
HETATM    4  C   UNL     1      -6.520  13.007  67.427  1.00  0.00    -0.107 C  
HETATM    5  C   UNL     1      -6.041  13.431  68.793  1.00  0.00    -0.086 C  
HETATM    6  C   UNL     1      -7.494  13.115  68.575  1.00  0.00    -0.117 C  
ENDBRANCH   2   4
BRANCH   2   7
HETATM    7  C   UNL     1      -7.274  10.903  66.193  1.00  0.00    -0.101 C  
HETATM    8  C   UNL     1      -8.450  10.553  66.746  1.00  0.00    -0.127 C  
HETATM    9  C   UNL     1      -9.560   9.826  66.026  1.00  0.00    -0.296 C  
HETATM   10  C   UNL     1      -9.731   8.451  66.707  1.00  0.00    -0.309 C  
HETATM   11  C   UNL     1     -10.905  10.635  65.931  1.00  0.00    -0.030 C  
HETATM   12  C   UNL     1     -11.502  10.870  67.330  1.00  0.00    -0.175 C  
HETATM   13  C   UNL     1     -11.281  12.325  67.686  1.00  0.00    -0.346 C  
HETATM   14  C   UNL     1     -10.637  13.022  66.481  1.00  0.00    -0.292 C  
HETATM   15  C   UNL     1     -11.114  14.469  66.400  1.00  0.00    -0.331 C  
HETATM   16  C   UNL     1     -11.518  14.955  65.034  1.00  0.00    -0.379 C  
HETATM   17  C   UNL     1     -11.126  15.247  67.508  1.00  0.00    -0.324 C  
HETATM   18  C   UNL     1     -12.349  13.950  64.222  1.00  0.00    -0.390 C  
HETATM   19  C   UNL     1      -9.848  12.206  64.124  1.00  0.00    -0.189 C  
HETATM   20  C   UNL     1     -10.888  12.080  65.264  1.00  0.00    -0.340 C  
HETATM   21  C   UNL     1     -12.255  12.469  64.639  1.00  0.00    -0.524 C  
BRANCH  17  22
HETATM   22  C   UNL     1     -11.168  16.692  67.501  1.00  0.00     0.051 C  
HETATM   23  C   UNL     1     -10.191  17.599  67.312  1.00  0.00    -0.343 C  
HETATM   24  C   UNL     1     -10.602  19.056  67.157  1.00  0.00    -0.545 C  
HETATM   25  C   UNL     1      -9.877  19.972  68.140  1.00  0.00    -0.374 C  
HETATM   26  C   UNL     1      -8.363  19.802  68.018  1.00  0.00    -0.332 C  
HETATM   27  O   UNL     1     -10.298  19.726  69.477  1.00  0.00    -0.635 OA 
HETATM   28  C   UNL     1      -7.949  18.339  68.195  1.00  0.00    -0.284 C  
HETATM   29  H   UNL     1      -9.848  20.296  70.089  1.00  0.00     0.000 HD 
HETATM   30  O   UNL     1      -6.539  18.253  67.962  1.00  0.00    -0.196 OA 
HETATM   31  C   UNL     1      -8.735  17.399  67.276  1.00  0.00    -0.232 C  
HETATM   32  C   UNL     1      -8.139  16.518  66.454  1.00  0.00    -0.362 C  
HETATM   33  H   UNL     1      -6.282  17.345  68.073  1.00  0.00     0.000 HD 
ENDBRANCH  17  22
ENDBRANCH   2   7
TORSDOF 3
ENDMDL
MODEL        9
REMARK 921   NORMALIZED FREE ENERGY PREDICTED BY IDOCK:   -7.34 KCAL/MOL
REMARK 922        TOTAL FREE ENERGY PREDICTED BY IDOCK:   -9.91 KCAL/MOL
REMARK 923 INTER-LIGAND FREE ENERGY PREDICTED BY IDOCK:   -8.64 KCAL/MOL
REMARK 924 INTRA-LIGAND FREE ENERGY PREDICTED BY IDOCK:   -1.27 KCAL/MOL
REMARK 927      BINDING AFFINITY PREDICTED BY RF-SCORE:    0.00 PKD
ROOT
HETATM    1  O   UNL     1     -11.157   5.278  66.175  1.00  0.00    -0.730 OA 
HETATM    2  C   UNL     1     -10.001   5.713  66.887  1.00  0.00    -0.174 C  
HETATM    3  H   UNL     1     -10.994   5.430  65.252  1.00  0.00     0.000 HD 
ENDROOT
BRANCH   2   4
HETATM    4  C   UNL     1      -9.708   7.137  66.482  1.00  0.00    -0.199 C  
HETATM    5  C   UNL     1      -8.528   7.468  65.604  1.00  0.00    -0.141 C  
HETATM    6  C   UNL     1      -8.508   7.849  67.057  1.00  0.00    -0.124 C  
ENDBRANCH   2   4
BRANCH   2   7
HETATM    7  C   UNL     1     -10.257   5.474  68.340  1.00  0.00    -0.242 C  
HETATM    8  C   UNL     1      -9.544   5.974  69.367  1.00  0.00    -0.161 C  
HETATM    9  C   UNL     1      -9.853   5.739  70.826  1.00  0.00    -0.235 C  
HETATM   10  C   UNL     1      -8.673   4.944  71.426  1.00  0.00    -0.141 C  
HETATM   11  C   UNL     1     -10.183   7.048  71.634  1.00  0.00    -0.208 C  
HETATM   12  C   UNL     1      -8.960   7.981  71.688  1.00  0.00    -0.192 C  
HETATM   13  C   UNL     1      -9.223   9.139  70.751  1.00  0.00    -0.321 C  
HETATM   14  C   UNL     1     -10.641   8.986  70.184  1.00  0.00    -0.250 C  
HETATM   15  C   UNL     1     -11.262  10.361  69.956  1.00  0.00    -0.385 C  
HETATM   16  C   UNL     1     -12.683  10.529  70.423  1.00  0.00    -0.325 C  
HETATM   17  C   UNL     1     -10.555  11.336  69.337  1.00  0.00    -0.142 C  
HETATM   18  C   UNL     1     -12.980   9.901  71.792  1.00  0.00    -0.549 C  
HETATM   19  C   UNL     1     -12.522   7.191  70.468  1.00  0.00    -0.050 C  
HETATM   20  C   UNL     1     -11.368   7.982  71.130  1.00  0.00    -0.292 C  
HETATM   21  C   UNL     1     -12.016   8.802  72.279  1.00  0.00    -0.415 C  
BRANCH  17  22
HETATM   22  C   UNL     1     -11.132  12.508  68.719  1.00  0.00    -0.314 C  
HETATM   23  C   UNL     1     -11.297  12.828  67.421  1.00  0.00    -0.363 C  
HETATM   24  C   UNL     1     -12.136  14.056  67.098  1.00  0.00    -0.436 C  
HETATM   25  C   UNL     1     -11.394  15.047  66.205  1.00  0.00    -0.270 C  
HETATM   26  C   UNL     1     -10.898  14.359  64.934  1.00  0.00    -0.430 C  
HETATM   27  O   UNL     1     -10.308  15.651  66.899  1.00  0.00    -0.279 OA 
HETATM   28  C   UNL     1     -10.037  13.135  65.260  1.00  0.00    -0.235 C  
HETATM   29  H   UNL     1      -9.847  16.268  66.343  1.00  0.00     0.000 HD 
HETATM   30  O   UNL     1      -9.705  12.493  64.024  1.00  0.00    -0.588 OA 
HETATM   31  C   UNL     1     -10.737  12.177  66.228  1.00  0.00    -0.296 C  
HETATM   32  C   UNL     1     -10.888  10.866  65.973  1.00  0.00    -0.155 C  
HETATM   33  H   UNL     1      -9.170  11.734  64.227  1.00  0.00     0.000 HD 
ENDBRANCH  17  22
ENDBRANCH   2   7
TORSDOF 3
ENDMDL
MODEL       10
REMARK 921   NORMALIZED FREE ENERGY PREDICTED BY IDOCK:   -7.29 KCAL/MOL
REMARK 922        TOTAL FREE ENERGY PREDICTED BY IDOCK:   -9.85 KCAL/MOL
REMARK 923 INTER-LIGAND FREE ENERGY PREDICTED BY IDOCK:   -8.22 KCAL/MOL
REMARK 924 INTRA-LIGAND FREE ENERGY PREDICTED BY IDOCK:   -1.63 KCAL/MOL
REMARK 927      BINDING AFFINITY PREDICTED BY RF-SCORE:    0.00 PKD
ROOT
HETATM    1  O   UNL     1     -11.159   5.367  73.648  1.00  0.00    -0.408 OA 
HETATM    2  C   UNL     1     -11.333   6.143  72.466  1.00  0.00    -0.286 C  
HETATM    3  H   UNL     1     -11.830   5.635  74.264  1.00  0.00     0.000 HD 
ENDROOT
BRANCH   2   4
HETATM    4  C   UNL     1     -11.344   7.600  72.856  1.00  0.00    -0.394 C  
HETATM    5  C   UNL     1     -11.738   8.668  71.867  1.00  0.00    -0.422 C  
HETATM    6  C   UNL     1     -10.303   8.536  72.292  1.00  0.00    -0.402 C  
ENDBRANCH   2   4
BRANCH   2   7
HETATM    7  C   UNL     1     -10.276   5.722  71.496  1.00  0.00    -0.255 C  
HETATM    8  C   UNL     1     -10.435   5.545  70.172  1.00  0.00    -0.370 C  
HETATM    9  C   UNL     1      -9.334   5.152  69.215  1.00  0.00    -0.172 C  
HETATM   10  C   UNL     1      -9.692   3.763  68.645  1.00  0.00    -0.089 C  
HETATM   11  C   UNL     1      -9.040   6.218  68.097  1.00  0.00    -0.112 C  
HETATM   12  C   UNL     1     -10.257   6.386  67.169  1.00  0.00    -0.254 C  
HETATM   13  C   UNL     1     -10.911   7.709  67.502  1.00  0.00    -0.205 C  
HETATM   14  C   UNL     1     -10.057   8.413  68.565  1.00  0.00    -0.218 C  
HETATM   15  C   UNL     1     -10.114   9.924  68.363  1.00  0.00    -0.189 C  
HETATM   16  C   UNL     1      -8.799  10.652  68.447  1.00  0.00    -0.145 C  
HETATM   17  C   UNL     1     -11.302  10.541  68.154  1.00  0.00    -0.324 C  
HETATM   18  C   UNL     1      -7.636   9.945  67.738  1.00  0.00    -0.090 C  
HETATM   19  C   UNL     1      -7.878   7.765  69.858  1.00  0.00    -0.105 C  
HETATM   20  C   UNL     1      -8.669   7.703  68.530  1.00  0.00    -0.128 C  
HETATM   21  C   UNL     1      -7.792   8.434  67.477  1.00  0.00    -0.099 C  
BRANCH  17  22
HETATM   22  C   UNL     1     -11.542  11.954  68.342  1.00  0.00    -0.376 C  
HETATM   23  C   UNL     1     -11.598  12.963  67.451  1.00  0.00    -0.414 C  
HETATM   24  C   UNL     1     -12.079  14.318  67.950  1.00  0.00    -0.296 C  
HETATM   25  C   UNL     1     -11.089  15.437  67.635  1.00  0.00    -0.316 C  
HETATM   26  C   UNL     1     -10.774  15.471  66.140  1.00  0.00    -0.315 C  
HETATM   27  O   UNL     1      -9.893  15.293  68.392  1.00  0.00    -0.209 OA 
HETATM   28  C   UNL     1     -10.270  14.113  65.644  1.00  0.00    -0.339 C  
HETATM   29  H   UNL     1      -9.277  15.989  68.197  1.00  0.00     0.000 HD 
HETATM   30  O   UNL     1     -10.101  14.202  64.225  1.00  0.00    -0.648 OA 
HETATM   31  C   UNL     1     -11.211  12.969  66.033  1.00  0.00    -0.320 C  
HETATM   32  C   UNL     1     -11.699  12.091  65.140  1.00  0.00    -0.315 C  
HETATM   33  H   UNL     1      -9.787  13.359  63.917  1.00  0.00     0.000 HD 
ENDBRANCH  17  22
ENDBRANCH   2   7
TORSDOF 3
ENDMDL
MODEL       11
REMARK 921   NORMALIZED FREE ENERGY PREDICTED BY IDOCK:   -7.16 KCAL/MOL
REMARK 922        TOTAL FREE ENERGY PREDICTED BY IDOCK:   -9.69 KCAL/MOL
REMARK 923 INTER-LIGAND FREE ENERGY PREDICTED BY IDOCK:   -9.00 KCAL/MOL
REMARK 924 INTRA-LIGAND FREE ENERGY PREDICTED BY IDOCK:   -0.69 KCAL/MOL
REMARK 927      BINDING AFFINITY PREDICTED BY RF-SCORE:    0.00 PKD
ROOT
HETATM    1  O   UNL     1     -12.182   9.640  70.317  1.00  0.00    -0.469 OA 
HETATM    2  C   UNL     1     -11.886   9.448  71.698  1.00  0.00    -0.394 C  
HETATM    3  H   UNL     1     -13.060   9.998  70.263  1.00  0.00     0.000 HD 
ENDROOT
BRANCH   2   4
HETATM    4  C   UNL     1     -12.988   8.616  72.304  1.00  0.00    -0.430 C  
HETATM    5  C   UNL     1     -13.547   7.418  71.579  1.00  0.00    -0.454 C  
HETATM    6  C   UNL     1     -14.376   8.663  71.713  1.00  0.00    -0.476 C  
ENDBRANCH   2   4
BRANCH   2   7
HETATM    7  C   UNL     1     -10.503   8.884  71.783  1.00  0.00    -0.431 C  
HETATM    8  C   UNL     1     -10.037   7.817  71.109  1.00  0.00    -0.206 C  
HETATM    9  C   UNL     1      -8.622   7.295  71.192  1.00  0.00    -0.130 C  
HETATM   10  C   UNL     1      -8.686   5.883  71.813  1.00  0.00    -0.139 C  
HETATM   11  C   UNL     1      -7.840   7.331  69.828  1.00  0.00    -0.117 C  
HETATM   12  C   UNL     1      -8.492   6.389  68.800  1.00  0.00    -0.121 C  
HETATM   13  C   UNL     1      -9.218   7.247  67.786  1.00  0.00    -0.127 C  
HETATM   14  C   UNL     1      -8.944   8.719  68.119  1.00  0.00    -0.141 C  
HETATM   15  C   UNL     1      -8.893   9.543  66.836  1.00  0.00    -0.140 C  
HETATM   16  C   UNL     1      -7.759  10.528  66.728  1.00  0.00    -0.118 C  
HETATM   17  C   UNL     1      -9.848   9.390  65.887  1.00  0.00    -0.362 C  
HETATM   18  C   UNL     1      -6.404   9.991  67.211  1.00  0.00    -0.067 C  
HETATM   19  C   UNL     1      -7.609   9.931  70.013  1.00  0.00    -0.179 C  
HETATM   20  C   UNL     1      -7.700   8.716  69.059  1.00  0.00    -0.095 C  
HETATM   21  C   UNL     1      -6.432   8.780  68.164  1.00  0.00    -0.060 C  
BRANCH  17  22
HETATM   22  C   UNL     1     -10.138  10.351  64.847  1.00  0.00    -0.382 C  
HETATM   23  C   UNL     1     -10.538  11.635  64.922  1.00  0.00    -0.349 C  
HETATM   24  C   UNL     1     -10.557  12.445  63.634  1.00  0.00    -0.481 C  
HETATM   25  C   UNL     1     -11.916  13.090  63.374  1.00  0.00    -0.520 C  
HETATM   26  C   UNL     1     -12.347  13.936  64.571  1.00  0.00    -0.408 C  
HETATM   27  O   UNL     1     -12.902  12.109  63.076  1.00  0.00    -0.746 OA 
HETATM   28  C   UNL     1     -12.349  13.115  65.863  1.00  0.00    -0.398 C  
HETATM   29  H   UNL     1     -13.748  12.511  62.914  1.00  0.00     0.000 HD 
HETATM   30  O   UNL     1     -12.660  14.001  66.944  1.00  0.00    -0.513 OA 
HETATM   31  C   UNL     1     -11.019  12.389  66.089  1.00  0.00    -0.321 C  
HETATM   32  C   UNL     1     -10.317  12.493  67.231  1.00  0.00    -0.228 C  
HETATM   33  H   UNL     1     -12.661  13.492  67.746  1.00  0.00     0.000 HD 
ENDBRANCH  17  22
ENDBRANCH   2   7
TORSDOF 3
ENDMDL
MODEL       12
REMARK 921   NORMALIZED FREE ENERGY PREDICTED BY IDOCK:   -7.13 KCAL/MOL
REMARK 922        TOTAL FREE ENERGY PREDICTED BY IDOCK:   -9.66 KCAL/MOL
REMARK 923 INTER-LIGAND FREE ENERGY PREDICTED BY IDOCK:   -8.10 KCAL/MOL
REMARK 924 INTRA-LIGAND FREE ENERGY PREDICTED BY IDOCK:   -1.56 KCAL/MOL
REMARK 927      BINDING AFFINITY PREDICTED BY RF-SCORE:    0.00 PKD
ROOT
HETATM    1  O   UNL     1      -9.217   8.786  63.071  1.00  0.00    -0.387 OA 
HETATM    2  C   UNL     1      -9.095  10.000  63.808  1.00  0.00    -0.267 C  
HETATM    3  H   UNL     1      -8.867   8.945  62.203  1.00  0.00     0.000 HD 
ENDROOT
BRANCH   2   4
HETATM    4  C   UNL     1      -9.750  11.101  63.011  1.00  0.00    -0.384 C  
HETATM    5  C   UNL     1     -10.006  12.456  63.622  1.00  0.00    -0.199 C  
HETATM    6  C   UNL     1     -11.158  11.533  63.343  1.00  0.00    -0.370 C  
ENDBRANCH   2   4
BRANCH   2   7
HETATM    7  C   UNL     1      -9.647   9.749  65.175  1.00  0.00    -0.356 C  
HETATM    8  C   UNL     1      -9.004   9.942  66.341  1.00  0.00    -0.169 C  
HETATM    9  C   UNL     1      -9.605   9.711  67.707  1.00  0.00    -0.161 C  
HETATM   10  C   UNL     1      -8.816   8.562  68.370  1.00  0.00    -0.139 C  
HETATM   11  C   UNL     1      -9.682  11.001  68.604  1.00  0.00    -0.198 C  
HETATM   12  C   UNL     1      -8.271  11.522  68.934  1.00  0.00    -0.019 C  
HETATM   13  C   UNL     1      -8.036  12.767  68.108  1.00  0.00    -0.156 C  
HETATM   14  C   UNL     1      -9.324  13.082  67.335  1.00  0.00    -0.209 C  
HETATM   15  C   UNL     1      -9.483  14.591  67.181  1.00  0.00    -0.236 C  
HETATM   16  C   UNL     1     -10.856  15.142  67.462  1.00  0.00    -0.301 C  
HETATM   17  C   UNL     1      -8.436  15.351  66.782  1.00  0.00    -0.307 C  
HETATM   18  C   UNL     1     -11.543  14.538  68.695  1.00  0.00    -0.346 C  
HETATM   19  C   UNL     1     -11.656  11.912  67.147  1.00  0.00    -0.363 C  
HETATM   20  C   UNL     1     -10.452  12.277  68.050  1.00  0.00    -0.231 C  
HETATM   21  C   UNL     1     -11.025  13.172  69.183  1.00  0.00    -0.194 C  
BRANCH  17  22
HETATM   22  C   UNL     1      -8.547  16.682  66.228  1.00  0.00    -0.359 C  
HETATM   23  C   UNL     1      -8.664  17.880  66.832  1.00  0.00    -0.258 C  
HETATM   24  C   UNL     1      -8.548  19.123  65.962  1.00  0.00    -0.116 C  
HETATM   25  C   UNL     1      -9.747  20.056  66.121  1.00  0.00    -0.409 C  
HETATM   26  C   UNL     1      -9.954  20.420  67.590  1.00  0.00    -0.514 C  
HETATM   27  O   UNL     1     -10.927  19.472  65.582  1.00  0.00    -0.394 OA 
HETATM   28  C   UNL     1     -10.090  19.169  68.462  1.00  0.00    -0.422 C  
HETATM   29  H   UNL     1     -11.673  20.052  65.681  1.00  0.00     0.000 HD 
HETATM   30  O   UNL     1     -10.174  19.594  69.827  1.00  0.00    -0.551 OA 
HETATM   31  C   UNL     1      -8.939  18.183  68.244  1.00  0.00    -0.306 C  
HETATM   32  C   UNL     1      -8.197  17.694  69.253  1.00  0.00     0.226 C  
HETATM   33  H   UNL     1     -10.259  18.818  70.368  1.00  0.00     0.000 HD 
ENDBRANCH  17  22
ENDBRANCH   2   7
TORSDOF 3
ENDMDL
MODEL       13
REMARK 921   NORMALIZED FREE ENERGY PREDICTED BY IDOCK:   -7.12 KCAL/MOL
REMARK 922        TOTAL FREE ENERGY PREDICTED BY IDOCK:   -9.65 KCAL/MOL
REMARK 923 INTER-LIGAND FREE ENERGY PREDICTED BY IDOCK:   -8.91 KCAL/MOL
REMARK 924 INTRA-LIGAND FREE ENERGY PREDICTED BY IDOCK:   -0.73 KCAL/MOL
REMARK 927      BINDING AFFINITY PREDICTED BY RF-SCORE:    0.00 PKD
ROOT
HETATM    1  O   UNL     1     -11.753  16.833  71.689  1.00  0.00    -0.594 OA 
HETATM    2  C   UNL     1     -12.128  15.664  70.965  1.00  0.00    -0.400 C  
HETATM    3  H   UNL     1     -11.944  16.672  72.606  1.00  0.00     0.000 HD 
ENDROOT
BRANCH   2   4
HETATM    4  C   UNL     1     -13.562  15.340  71.305  1.00  0.00    -0.584 C  
HETATM    5  C   UNL     1     -14.103  15.574  72.693  1.00  0.00    -0.536 C  
HETATM    6  C   UNL     1     -13.873  14.171  72.208  1.00  0.00    -0.643 C  
ENDBRANCH   2   4
BRANCH   2   7
HETATM    7  C   UNL     1     -11.827  15.918  69.523  1.00  0.00    -0.310 C  
HETATM    8  C   UNL     1     -10.614  15.872  68.943  1.00  0.00    -0.244 C  
HETATM    9  C   UNL     1     -10.351  16.100  67.473  1.00  0.00    -0.286 C  
HETATM   10  C   UNL     1      -9.489  17.375  67.351  1.00  0.00    -0.246 C  
HETATM   11  C   UNL     1      -9.726  14.863  66.730  1.00  0.00    -0.263 C  
HETATM   12  C   UNL     1      -8.325  14.544  67.283  1.00  0.00    -0.232 C  
HETATM   13  C   UNL     1      -8.439  13.294  68.129  1.00  0.00    -0.173 C  
HETATM   14  C   UNL     1      -9.880  12.777  68.031  1.00  0.00    -0.226 C  
HETATM   15  C   UNL     1      -9.893  11.254  68.108  1.00  0.00    -0.190 C  
HETATM   16  C   UNL     1     -10.769  10.550  67.106  1.00  0.00    -0.323 C  
HETATM   17  C   UNL     1      -9.170  10.611  69.056  1.00  0.00    -0.177 C  
HETATM   18  C   UNL     1     -10.702  11.129  65.686  1.00  0.00    -0.250 C  
HETATM   19  C   UNL     1     -12.033  13.630  66.816  1.00  0.00    -0.458 C  
HETATM   20  C   UNL     1     -10.494  13.471  66.777  1.00  0.00    -0.273 C  
HETATM   21  C   UNL     1     -10.189  12.575  65.545  1.00  0.00    -0.295 C  
BRANCH  17  22
HETATM   22  C   UNL     1      -9.397   9.249  69.483  1.00  0.00    -0.177 C  
HETATM   23  C   UNL     1      -9.199   8.081  68.842  1.00  0.00    -0.147 C  
HETATM   24  C   UNL     1      -9.342   6.799  69.650  1.00  0.00    -0.144 C  
HETATM   25  C   UNL     1     -10.328   5.821  69.016  1.00  0.00    -0.245 C  
HETATM   26  C   UNL     1      -9.939   5.528  67.568  1.00  0.00    -0.189 C  
HETATM   27  O   UNL     1     -11.660   6.318  69.083  1.00  0.00    -0.548 OA 
HETATM   28  C   UNL     1      -9.815   6.817  66.751  1.00  0.00    -0.178 C  
HETATM   29  H   UNL     1     -12.273   5.710  68.689  1.00  0.00     0.000 HD 
HETATM   30  O   UNL     1      -9.348   6.463  65.445  1.00  0.00    -0.359 OA 
HETATM   31  C   UNL     1      -8.898   7.843  67.423  1.00  0.00    -0.129 C  
HETATM   32  C   UNL     1      -7.863   8.420  66.789  1.00  0.00    -0.094 C  
HETATM   33  H   UNL     1      -9.272   7.262  64.937  1.00  0.00     0.000 HD 
ENDBRANCH  17  22
ENDBRANCH   2   7
TORSDOF 3
ENDMDL
MODEL       14
REMARK 921   NORMALIZED FREE ENERGY PREDICTED BY IDOCK:   -7.11 KCAL/MOL
REMARK 922        TOTAL FREE ENERGY PREDICTED BY IDOCK:   -9.64 KCAL/MOL
REMARK 923 INTER-LIGAND FREE ENERGY PREDICTED BY IDOCK:   -8.95 KCAL/MOL
REMARK 924 INTRA-LIGAND FREE ENERGY PREDICTED BY IDOCK:   -0.69 KCAL/MOL
REMARK 927      BINDING AFFINITY PREDICTED BY RF-SCORE:    0.00 PKD
ROOT
HETATM    1  O   UNL     1      -9.434  12.550  63.352  1.00  0.00    -0.596 OA 
HETATM    2  C   UNL     1     -10.332  11.448  63.243  1.00  0.00    -0.367 C  
HETATM    3  H   UNL     1      -9.008  12.652  62.510  1.00  0.00     0.000 HD 
ENDROOT
BRANCH   2   4
HETATM    4  C   UNL     1      -9.556  10.259  62.735  1.00  0.00    -0.277 C  
HETATM    5  C   UNL     1      -8.544   9.559  63.608  1.00  0.00    -0.222 C  
HETATM    6  C   UNL     1      -8.080  10.392  62.447  1.00  0.00    -0.197 C  
ENDBRANCH   2   4
BRANCH   2   7
HETATM    7  C   UNL     1     -11.003  11.288  64.570  1.00  0.00    -0.301 C  
HETATM    8  C   UNL     1     -10.391  11.158  65.761  1.00  0.00    -0.316 C  
HETATM    9  C   UNL     1     -11.102  11.032  67.087  1.00  0.00    -0.333 C  
HETATM   10  C   UNL     1     -10.775   9.634  67.656  1.00  0.00    -0.324 C  
HETATM   11  C   UNL     1     -10.788  12.194  68.100  1.00  0.00    -0.256 C  
HETATM   12  C   UNL     1      -9.303  12.181  68.504  1.00  0.00    -0.108 C  
HETATM   13  C   UNL     1      -8.625  13.338  67.803  1.00  0.00    -0.184 C  
HETATM   14  C   UNL     1      -9.693  14.129  67.038  1.00  0.00    -0.258 C  
HETATM   15  C   UNL     1      -9.332  15.612  67.023  1.00  0.00    -0.241 C  
HETATM   16  C   UNL     1     -10.455  16.568  67.326  1.00  0.00    -0.304 C  
HETATM   17  C   UNL     1      -8.073  16.004  66.717  1.00  0.00    -0.302 C  
HETATM   18  C   UNL     1     -11.364  16.132  68.484  1.00  0.00    -0.359 C  
HETATM   19  C   UNL     1     -12.270  13.833  66.696  1.00  0.00    -0.454 C  
HETATM   20  C   UNL     1     -11.060  13.697  67.652  1.00  0.00    -0.293 C  
HETATM   21  C   UNL     1     -11.357  14.636  68.853  1.00  0.00    -0.305 C  
BRANCH  17  22
HETATM   22  C   UNL     1      -7.706  17.335  66.287  1.00  0.00    -0.353 C  
HETATM   23  C   UNL     1      -6.948  18.275  66.884  1.00  0.00    -0.213 C  
HETATM   24  C   UNL     1      -6.578  19.505  66.069  1.00  0.00    -0.237 C  
HETATM   25  C   UNL     1      -6.960  20.805  66.774  1.00  0.00    -0.269 C  
HETATM   26  C   UNL     1      -6.349  20.857  68.174  1.00  0.00    -0.344 C  
HETATM   27  O   UNL     1      -8.373  20.956  66.842  1.00  0.00    -0.567 OA 
HETATM   28  C   UNL     1      -6.739  19.629  69.000  1.00  0.00    -0.337 C  
HETATM   29  H   UNL     1      -8.611  21.765  67.281  1.00  0.00     0.000 HD 
HETATM   30  O   UNL     1      -6.045  19.704  70.250  1.00  0.00    -0.270 OA 
HETATM   31  C   UNL     1      -6.443  18.318  68.264  1.00  0.00    -0.200 C  
HETATM   32  C   UNL     1      -5.721  17.324  68.809  1.00  0.00    -0.158 C  
HETATM   33  H   UNL     1      -6.287  18.942  70.763  1.00  0.00     0.000 HD 
ENDBRANCH  17  22
ENDBRANCH   2   7
TORSDOF 3
ENDMDL
MODEL       15
REMARK 921   NORMALIZED FREE ENERGY PREDICTED BY IDOCK:   -7.08 KCAL/MOL
REMARK 922        TOTAL FREE ENERGY PREDICTED BY IDOCK:   -9.61 KCAL/MOL
REMARK 923 INTER-LIGAND FREE ENERGY PREDICTED BY IDOCK:   -8.05 KCAL/MOL
REMARK 924 INTRA-LIGAND FREE ENERGY PREDICTED BY IDOCK:   -1.56 KCAL/MOL
REMARK 927      BINDING AFFINITY PREDICTED BY RF-SCORE:    0.00 PKD
ROOT
HETATM    1  O   UNL     1      -9.838   2.768  68.142  1.00  0.00    -0.153 OA 
HETATM    2  C   UNL     1      -9.353   4.107  68.192  1.00  0.00    -0.159 C  
HETATM    3  H   UNL     1      -9.646   2.430  67.275  1.00  0.00     0.000 HD 
ENDROOT
BRANCH   2   4
HETATM    4  C   UNL     1      -9.945   4.865  67.029  1.00  0.00    -0.238 C  
HETATM    5  C   UNL     1      -9.372   6.189  66.592  1.00  0.00    -0.161 C  
HETATM    6  C   UNL     1     -10.708   6.144  67.277  1.00  0.00    -0.414 C  
ENDBRANCH   2   4
BRANCH   2   7
HETATM    7  C   UNL     1      -9.656   4.640  69.556  1.00  0.00    -0.258 C  
HETATM    8  C   UNL     1      -8.919   5.531  70.244  1.00  0.00    -0.155 C  
HETATM    9  C   UNL     1      -9.274   6.074  71.608  1.00  0.00    -0.153 C  
HETATM   10  C   UNL     1      -8.183   5.600  72.592  1.00  0.00    -0.113 C  
HETATM   11  C   UNL     1      -9.499   7.630  71.644  1.00  0.00    -0.174 C  
HETATM   12  C   UNL     1      -8.197   8.379  71.306  1.00  0.00    -0.161 C  
HETATM   13  C   UNL     1      -8.338   8.935  69.905  1.00  0.00    -0.128 C  
HETATM   14  C   UNL     1      -9.753   8.621  69.403  1.00  0.00    -0.176 C  
HETATM   15  C   UNL     1     -10.242   9.741  68.490  1.00  0.00    -0.209 C  
HETATM   16  C   UNL     1     -11.651  10.217  68.727  1.00  0.00    -0.118 C  
HETATM   17  C   UNL     1      -9.438  10.228  67.515  1.00  0.00    -0.171 C  
HETATM   18  C   UNL     1     -12.028  10.374  70.207  1.00  0.00    -0.387 C  
HETATM   19  C   UNL     1     -11.794   7.340  70.420  1.00  0.00    -0.174 C  
HETATM   20  C   UNL     1     -10.585   8.272  70.675  1.00  0.00    -0.235 C  
HETATM   21  C   UNL     1     -11.177   9.596  71.229  1.00  0.00    -0.446 C  
BRANCH  17  22
HETATM   22  C   UNL     1      -9.896  10.976  66.366  1.00  0.00    -0.252 C  
HETATM   23  C   UNL     1     -10.320  12.250  66.258  1.00  0.00    -0.257 C  
HETATM   24  C   UNL     1     -10.538  12.804  64.857  1.00  0.00    -0.336 C  
HETATM   25  C   UNL     1     -11.938  13.385  64.675  1.00  0.00    -0.399 C  
HETATM   26  C   UNL     1     -12.227  14.438  65.744  1.00  0.00    -0.353 C  
HETATM   27  O   UNL     1     -12.927  12.362  64.704  1.00  0.00    -0.793 OA 
HETATM   28  C   UNL     1     -12.028  13.874  67.153  1.00  0.00    -0.420 C  
HETATM   29  H   UNL     1     -13.798  12.723  64.590  1.00  0.00     0.000 HD 
HETATM   30  O   UNL     1     -12.214  14.945  68.083  1.00  0.00    -0.574 OA 
HETATM   31  C   UNL     1     -10.659  13.207  67.321  1.00  0.00    -0.250 C  
HETATM   32  C   UNL     1      -9.811  13.525  68.314  1.00  0.00    -0.233 C  
HETATM   33  H   UNL     1     -12.090  14.595  68.958  1.00  0.00     0.000 HD 
ENDBRANCH  17  22
ENDBRANCH   2   7
TORSDOF 3
ENDMDL
MODEL       16
REMARK 921   NORMALIZED FREE ENERGY PREDICTED BY IDOCK:   -7.04 KCAL/MOL
REMARK 922        TOTAL FREE ENERGY PREDICTED BY IDOCK:   -9.55 KCAL/MOL
REMARK 923 INTER-LIGAND FREE ENERGY PREDICTED BY IDOCK:   -8.37 KCAL/MOL
REMARK 924 INTRA-LIGAND FREE ENERGY PREDICTED BY IDOCK:   -1.18 KCAL/MOL
REMARK 927      BINDING AFFINITY PREDICTED BY RF-SCORE:    0.00 PKD
ROOT
HETATM    1  O   UNL     1      -6.993  14.341  70.563  1.00  0.00    -0.391 OA 
HETATM    2  C   UNL     1      -7.005  14.805  69.215  1.00  0.00    -0.149 C  
HETATM    3  H   UNL     1      -6.258  13.746  70.651  1.00  0.00     0.000 HD 
ENDROOT
BRANCH   2   4
HETATM    4  C   UNL     1      -7.002  13.603  68.304  1.00  0.00    -0.109 C  
HETATM    5  C   UNL     1      -7.913  12.430  68.562  1.00  0.00    -0.110 C  
HETATM    6  C   UNL     1      -6.435  12.293  68.792  1.00  0.00    -0.082 C  
ENDBRANCH   2   4
BRANCH   2   7
HETATM    7  C   UNL     1      -8.163  15.742  69.077  1.00  0.00    -0.234 C  
HETATM    8  C   UNL     1      -9.218  15.587  68.257  1.00  0.00    -0.188 C  
HETATM    9  C   UNL     1     -10.388  16.537  68.169  1.00  0.00    -0.296 C  
HETATM   10  C   UNL     1     -10.380  17.150  66.752  1.00  0.00    -0.302 C  
HETATM   11  C   UNL     1     -11.772  15.894  68.550  1.00  0.00    -0.297 C  
HETATM   12  C   UNL     1     -12.153  14.786  67.551  1.00  0.00    -0.128 C  
HETATM   13  C   UNL     1     -11.955  13.455  68.243  1.00  0.00    -0.352 C  
HETATM   14  C   UNL     1     -11.543  13.725  69.696  1.00  0.00    -0.343 C  
HETATM   15  C   UNL     1     -12.101  12.635  70.606  1.00  0.00    -0.315 C  
HETATM   16  C   UNL     1     -12.739  13.106  71.886  1.00  0.00    -0.233 C  
HETATM   17  C   UNL     1     -11.980  11.330  70.263  1.00  0.00    -0.466 C  
HETATM   18  C   UNL     1     -13.633  14.344  71.732  1.00  0.00    -0.479 C  
HETATM   19  C   UNL     1     -11.092  15.899  71.077  1.00  0.00    -0.283 C  
HETATM   20  C   UNL     1     -11.933  15.208  69.977  1.00  0.00    -0.374 C  
HETATM   21  C   UNL     1     -13.399  15.223  70.488  1.00  0.00    -0.208 C  
BRANCH  17  22
HETATM   22  C   UNL     1     -12.097  10.221  71.183  1.00  0.00    -0.494 C  
HETATM   23  C   UNL     1     -11.308   9.145  71.368  1.00  0.00    -0.414 C  
HETATM   24  C   UNL     1     -11.597   8.258  72.570  1.00  0.00    -0.454 C  
HETATM   25  C   UNL     1     -11.786   6.794  72.178  1.00  0.00    -0.297 C  
HETATM   26  C   UNL     1     -10.580   6.288  71.387  1.00  0.00    -0.284 C  
HETATM   27  O   UNL     1     -12.983   6.613  71.431  1.00  0.00    -0.250 OA 
HETATM   28  C   UNL     1     -10.304   7.170  70.166  1.00  0.00    -0.206 C  
HETATM   29  H   UNL     1     -13.101   5.702  71.188  1.00  0.00     0.000 HD 
HETATM   30  O   UNL     1      -9.105   6.693  69.546  1.00  0.00    -0.143 OA 
HETATM   31  C   UNL     1     -10.201   8.653  70.534  1.00  0.00    -0.229 C  
HETATM   32  C   UNL     1      -9.153   9.419  70.187  1.00  0.00    -0.262 C  
HETATM   33  H   UNL     1      -8.934   7.240  68.788  1.00  0.00     0.000 HD 
ENDBRANCH  17  22
ENDBRANCH   2   7
TORSDOF 3
ENDMDL
MODEL       17
REMARK 921   NORMALIZED FREE ENERGY PREDICTED BY IDOCK:   -7.01 KCAL/MOL
REMARK 922        TOTAL FREE ENERGY PREDICTED BY IDOCK:   -9.52 KCAL/MOL
REMARK 923 INTER-LIGAND FREE ENERGY PREDICTED BY IDOCK:   -8.23 KCAL/MOL
REMARK 924 INTRA-LIGAND FREE ENERGY PREDICTED BY IDOCK:   -1.29 KCAL/MOL
REMARK 927      BINDING AFFINITY PREDICTED BY RF-SCORE:    0.00 PKD
ROOT
HETATM    1  O   UNL     1     -12.509  14.034  62.972  1.00  0.00    -1.101 OA 
HETATM    2  C   UNL     1     -12.225  13.316  64.169  1.00  0.00    -0.401 C  
HETATM    3  H   UNL     1     -13.143  13.526  62.481  1.00  0.00     0.000 HD 
ENDROOT
BRANCH   2   4
HETATM    4  C   UNL     1     -11.814  11.915  63.791  1.00  0.00    -0.558 C  
HETATM    5  C   UNL     1     -10.878  11.117  64.663  1.00  0.00    -0.295 C  
HETATM    6  C   UNL     1     -10.400  11.643  63.340  1.00  0.00    -0.482 C  
ENDBRANCH   2   4
BRANCH   2   7
HETATM    7  C   UNL     1     -11.225  14.117  64.942  1.00  0.00    -0.373 C  
HETATM    8  C   UNL     1     -11.323  14.478  66.234  1.00  0.00    -0.352 C  
HETATM    9  C   UNL     1     -10.277  15.259  66.994  1.00  0.00    -0.260 C  
HETATM   10  C   UNL     1     -10.905  16.614  67.385  1.00  0.00    -0.186 C  
HETATM   11  C   UNL     1      -9.662  14.489  68.220  1.00  0.00    -0.218 C  
HETATM   12  C   UNL     1     -10.736  14.223  69.291  1.00  0.00    -0.194 C  
HETATM   13  C   UNL     1     -11.087  12.752  69.235  1.00  0.00    -0.193 C  
HETATM   14  C   UNL     1     -10.174  12.080  68.202  1.00  0.00    -0.203 C  
HETATM   15  C   UNL     1      -9.864  10.649  68.634  1.00  0.00    -0.183 C  
HETATM   16  C   UNL     1      -8.425  10.221  68.515  1.00  0.00    -0.121 C  
HETATM   17  C   UNL     1     -10.857   9.835  69.062  1.00  0.00    -0.223 C  
HETATM   18  C   UNL     1      -7.409  11.275  68.977  1.00  0.00    -0.115 C  
HETATM   19  C   UNL     1      -8.306  12.953  66.593  1.00  0.00     0.130 C  
HETATM   20  C   UNL     1      -8.990  13.069  67.977  1.00  0.00    -0.199 C  
HETATM   21  C   UNL     1      -7.892  12.737  69.024  1.00  0.00     0.256 C  
BRANCH  17  22
HETATM   22  C   UNL     1     -10.775   8.393  69.116  1.00  0.00    -0.123 C  
HETATM   23  C   UNL     1     -11.125   7.527  70.087  1.00  0.00    -0.246 C  
HETATM   24  C   UNL     1     -11.105   6.043  69.750  1.00  0.00    -0.476 C  
HETATM   25  C   UNL     1     -10.256   5.237  70.731  1.00  0.00    -0.246 C  
HETATM   26  C   UNL     1     -10.719   5.478  72.167  1.00  0.00    -0.288 C  
HETATM   27  O   UNL     1      -8.875   5.551  70.594  1.00  0.00    -0.129 OA 
HETATM   28  C   UNL     1     -10.719   6.969  72.511  1.00  0.00    -0.242 C  
HETATM   29  H   UNL     1      -8.347   5.049  71.204  1.00  0.00     0.000 HD 
HETATM   30  O   UNL     1     -11.262   7.114  73.828  1.00  0.00    -0.511 OA 
HETATM   31  C   UNL     1     -11.492   7.801  71.484  1.00  0.00    -0.298 C  
HETATM   32  C   UNL     1     -12.473   8.654  71.826  1.00  0.00    -0.397 C  
HETATM   33  H   UNL     1     -11.262   8.040  74.042  1.00  0.00     0.000 HD 
ENDBRANCH  17  22
ENDBRANCH   2   7
TORSDOF 3
ENDMDL
MODEL       18
REMARK 921   NORMALIZED FREE ENERGY PREDICTED BY IDOCK:   -7.01 KCAL/MOL
REMARK 922        TOTAL FREE ENERGY PREDICTED BY IDOCK:   -9.51 KCAL/MOL
REMARK 923 INTER-LIGAND FREE ENERGY PREDICTED BY IDOCK:   -8.57 KCAL/MOL
REMARK 924 INTRA-LIGAND FREE ENERGY PREDICTED BY IDOCK:   -0.95 KCAL/MOL
REMARK 927      BINDING AFFINITY PREDICTED BY RF-SCORE:    0.00 PKD
ROOT
HETATM    1  O   UNL     1     -11.975  16.347  71.648  1.00  0.00    -0.644 OA 
HETATM    2  C   UNL     1     -12.137  15.260  70.741  1.00  0.00    -0.351 C  
HETATM    3  H   UNL     1     -12.057  15.997  72.527  1.00  0.00     0.000 HD 
ENDROOT
BRANCH   2   4
HETATM    4  C   UNL     1     -13.435  14.564  71.067  1.00  0.00    -0.345 C  
HETATM    5  C   UNL     1     -14.337  15.076  72.161  1.00  0.00    -0.622 C  
HETATM    6  C   UNL     1     -13.571  13.800  72.362  1.00  0.00    -0.690 C  
ENDBRANCH   2   4
BRANCH   2   7
HETATM    7  C   UNL     1     -12.007  15.812  69.357  1.00  0.00    -0.321 C  
HETATM    8  C   UNL     1     -10.860  16.008  68.682  1.00  0.00    -0.301 C  
HETATM    9  C   UNL     1     -10.768  16.535  67.270  1.00  0.00    -0.243 C  
HETATM   10  C   UNL     1     -10.042  17.896  67.332  1.00  0.00    -0.341 C  
HETATM   11  C   UNL     1     -10.112  15.535  66.249  1.00  0.00    -0.312 C  
HETATM   12  C   UNL     1      -8.639  15.272  66.613  1.00  0.00    -0.305 C  
HETATM   13  C   UNL     1      -8.552  13.881  67.202  1.00  0.00    -0.217 C  
HETATM   14  C   UNL     1      -9.943  13.238  67.122  1.00  0.00    -0.238 C  
HETATM   15  C   UNL     1      -9.810  11.734  66.898  1.00  0.00    -0.221 C  
HETATM   16  C   UNL     1     -10.715  11.140  65.852  1.00  0.00    -0.261 C  
HETATM   17  C   UNL     1      -8.940  11.008  67.639  1.00  0.00    -0.142 C  
HETATM   18  C   UNL     1     -10.844  11.980  64.573  1.00  0.00    -0.363 C  
HETATM   19  C   UNL     1     -12.276  14.065  66.278  1.00  0.00    -0.493 C  
HETATM   20  C   UNL     1     -10.741  14.083  66.083  1.00  0.00    -0.289 C  
HETATM   21  C   UNL     1     -10.481  13.473  64.679  1.00  0.00    -0.439 C  
BRANCH  17  22
HETATM   22  C   UNL     1      -8.997   9.573  67.807  1.00  0.00    -0.126 C  
HETATM   23  C   UNL     1      -8.428   8.580  67.096  1.00  0.00    -0.118 C  
HETATM   24  C   UNL     1      -8.515   7.170  67.659  1.00  0.00    -0.120 C  
HETATM   25  C   UNL     1      -9.109   6.181  66.659  1.00  0.00    -0.139 C  
HETATM   26  C   UNL     1      -8.329   6.211  65.345  1.00  0.00    -0.150 C  
HETATM   27  O   UNL     1     -10.487   6.451  66.427  1.00  0.00    -0.441 OA 
HETATM   28  C   UNL     1      -8.261   7.627  64.768  1.00  0.00    -0.078 C  
HETATM   29  H   UNL     1     -10.857   5.836  65.804  1.00  0.00     0.000 HD 
HETATM   30  O   UNL     1      -7.430   7.584  63.603  1.00  0.00    -0.090 OA 
HETATM   31  C   UNL     1      -7.750   8.645  65.793  1.00  0.00    -0.090 C  
HETATM   32  C   UNL     1      -6.722   9.475  65.545  1.00  0.00    -0.080 C  
HETATM   33  H   UNL     1      -7.387   8.464  63.245  1.00  0.00     0.000 HD 
ENDBRANCH  17  22
ENDBRANCH   2   7
TORSDOF 3
ENDMDL
MODEL       19
REMARK 921   NORMALIZED FREE ENERGY PREDICTED BY IDOCK:   -7.00 KCAL/MOL
REMARK 922        TOTAL FREE ENERGY PREDICTED BY IDOCK:   -9.50 KCAL/MOL
REMARK 923 INTER-LIGAND FREE ENERGY PREDICTED BY IDOCK:   -8.11 KCAL/MOL
REMARK 924 INTRA-LIGAND FREE ENERGY PREDICTED BY IDOCK:   -1.39 KCAL/MOL
REMARK 927      BINDING AFFINITY PREDICTED BY RF-SCORE:    0.00 PKD
ROOT
HETATM    1  O   UNL     1      -7.081   8.892  69.009  1.00  0.00    -0.062 OA 
HETATM    2  C   UNL     1      -7.534  10.232  68.832  1.00  0.00    -0.094 C  
HETATM    3  H   UNL     1      -6.143   8.927  69.151  1.00  0.00     0.000 HD 
ENDROOT
BRANCH   2   4
HETATM    4  C   UNL     1      -6.713  10.865  67.736  1.00  0.00    -0.064 C  
HETATM    5  C   UNL     1      -7.034  12.246  67.223  1.00  0.00    -0.142 C  
HETATM    6  C   UNL     1      -7.309  11.047  66.361  1.00  0.00    -0.128 C  
ENDBRANCH   2   4
BRANCH   2   7
HETATM    7  C   UNL     1      -9.012  10.176  68.608  1.00  0.00    -0.136 C  
HETATM    8  C   UNL     1      -9.935  10.961  69.194  1.00  0.00    -0.181 C  
HETATM    9  C   UNL     1     -11.419  10.900  68.918  1.00  0.00    -0.369 C  
HETATM   10  C   UNL     1     -12.114  10.457  70.224  1.00  0.00    -0.370 C  
HETATM   11  C   UNL     1     -12.019  12.227  68.323  1.00  0.00    -0.259 C  
HETATM   12  C   UNL     1     -11.906  13.380  69.336  1.00  0.00    -0.390 C  
HETATM   13  C   UNL     1     -10.805  14.303  68.860  1.00  0.00    -0.272 C  
HETATM   14  C   UNL     1     -10.294  13.786  67.509  1.00  0.00    -0.241 C  
HETATM   15  C   UNL     1      -9.866  14.958  66.631  1.00  0.00    -0.272 C  
HETATM   16  C   UNL     1     -10.326  14.911  65.198  1.00  0.00    -0.431 C  
HETATM   17  C   UNL     1      -9.090  15.945  67.139  1.00  0.00    -0.226 C  
HETATM   18  C   UNL     1     -11.781  14.457  65.013  1.00  0.00    -0.389 C  
HETATM   19  C   UNL     1     -10.886  11.720  66.018  1.00  0.00    -0.343 C  
HETATM   20  C   UNL     1     -11.397  12.818  66.983  1.00  0.00    -0.364 C  
HETATM   21  C   UNL     1     -12.416  13.661  66.169  1.00  0.00    -0.449 C  
BRANCH  17  22
HETATM   22  C   UNL     1      -8.308  16.868  66.349  1.00  0.00    -0.333 C  
HETATM   23  C   UNL     1      -7.359  17.753  66.712  1.00  0.00    -0.239 C  
HETATM   24  C   UNL     1      -6.571  18.437  65.604  1.00  0.00    -0.313 C  
HETATM   25  C   UNL     1      -6.608  19.959  65.721  1.00  0.00    -0.243 C  
HETATM   26  C   UNL     1      -6.132  20.404  67.103  1.00  0.00    -0.230 C  
HETATM   27  O   UNL     1      -7.913  20.463  65.458  1.00  0.00    -0.499 OA 
HETATM   28  C   UNL     1      -6.939  19.732  68.216  1.00  0.00    -0.298 C  
HETATM   29  H   UNL     1      -7.936  21.410  65.530  1.00  0.00     0.000 HD 
HETATM   30  O   UNL     1      -6.364  20.119  69.468  1.00  0.00    -0.328 OA 
HETATM   31  C   UNL     1      -6.985  18.209  68.059  1.00  0.00    -0.217 C  
HETATM   32  C   UNL     1      -6.641  17.364  69.046  1.00  0.00    -0.232 C  
HETATM   33  H   UNL     1      -6.865  19.702  70.159  1.00  0.00     0.000 HD 
ENDBRANCH  17  22
ENDBRANCH   2   7
TORSDOF 3
ENDMDL
MODEL       20
REMARK 921   NORMALIZED FREE ENERGY PREDICTED BY IDOCK:   -6.95 KCAL/MOL
REMARK 922        TOTAL FREE ENERGY PREDICTED BY IDOCK:   -9.44 KCAL/MOL
REMARK 923 INTER-LIGAND FREE ENERGY PREDICTED BY IDOCK:   -8.11 KCAL/MOL
REMARK 924 INTRA-LIGAND FREE ENERGY PREDICTED BY IDOCK:   -1.33 KCAL/MOL
REMARK 927      BINDING AFFINITY PREDICTED BY RF-SCORE:    0.00 PKD
ROOT
HETATM    1  O   UNL     1      -9.624   3.248  68.541  1.00  0.00    -0.166 OA 
HETATM    2  C   UNL     1      -9.435   4.627  68.847  1.00  0.00    -0.153 C  
HETATM    3  H   UNL     1      -9.370   3.121  67.635  1.00  0.00     0.000 HD 
ENDROOT
BRANCH   2   4
HETATM    4  C   UNL     1     -10.180   5.443  67.820  1.00  0.00    -0.230 C  
HETATM    5  C   UNL     1      -9.927   6.922  67.669  1.00  0.00    -0.180 C  
HETATM    6  C   UNL     1     -11.220   6.442  68.265  1.00  0.00    -0.276 C  
ENDBRANCH   2   4
BRANCH   2   7
HETATM    7  C   UNL     1      -9.837   4.826  70.273  1.00  0.00    -0.313 C  
HETATM    8  C   UNL     1      -9.320   5.728  71.127  1.00  0.00    -0.174 C  
HETATM    9  C   UNL     1      -9.775   5.926  72.553  1.00  0.00    -0.172 C  
HETATM   10  C   UNL     1      -8.591   5.553  73.471  1.00  0.00    -0.114 C  
HETATM   11  C   UNL     1     -10.357   7.356  72.853  1.00  0.00    -0.328 C  
HETATM   12  C   UNL     1      -9.270   8.434  72.688  1.00  0.00    -0.325 C  
HETATM   13  C   UNL     1      -9.554   9.180  71.402  1.00  0.00    -0.316 C  
HETATM   14  C   UNL     1     -10.862   8.639  70.812  1.00  0.00    -0.272 C  
HETATM   15  C   UNL     1     -11.612   9.757  70.093  1.00  0.00    -0.239 C  
HETATM   16  C   UNL     1     -13.089   9.845  70.368  1.00  0.00     0.071 C  
HETATM   17  C   UNL     1     -10.956  10.581  69.242  1.00  0.00    -0.291 C  
HETATM   18  C   UNL     1     -13.474   9.646  71.841  1.00  0.00    -0.496 C  
HETATM   19  C   UNL     1     -12.535   6.761  71.530  1.00  0.00    -0.390 C  
HETATM   20  C   UNL     1     -11.574   7.888  71.979  1.00  0.00    -0.357 C  
HETATM   21  C   UNL     1     -12.452   8.920  72.737  1.00  0.00    -0.068 C  
BRANCH  17  22
HETATM   22  C   UNL     1     -11.590  11.393  68.227  1.00  0.00    -0.376 C  
HETATM   23  C   UNL     1     -11.059  12.174  67.267  1.00  0.00    -0.341 C  
HETATM   24  C   UNL     1     -12.003  12.739  66.216  1.00  0.00    -0.460 C  
HETATM   25  C   UNL     1     -11.898  14.258  66.099  1.00  0.00    -0.402 C  
HETATM   26  C   UNL     1     -10.453  14.679  65.836  1.00  0.00    -0.325 C  
HETATM   27  O   UNL     1     -12.399  14.899  67.267  1.00  0.00    -0.412 OA 
HETATM   28  C   UNL     1      -9.507  14.127  66.906  1.00  0.00    -0.267 C  
HETATM   29  H   UNL     1     -12.334  15.844  67.194  1.00  0.00     0.000 HD 
HETATM   30  O   UNL     1      -8.171  14.476  66.529  1.00  0.00    -0.353 OA 
HETATM   31  C   UNL     1      -9.667  12.616  67.096  1.00  0.00    -0.211 C  
HETATM   32  C   UNL     1      -8.632  11.761  67.037  1.00  0.00    -0.173 C  
HETATM   33  H   UNL     1      -7.584  14.134  67.193  1.00  0.00     0.000 HD 
ENDBRANCH  17  22
ENDBRANCH   2   7
TORSDOF 3
ENDMDL
MODEL       21
REMARK 921   NORMALIZED FREE ENERGY PREDICTED BY IDOCK:   -6.92 KCAL/MOL
REMARK 922        TOTAL FREE ENERGY PREDICTED BY IDOCK:   -9.42 KCAL/MOL
REMARK 923 INTER-LIGAND FREE ENERGY PREDICTED BY IDOCK:   -8.02 KCAL/MOL
REMARK 924 INTRA-LIGAND FREE ENERGY PREDICTED BY IDOCK:   -1.39 KCAL/MOL
REMARK 927      BINDING AFFINITY PREDICTED BY RF-SCORE:    0.00 PKD
ROOT
HETATM    1  O   UNL     1     -14.020   9.193  73.118  1.00  0.00    -1.101 OA 
HETATM    2  C   UNL     1     -13.519   8.734  71.866  1.00  0.00    -0.404 C  
HETATM    3  H   UNL     1     -14.774   9.742  72.938  1.00  0.00     0.000 HD 
ENDROOT
BRANCH   2   4
HETATM    4  C   UNL     1     -13.281   9.935  70.985  1.00  0.00    -0.375 C  
HETATM    5  C   UNL     1     -11.919  10.577  70.898  1.00  0.00    -0.481 C  
HETATM    6  C   UNL     1     -13.034  11.287  71.610  1.00  0.00    -0.537 C  
ENDBRANCH   2   4
BRANCH   2   7
HETATM    7  C   UNL     1     -12.332   7.871  72.150  1.00  0.00    -0.331 C  
HETATM    8  C   UNL     1     -11.715   7.053  71.277  1.00  0.00    -0.356 C  
HETATM    9  C   UNL     1     -10.494   6.221  71.590  1.00  0.00    -0.258 C  
HETATM   10  C   UNL     1     -10.906   4.737  71.476  1.00  0.00     0.125 C  
HETATM   11  C   UNL     1      -9.232   6.575  70.721  1.00  0.00    -0.156 C  
HETATM   12  C   UNL     1      -9.487   6.266  69.235  1.00  0.00    -0.142 C  
HETATM   13  C   UNL     1      -9.681   7.584  68.517  1.00  0.00    -0.159 C  
HETATM   14  C   UNL     1      -9.455   8.718  69.525  1.00  0.00    -0.165 C  
HETATM   15  C   UNL     1      -8.834   9.922  68.825  1.00  0.00    -0.136 C  
HETATM   16  C   UNL     1      -7.683  10.580  69.538  1.00  0.00    -0.141 C  
HETATM   17  C   UNL     1      -9.339  10.363  67.648  1.00  0.00    -0.161 C  
HETATM   18  C   UNL     1      -6.677   9.600  70.159  1.00  0.00    -0.089 C  
HETATM   19  C   UNL     1      -8.902   8.787  72.081  1.00  0.00    -0.153 C  
HETATM   20  C   UNL     1      -8.694   8.073  70.724  1.00  0.00    -0.139 C  
HETATM   21  C   UNL     1      -7.173   8.165  70.422  1.00  0.00    -0.048 C  
BRANCH  17  22
HETATM   22  C   UNL     1      -9.117  11.681  67.097  1.00  0.00    -0.171 C  
HETATM   23  C   UNL     1      -9.964  12.713  66.915  1.00  0.00    -0.232 C  
HETATM   24  C   UNL     1      -9.368  14.049  66.498  1.00  0.00    -0.274 C  
HETATM   25  C   UNL     1     -10.017  14.605  65.233  1.00  0.00    -0.294 C  
HETATM   26  C   UNL     1     -11.533  14.697  65.402  1.00  0.00    -0.352 C  
HETATM   27  O   UNL     1      -9.690  13.812  64.097  1.00  0.00    -0.517 OA 
HETATM   28  C   UNL     1     -12.134  13.347  65.800  1.00  0.00    -0.436 C  
HETATM   29  H   UNL     1     -10.094  14.158  63.310  1.00  0.00     0.000 HD 
HETATM   30  O   UNL     1     -13.531  13.544  66.039  1.00  0.00    -0.066 OA 
HETATM   31  C   UNL     1     -11.430  12.736  67.016  1.00  0.00    -0.397 C  
HETATM   32  C   UNL     1     -12.093  12.325  68.111  1.00  0.00    -0.076 C  
HETATM   33  H   UNL     1     -13.905  12.706  66.286  1.00  0.00     0.000 HD 
ENDBRANCH  17  22
ENDBRANCH   2   7
TORSDOF 3
ENDMDL
MODEL       22
REMARK 921   NORMALIZED FREE ENERGY PREDICTED BY IDOCK:   -6.91 KCAL/MOL
REMARK 922        TOTAL FREE ENERGY PREDICTED BY IDOCK:   -9.40 KCAL/MOL
REMARK 923 INTER-LIGAND FREE ENERGY PREDICTED BY IDOCK:   -8.33 KCAL/MOL
REMARK 924 INTRA-LIGAND FREE ENERGY PREDICTED BY IDOCK:   -1.07 KCAL/MOL
REMARK 927      BINDING AFFINITY PREDICTED BY RF-SCORE:    0.00 PKD
ROOT
HETATM    1  O   UNL     1     -12.595  16.329  71.803  1.00  0.00    -0.548 OA 
HETATM    2  C   UNL     1     -12.091  15.195  71.102  1.00  0.00    -0.333 C  
HETATM    3  H   UNL     1     -12.940  16.019  72.632  1.00  0.00     0.000 HD 
ENDROOT
BRANCH   2   4
HETATM    4  C   UNL     1     -13.188  14.161  71.029  1.00  0.00    -0.337 C  
HETATM    5  C   UNL     1     -13.683  13.464  72.271  1.00  0.00    -0.705 C  
HETATM    6  C   UNL     1     -12.865  12.706  71.264  1.00  0.00    -0.344 C  
ENDBRANCH   2   4
BRANCH   2   7
HETATM    7  C   UNL     1     -11.549  15.683  69.797  1.00  0.00    -0.360 C  
HETATM    8  C   UNL     1     -10.288  15.532  69.352  1.00  0.00    -0.258 C  
HETATM    9  C   UNL     1      -9.784  16.008  68.011  1.00  0.00    -0.217 C  
HETATM   10  C   UNL     1      -8.720  17.095  68.277  1.00  0.00    -0.241 C  
HETATM   11  C   UNL     1      -9.264  14.858  67.071  1.00  0.00    -0.249 C  
HETATM   12  C   UNL     1      -8.027  14.173  67.679  1.00  0.00    -0.187 C  
HETATM   13  C   UNL     1      -8.460  12.818  68.197  1.00  0.00    -0.177 C  
HETATM   14  C   UNL     1      -9.936  12.614  67.833  1.00  0.00    -0.228 C  
HETATM   15  C   UNL     1     -10.204  11.138  67.553  1.00  0.00    -0.216 C  
HETATM   16  C   UNL     1     -11.028  10.836  66.330  1.00  0.00    -0.108 C  
HETATM   17  C   UNL     1      -9.738  10.187  68.398  1.00  0.00    -0.157 C  
HETATM   18  C   UNL     1     -10.665  11.676  65.097  1.00  0.00    -0.351 C  
HETATM   19  C   UNL     1     -11.727  14.091  66.628  1.00  0.00    -0.420 C  
HETATM   20  C   UNL     1     -10.244  13.656  66.715  1.00  0.00    -0.268 C  
HETATM   21  C   UNL     1      -9.912  12.996  65.349  1.00  0.00    -0.201 C  
BRANCH  17  22
HETATM   22  C   UNL     1     -10.239   8.833  68.473  1.00  0.00    -0.220 C  
HETATM   23  C   UNL     1     -10.711   8.126  69.518  1.00  0.00    -0.180 C  
HETATM   24  C   UNL     1     -11.361   6.782  69.224  1.00  0.00    -0.224 C  
HETATM   25  C   UNL     1     -10.737   5.647  70.033  1.00  0.00    -0.320 C  
HETATM   26  C   UNL     1     -10.770   5.969  71.526  1.00  0.00    -0.309 C  
HETATM   27  O   UNL     1      -9.404   5.387  69.609  1.00  0.00    -0.127 OA 
HETATM   28  C   UNL     1     -10.097   7.312  71.823  1.00  0.00    -0.179 C  
HETATM   29  H   UNL     1      -9.016   4.680  70.112  1.00  0.00     0.000 HD 
HETATM   30  O   UNL     1     -10.264   7.585  73.219  1.00  0.00    -0.286 OA 
HETATM   31  C   UNL     1     -10.652   8.443  70.953  1.00  0.00    -0.243 C  
HETATM   32  C   UNL     1     -11.115   9.596  71.465  1.00  0.00    -0.335 C  
HETATM   33  H   UNL     1      -9.846   8.418  73.403  1.00  0.00     0.000 HD 
ENDBRANCH  17  22
ENDBRANCH   2   7
TORSDOF 3
ENDMDL
MODEL       23
REMARK 921   NORMALIZED FREE ENERGY PREDICTED BY IDOCK:   -6.86 KCAL/MOL
REMARK 922        TOTAL FREE ENERGY PREDICTED BY IDOCK:   -9.34 KCAL/MOL
REMARK 923 INTER-LIGAND FREE ENERGY PREDICTED BY IDOCK:   -7.71 KCAL/MOL
REMARK 924 INTRA-LIGAND FREE ENERGY PREDICTED BY IDOCK:   -1.63 KCAL/MOL
REMARK 927      BINDING AFFINITY PREDICTED BY RF-SCORE:    0.00 PKD
ROOT
HETATM    1  O   UNL     1      -7.761   8.349  69.397  1.00  0.00    -0.093 OA 
HETATM    2  C   UNL     1      -8.058   9.735  69.542  1.00  0.00    -0.141 C  
HETATM    3  H   UNL     1      -6.858   8.224  69.666  1.00  0.00     0.000 HD 
ENDROOT
BRANCH   2   4
HETATM    4  C   UNL     1      -7.017  10.521  68.784  1.00  0.00    -0.070 C  
HETATM    5  C   UNL     1      -7.082  12.026  68.706  1.00  0.00    -0.111 C  
HETATM    6  C   UNL     1      -7.385  11.201  67.488  1.00  0.00    -0.102 C  
ENDBRANCH   2   4
BRANCH   2   7
HETATM    7  C   UNL     1      -9.479   9.933  69.119  1.00  0.00    -0.201 C  
HETATM    8  C   UNL     1     -10.365  10.777  69.677  1.00  0.00    -0.142 C  
HETATM    9  C   UNL     1     -11.784  10.977  69.201  1.00  0.00    -0.403 C  
HETATM   10  C   UNL     1     -12.722  10.500  70.331  1.00  0.00    -0.325 C  
HETATM   11  C   UNL     1     -12.103  12.439  68.716  1.00  0.00    -0.158 C  
HETATM   12  C   UNL     1     -11.989  13.438  69.881  1.00  0.00    -0.408 C  
HETATM   13  C   UNL     1     -10.714  14.230  69.685  1.00  0.00    -0.034 C  
HETATM   14  C   UNL     1     -10.079  13.798  68.357  1.00  0.00    -0.241 C  
HETATM   15  C   UNL     1      -9.369  14.983  67.709  1.00  0.00    -0.186 C  
HETATM   16  C   UNL     1      -9.610  15.171  66.235  1.00  0.00    -0.325 C  
HETATM   17  C   UNL     1      -8.553  15.775  68.444  1.00  0.00    -0.171 C  
HETATM   18  C   UNL     1     -11.068  14.970  65.798  1.00  0.00    -0.346 C  
HETATM   19  C   UNL     1     -10.714  12.031  66.535  1.00  0.00    -0.293 C  
HETATM   20  C   UNL     1     -11.211  13.076  67.563  1.00  0.00    -0.320 C  
HETATM   21  C   UNL     1     -11.972  14.153  66.742  1.00  0.00    -0.475 C  
BRANCH  17  22
HETATM   22  C   UNL     1      -7.543  16.652  67.897  1.00  0.00    -0.169 C  
HETATM   23  C   UNL     1      -7.562  17.978  67.662  1.00  0.00    -0.219 C  
HETATM   24  C   UNL     1      -6.251  18.644  67.269  1.00  0.00    -0.183 C  
HETATM   25  C   UNL     1      -6.370  19.433  65.967  1.00  0.00    -0.196 C  
HETATM   26  C   UNL     1      -7.508  20.448  66.055  1.00  0.00    -0.175 C  
HETATM   27  O   UNL     1      -6.562  18.565  64.856  1.00  0.00    -0.480 OA 
HETATM   28  C   UNL     1      -8.830  19.775  66.430  1.00  0.00    -0.377 C  
HETATM   29  H   UNL     1      -6.635  19.056  64.046  1.00  0.00     0.000 HD 
HETATM   30  O   UNL     1      -9.813  20.802  66.594  1.00  0.00    -0.622 OA 
HETATM   31  C   UNL     1      -8.702  18.907  67.686  1.00  0.00    -0.312 C  
HETATM   32  C   UNL     1      -9.516  19.035  68.747  1.00  0.00    -0.433 C  
HETATM   33  H   UNL     1     -10.634  20.384  66.827  1.00  0.00     0.000 HD 
ENDBRANCH  17  22
ENDBRANCH   2   7
TORSDOF 3
ENDMDL
MODEL       24
REMARK 921   NORMALIZED FREE ENERGY PREDICTED BY IDOCK:   -6.83 KCAL/MOL
REMARK 922        TOTAL FREE ENERGY PREDICTED BY IDOCK:   -9.31 KCAL/MOL
REMARK 923 INTER-LIGAND FREE ENERGY PREDICTED BY IDOCK:   -8.03 KCAL/MOL
REMARK 924 INTRA-LIGAND FREE ENERGY PREDICTED BY IDOCK:   -1.28 KCAL/MOL
REMARK 927      BINDING AFFINITY PREDICTED BY RF-SCORE:    0.00 PKD
ROOT
HETATM    1  O   UNL     1     -11.997  11.119  62.921  1.00  0.00    -0.691 OA 
HETATM    2  C   UNL     1     -10.754  11.691  63.319  1.00  0.00    -0.333 C  
HETATM    3  H   UNL     1     -12.555  11.829  62.628  1.00  0.00     0.000 HD 
ENDROOT
BRANCH   2   4
HETATM    4  C   UNL     1     -11.039  12.780  64.324  1.00  0.00    -0.410 C  
HETATM    5  C   UNL     1     -11.838  12.498  65.571  1.00  0.00    -0.491 C  
HETATM    6  C   UNL     1     -12.441  13.321  64.468  1.00  0.00    -0.381 C  
ENDBRANCH   2   4
BRANCH   2   7
HETATM    7  C   UNL     1      -9.876  10.573  63.782  1.00  0.00    -0.363 C  
HETATM    8  C   UNL     1      -8.810  10.682  64.596  1.00  0.00    -0.191 C  
HETATM    9  C   UNL     1      -7.965   9.524  65.071  1.00  0.00    -0.119 C  
HETATM   10  C   UNL     1      -6.548   9.718  64.490  1.00  0.00    -0.113 C  
HETATM   11  C   UNL     1      -7.967   9.322  66.631  1.00  0.00    -0.108 C  
HETATM   12  C   UNL     1      -7.324  10.528  67.339  1.00  0.00    -0.093 C  
HETATM   13  C   UNL     1      -8.435  11.329  67.984  1.00  0.00    -0.138 C  
HETATM   14  C   UNL     1      -9.756  10.580  67.765  1.00  0.00    -0.180 C  
HETATM   15  C   UNL     1     -10.681  10.795  68.959  1.00  0.00    -0.265 C  
HETATM   16  C   UNL     1     -11.378   9.568  69.484  1.00  0.00    -0.025 C  
HETATM   17  C   UNL     1     -10.862  12.037  69.467  1.00  0.00     0.035 C  
HETATM   18  C   UNL     1     -10.489   8.319  69.567  1.00  0.00    -0.228 C  
HETATM   19  C   UNL     1     -10.403   8.373  66.519  1.00  0.00    -0.199 C  
HETATM   20  C   UNL     1      -9.357   9.123  67.378  1.00  0.00    -0.161 C  
HETATM   21  C   UNL     1      -9.220   8.306  68.692  1.00  0.00    -0.143 C  
BRANCH  17  22
HETATM   22  C   UNL     1     -11.973  12.432  70.303  1.00  0.00    -0.371 C  
HETATM   23  C   UNL     1     -12.453  13.653  70.611  1.00  0.00    -0.417 C  
HETATM   24  C   UNL     1     -13.777  13.722  71.359  1.00  0.00    -0.197 C  
HETATM   25  C   UNL     1     -13.676  14.548  72.639  1.00  0.00    -0.440 C  
HETATM   26  C   UNL     1     -13.131  15.943  72.338  1.00  0.00    -0.503 C  
HETATM   27  O   UNL     1     -12.865  13.896  73.609  1.00  0.00    -0.123 OA 
HETATM   28  C   UNL     1     -11.789  15.872  71.604  1.00  0.00    -0.490 C  
HETATM   29  H   UNL     1     -12.803  14.410  74.406  1.00  0.00     0.000 HD 
HETATM   30  O   UNL     1     -11.403  17.209  71.268  1.00  0.00    -0.200 OA 
HETATM   31  C   UNL     1     -11.854  14.973  70.366  1.00  0.00    -0.345 C  
HETATM   32  C   UNL     1     -11.464  15.382  69.146  1.00  0.00    -0.344 C  
HETATM   33  H   UNL     1     -10.570  17.165  70.813  1.00  0.00     0.000 HD 
ENDBRANCH  17  22
ENDBRANCH   2   7
TORSDOF 3
ENDMDL
MODEL       25
REMARK 921   NORMALIZED FREE ENERGY PREDICTED BY IDOCK:   -6.76 KCAL/MOL
REMARK 922        TOTAL FREE ENERGY PREDICTED BY IDOCK:   -9.23 KCAL/MOL
REMARK 923 INTER-LIGAND FREE ENERGY PREDICTED BY IDOCK:   -8.21 KCAL/MOL
REMARK 924 INTRA-LIGAND FREE ENERGY PREDICTED BY IDOCK:   -1.02 KCAL/MOL
REMARK 927      BINDING AFFINITY PREDICTED BY RF-SCORE:    0.00 PKD
ROOT
HETATM    1  O   UNL     1     -11.389   6.164  66.611  1.00  0.00    -0.727 OA 
HETATM    2  C   UNL     1     -10.199   5.636  67.191  1.00  0.00    -0.212 C  
HETATM    3  H   UNL     1     -11.197   6.364  65.703  1.00  0.00     0.000 HD 
ENDROOT
BRANCH   2   4
HETATM    4  C   UNL     1      -9.079   6.616  66.941  1.00  0.00    -0.144 C  
HETATM    5  C   UNL     1      -9.356   7.983  66.369  1.00  0.00    -0.259 C  
HETATM    6  C   UNL     1      -8.672   6.945  65.526  1.00  0.00    -0.041 C  
ENDBRANCH   2   4
BRANCH   2   7
HETATM    7  C   UNL     1     -10.502   5.322  68.621  1.00  0.00    -0.148 C  
HETATM    8  C   UNL     1      -9.833   5.779  69.695  1.00  0.00    -0.230 C  
HETATM    9  C   UNL     1     -10.188   5.469  71.130  1.00  0.00    -0.285 C  
HETATM   10  C   UNL     1      -9.018   4.660  71.731  1.00  0.00    -0.156 C  
HETATM   11  C   UNL     1     -10.567   6.731  71.988  1.00  0.00    -0.239 C  
HETATM   12  C   UNL     1      -9.360   7.676  72.131  1.00  0.00    -0.188 C  
HETATM   13  C   UNL     1      -9.608   8.876  71.243  1.00  0.00    -0.348 C  
HETATM   14  C   UNL     1     -11.003   8.733  70.620  1.00  0.00    -0.278 C  
HETATM   15  C   UNL     1     -11.637  10.109  70.438  1.00  0.00    -0.396 C  
HETATM   16  C   UNL     1     -13.076  10.234  70.861  1.00  0.00    -0.423 C  
HETATM   17  C   UNL     1     -10.923  11.122  69.892  1.00  0.00    -0.162 C  
HETATM   18  C   UNL     1     -13.411   9.535  72.187  1.00  0.00    -0.545 C  
HETATM   19  C   UNL     1     -12.865   6.901  70.748  1.00  0.00    -0.033 C  
HETATM   20  C   UNL     1     -11.747   7.673  71.489  1.00  0.00    -0.310 C  
HETATM   21  C   UNL     1     -12.448   8.426  72.653  1.00  0.00    -0.255 C  
BRANCH  17  22
HETATM   22  C   UNL     1     -11.496  12.316  69.313  1.00  0.00    -0.352 C  
HETATM   23  C   UNL     1     -11.041  13.127  68.339  1.00  0.00    -0.298 C  
HETATM   24  C   UNL     1     -11.988  14.194  67.809  1.00  0.00    -0.389 C  
HETATM   25  C   UNL     1     -11.378  15.593  67.869  1.00  0.00    -0.302 C  
HETATM   26  C   UNL     1     -10.035  15.626  67.141  1.00  0.00    -0.240 C  
HETATM   27  O   UNL     1     -11.226  16.029  69.215  1.00  0.00    -0.302 OA 
HETATM   28  C   UNL     1      -9.076  14.567  67.689  1.00  0.00    -0.195 C  
HETATM   29  H   UNL     1     -10.847  16.899  69.253  1.00  0.00     0.000 HD 
HETATM   30  O   UNL     1      -7.890  14.595  66.888  1.00  0.00    -0.342 OA 
HETATM   31  C   UNL     1      -9.709  13.172  67.718  1.00  0.00    -0.218 C  
HETATM   32  C   UNL     1      -9.128  12.097  67.158  1.00  0.00    -0.189 C  
HETATM   33  H   UNL     1      -7.294  13.937  67.228  1.00  0.00     0.000 HD 
ENDBRANCH  17  22
ENDBRANCH   2   7
TORSDOF 3
ENDMDL
MODEL       26
REMARK 921   NORMALIZED FREE ENERGY PREDICTED BY IDOCK:   -6.75 KCAL/MOL
REMARK 922        TOTAL FREE ENERGY PREDICTED BY IDOCK:   -9.22 KCAL/MOL
REMARK 923 INTER-LIGAND FREE ENERGY PREDICTED BY IDOCK:   -8.08 KCAL/MOL
REMARK 924 INTRA-LIGAND FREE ENERGY PREDICTED BY IDOCK:   -1.13 KCAL/MOL
REMARK 927      BINDING AFFINITY PREDICTED BY RF-SCORE:    0.00 PKD
ROOT
HETATM    1  O   UNL     1     -12.423  13.503  71.294  1.00  0.00    -0.347 OA 
HETATM    2  C   UNL     1     -13.280  14.554  70.857  1.00  0.00    -0.316 C  
HETATM    3  H   UNL     1     -12.683  13.276  72.179  1.00  0.00     0.000 HD 
ENDROOT
BRANCH   2   4
HETATM    4  C   UNL     1     -13.224  15.663  71.879  1.00  0.00    -0.537 C  
HETATM    5  C   UNL     1     -11.926  16.034  72.552  1.00  0.00    -0.649 C  
HETATM    6  C   UNL     1     -12.999  15.331  73.334  1.00  0.00    -0.656 C  
ENDBRANCH   2   4
BRANCH   2   7
HETATM    7  C   UNL     1     -12.871  14.912  69.464  1.00  0.00     0.249 C  
HETATM    8  C   UNL     1     -11.626  15.210  69.052  1.00  0.00    -0.350 C  
HETATM    9  C   UNL     1     -11.242  15.533  67.627  1.00  0.00    -0.291 C  
HETATM   10  C   UNL     1     -10.751  16.997  67.602  1.00  0.00    -0.295 C  
HETATM   11  C   UNL     1     -10.211  14.529  66.993  1.00  0.00    -0.262 C  
HETATM   12  C   UNL     1      -8.862  14.590  67.734  1.00  0.00    -0.183 C  
HETATM   13  C   UNL     1      -8.743  13.339  68.576  1.00  0.00    -0.059 C  
HETATM   14  C   UNL     1      -9.962  12.452  68.294  1.00  0.00    -0.224 C  
HETATM   15  C   UNL     1      -9.570  10.980  68.391  1.00  0.00    -0.181 C  
HETATM   16  C   UNL     1     -10.081  10.087  67.292  1.00  0.00    -0.259 C  
HETATM   17  C   UNL     1      -8.833  10.538  69.438  1.00  0.00    -0.091 C  
HETATM   18  C   UNL     1      -9.986  10.694  65.885  1.00  0.00    -0.312 C  
HETATM   19  C   UNL     1     -12.085  12.714  66.789  1.00  0.00    -0.236 C  
HETATM   20  C   UNL     1     -10.570  12.980  66.959  1.00  0.00    -0.262 C  
HETATM   21  C   UNL     1      -9.871  12.228  65.793  1.00  0.00    -0.260 C  
BRANCH  17  22
HETATM   22  C   UNL     1      -8.735   9.156  69.851  1.00  0.00    -0.170 C  
HETATM   23  C   UNL     1      -9.626   8.358  70.471  1.00  0.00    -0.188 C  
HETATM   24  C   UNL     1      -9.289   6.878  70.582  1.00  0.00    -0.162 C  
HETATM   25  C   UNL     1      -9.356   6.375  72.022  1.00  0.00    -0.151 C  
HETATM   26  C   UNL     1     -10.720   6.685  72.637  1.00  0.00    -0.265 C  
HETATM   27  O   UNL     1      -8.314   6.936  72.812  1.00  0.00    -0.109 OA 
HETATM   28  C   UNL     1     -11.049   8.177  72.544  1.00  0.00    -0.377 C  
HETATM   29  H   UNL     1      -8.356   6.623  73.708  1.00  0.00     0.000 HD 
HETATM   30  O   UNL     1     -12.377   8.364  73.043  1.00  0.00    -0.616 OA 
HETATM   31  C   UNL     1     -10.897   8.715  71.118  1.00  0.00    -0.320 C  
HETATM   32  C   UNL     1     -11.872   9.391  70.487  1.00  0.00    -0.207 C  
HETATM   33  H   UNL     1     -12.581   9.290  72.985  1.00  0.00     0.000 HD 
ENDBRANCH  17  22
ENDBRANCH   2   7
TORSDOF 3
ENDMDL
MODEL       27
REMARK 921   NORMALIZED FREE ENERGY PREDICTED BY IDOCK:   -6.57 KCAL/MOL
REMARK 922        TOTAL FREE ENERGY PREDICTED BY IDOCK:   -9.00 KCAL/MOL
REMARK 923 INTER-LIGAND FREE ENERGY PREDICTED BY IDOCK:   -8.21 KCAL/MOL
REMARK 924 INTRA-LIGAND FREE ENERGY PREDICTED BY IDOCK:   -0.79 KCAL/MOL
REMARK 927      BINDING AFFINITY PREDICTED BY RF-SCORE:    0.00 PKD
ROOT
HETATM    1  O   UNL     1      -6.269  11.096  65.241  1.00  0.00    -0.359 OA 
HETATM    2  C   UNL     1      -6.550   9.949  64.444  1.00  0.00    -0.125 C  
HETATM    3  H   UNL     1      -5.356  11.321  65.102  1.00  0.00     0.000 HD 
ENDROOT
BRANCH   2   4
HETATM    4  C   UNL     1      -5.537   8.883  64.782  1.00  0.00    -0.061 C  
HETATM    5  C   UNL     1      -5.196   7.794  63.795  1.00  0.00    -0.037 C  
HETATM    6  C   UNL     1      -5.993   7.465  65.025  1.00  0.00    -0.038 C  
ENDBRANCH   2   4
BRANCH   2   7
HETATM    7  C   UNL     1      -7.986   9.595  64.664  1.00  0.00    -0.135 C  
HETATM    8  C   UNL     1      -8.679   9.754  65.807  1.00  0.00    -0.160 C  
HETATM    9  C   UNL     1     -10.141   9.418  65.983  1.00  0.00    -0.302 C  
HETATM   10  C   UNL     1     -10.230   8.272  67.014  1.00  0.00    -0.380 C  
HETATM   11  C   UNL     1     -11.046  10.649  66.355  1.00  0.00     0.039 C  
HETATM   12  C   UNL     1     -10.656  11.218  67.731  1.00  0.00    -0.239 C  
HETATM   13  C   UNL     1      -9.917  12.518  67.500  1.00  0.00    -0.201 C  
HETATM   14  C   UNL     1      -9.924  12.813  65.994  1.00  0.00    -0.277 C  
HETATM   15  C   UNL     1      -9.982  14.320  65.759  1.00  0.00    -0.346 C  
HETATM   16  C   UNL     1     -10.956  14.787  64.710  1.00  0.00    -0.393 C  
HETATM   17  C   UNL     1      -9.166  15.150  66.450  1.00  0.00    -0.334 C  
HETATM   18  C   UNL     1     -12.320  14.083  64.751  1.00  0.00    -0.437 C  
HETATM   19  C   UNL     1     -10.854  11.546  63.904  1.00  0.00    -0.469 C  
HETATM   20  C   UNL     1     -11.050  11.917  65.393  1.00  0.00    -0.360 C  
HETATM   21  C   UNL     1     -12.379  12.718  65.462  1.00  0.00    -0.495 C  
BRANCH  17  22
HETATM   22  C   UNL     1      -8.841  16.503  66.056  1.00  0.00    -0.267 C  
HETATM   23  C   UNL     1      -8.783  17.639  66.777  1.00  0.00    -0.277 C  
HETATM   24  C   UNL     1      -8.202  18.874  66.103  1.00  0.00    -0.222 C  
HETATM   25  C   UNL     1      -9.148  20.071  66.171  1.00  0.00    -0.277 C  
HETATM   26  C   UNL     1      -9.547  20.360  67.617  1.00  0.00    -0.517 C  
HETATM   27  O   UNL     1     -10.304  19.858  65.369  1.00  0.00    -0.360 OA 
HETATM   28  C   UNL     1     -10.150  19.123  68.289  1.00  0.00    -0.416 C  
HETATM   29  H   UNL     1     -10.893  20.603  65.411  1.00  0.00     0.000 HD 
HETATM   30  O   UNL     1     -10.396  19.447  69.661  1.00  0.00    -0.485 OA 
HETATM   31  C   UNL     1      -9.250  17.892  68.148  1.00  0.00    -0.278 C  
HETATM   32  C   UNL     1      -8.862  17.150  69.200  1.00  0.00    -0.002 C  
HETATM   33  H   UNL     1     -10.770  18.680  70.078  1.00  0.00     0.000 HD 
ENDBRANCH  17  22
ENDBRANCH   2   7
TORSDOF 3
ENDMDL
MODEL       28
REMARK 921   NORMALIZED FREE ENERGY PREDICTED BY IDOCK:   -6.56 KCAL/MOL
REMARK 922        TOTAL FREE ENERGY PREDICTED BY IDOCK:   -9.00 KCAL/MOL
REMARK 923 INTER-LIGAND FREE ENERGY PREDICTED BY IDOCK:   -7.57 KCAL/MOL
REMARK 924 INTRA-LIGAND FREE ENERGY PREDICTED BY IDOCK:   -1.43 KCAL/MOL
REMARK 927      BINDING AFFINITY PREDICTED BY RF-SCORE:    0.00 PKD
ROOT
HETATM    1  O   UNL     1     -10.855   7.042  73.665  1.00  0.00    -0.516 OA 
HETATM    2  C   UNL     1     -11.373   6.248  72.601  1.00  0.00    -0.247 C  
HETATM    3  H   UNL     1     -11.558   7.606  73.965  1.00  0.00     0.000 HD 
ENDROOT
BRANCH   2   4
HETATM    4  C   UNL     1     -11.974   7.174  71.573  1.00  0.00    -0.361 C  
HETATM    5  C   UNL     1     -12.513   8.527  71.966  1.00  0.00    -0.417 C  
HETATM    6  C   UNL     1     -13.461   7.430  71.572  1.00  0.00    -0.445 C  
ENDBRANCH   2   4
BRANCH   2   7
HETATM    7  C   UNL     1     -10.266   5.359  72.130  1.00  0.00    -0.253 C  
HETATM    8  C   UNL     1     -10.271   4.605  71.015  1.00  0.00    -0.207 C  
HETATM    9  C   UNL     1      -9.121   3.744  70.551  1.00  0.00    -0.189 C  
HETATM   10  C   UNL     1      -9.594   2.276  70.597  1.00  0.00    -0.149 C  
HETATM   11  C   UNL     1      -8.532   4.155  69.151  1.00  0.00    -0.098 C  
HETATM   12  C   UNL     1      -9.578   3.958  68.039  1.00  0.00    -0.189 C  
HETATM   13  C   UNL     1     -10.075   5.327  67.627  1.00  0.00    -0.216 C  
HETATM   14  C   UNL     1      -9.279   6.382  68.406  1.00  0.00    -0.120 C  
HETATM   15  C   UNL     1      -9.093   7.631  67.551  1.00  0.00    -0.131 C  
HETATM   16  C   UNL     1      -7.710   8.227  67.545  1.00  0.00    -0.099 C  
HETATM   17  C   UNL     1     -10.142   8.160  66.878  1.00  0.00    -0.367 C  
HETATM   18  C   UNL     1      -6.575   7.198  67.447  1.00  0.00    -0.059 C  
HETATM   19  C   UNL     1      -7.406   6.258  70.228  1.00  0.00    -0.089 C  
HETATM   20  C   UNL     1      -8.014   5.645  68.943  1.00  0.00    -0.097 C  
HETATM   21  C   UNL     1      -6.909   5.750  67.856  1.00  0.00    -0.060 C  
BRANCH  17  22
HETATM   22  C   UNL     1     -10.201   9.514  66.375  1.00  0.00    -0.302 C  
HETATM   23  C   UNL     1     -10.328  10.689  67.022  1.00  0.00    -0.280 C  
HETATM   24  C   UNL     1     -10.146  11.964  66.212  1.00  0.00    -0.249 C  
HETATM   25  C   UNL     1     -11.335  12.913  66.348  1.00  0.00    -0.319 C  
HETATM   26  C   UNL     1     -11.611  13.220  67.819  1.00  0.00    -0.380 C  
HETATM   27  O   UNL     1     -12.496  12.375  65.725  1.00  0.00    -0.615 OA 
HETATM   28  C   UNL     1     -11.815  11.937  68.630  1.00  0.00    -0.308 C  
HETATM   29  H   UNL     1     -13.235  12.965  65.810  1.00  0.00     0.000 HD 
HETATM   30  O   UNL     1     -11.962  12.308  70.004  1.00  0.00    -0.327 OA 
HETATM   31  C   UNL     1     -10.671  10.939  68.430  1.00  0.00    -0.240 C  
HETATM   32  C   UNL     1      -9.992  10.395  69.454  1.00  0.00    -0.240 C  
HETATM   33  H   UNL     1     -12.089  11.512  70.507  1.00  0.00     0.000 HD 
ENDBRANCH  17  22
ENDBRANCH   2   7
TORSDOF 3
ENDMDL
MODEL       29
REMARK 921   NORMALIZED FREE ENERGY PREDICTED BY IDOCK:   -6.52 KCAL/MOL
REMARK 922        TOTAL FREE ENERGY PREDICTED BY IDOCK:   -8.94 KCAL/MOL
REMARK 923 INTER-LIGAND FREE ENERGY PREDICTED BY IDOCK:   -7.53 KCAL/MOL
REMARK 924 INTRA-LIGAND FREE ENERGY PREDICTED BY IDOCK:   -1.41 KCAL/MOL
REMARK 927      BINDING AFFINITY PREDICTED BY RF-SCORE:    0.00 PKD
ROOT
HETATM    1  O   UNL     1     -12.087  11.978  66.978  1.00  0.00    -0.603 OA 
HETATM    2  C   UNL     1     -11.278  10.889  67.412  1.00  0.00    -0.273 C  
HETATM    3  H   UNL     1     -12.135  11.936  66.030  1.00  0.00     0.000 HD 
ENDROOT
BRANCH   2   4
HETATM    4  C   UNL     1      -9.966  10.953  66.670  1.00  0.00    -0.250 C  
HETATM    5  C   UNL     1      -9.535   9.835  65.754  1.00  0.00    -0.300 C  
HETATM    6  C   UNL     1      -8.833  10.038  67.067  1.00  0.00    -0.147 C  
ENDBRANCH   2   4
BRANCH   2   7
HETATM    7  C   UNL     1     -11.202  10.957  68.904  1.00  0.00    -0.327 C  
HETATM    8  C   UNL     1     -11.958  10.259  69.771  1.00  0.00    -0.176 C  
HETATM    9  C   UNL     1     -11.831  10.326  71.275  1.00  0.00    -0.425 C  
HETATM   10  C   UNL     1     -13.148  10.917  71.823  1.00  0.00    -0.564 C  
HETATM   11  C   UNL     1     -11.443   8.960  71.951  1.00  0.00    -0.442 C  
HETATM   12  C   UNL     1     -12.554   7.914  71.748  1.00  0.00    -0.353 C  
HETATM   13  C   UNL     1     -12.068   6.921  70.715  1.00  0.00    -0.400 C  
HETATM   14  C   UNL     1     -10.625   7.285  70.341  1.00  0.00    -0.240 C  
HETATM   15  C   UNL     1      -9.834   6.019  70.023  1.00  0.00    -0.215 C  
HETATM   16  C   UNL     1      -8.459   5.929  70.630  1.00  0.00    -0.129 C  
HETATM   17  C   UNL     1     -10.361   5.071  69.212  1.00  0.00    -0.199 C  
HETATM   18  C   UNL     1      -8.378   6.396  72.090  1.00  0.00    -0.108 C  
HETATM   19  C   UNL     1      -8.994   9.200  71.059  1.00  0.00    -0.281 C  
HETATM   20  C   UNL     1     -10.116   8.220  71.480  1.00  0.00    -0.270 C  
HETATM   21  C   UNL     1      -9.503   7.322  72.590  1.00  0.00    -0.186 C  
BRANCH  17  22
HETATM   22  C   UNL     1      -9.596   4.053  68.528  1.00  0.00    -0.184 C  
HETATM   23  C   UNL     1      -8.892   4.102  67.380  1.00  0.00    -0.128 C  
HETATM   24  C   UNL     1      -8.020   2.904  67.036  1.00  0.00    -0.075 C  
HETATM   25  C   UNL     1      -8.323   2.346  65.647  1.00  0.00    -0.092 C  
HETATM   26  C   UNL     1      -8.208   3.443  64.590  1.00  0.00    -0.090 C  
HETATM   27  O   UNL     1      -9.612   1.747  65.604  1.00  0.00    -0.332 OA 
HETATM   28  C   UNL     1      -9.102   4.640  64.927  1.00  0.00    -0.154 C  
HETATM   29  H   UNL     1      -9.801   1.399  64.740  1.00  0.00     0.000 HD 
HETATM   30  O   UNL     1      -8.857   5.657  63.950  1.00  0.00    -0.346 OA 
HETATM   31  C   UNL     1      -8.871   5.152  66.351  1.00  0.00    -0.120 C  
HETATM   32  C   UNL     1      -8.599   6.439  66.627  1.00  0.00    -0.121 C  
HETATM   33  H   UNL     1      -9.412   6.399  64.159  1.00  0.00     0.000 HD 
ENDBRANCH  17  22
ENDBRANCH   2   7
TORSDOF 3
ENDMDL
MODEL       30
REMARK 921   NORMALIZED FREE ENERGY PREDICTED BY IDOCK:   -6.49 KCAL/MOL
REMARK 922        TOTAL FREE ENERGY PREDICTED BY IDOCK:   -8.91 KCAL/MOL
REMARK 923 INTER-LIGAND FREE ENERGY PREDICTED BY IDOCK:   -7.86 KCAL/MOL
REMARK 924 INTRA-LIGAND FREE ENERGY PREDICTED BY IDOCK:   -1.05 KCAL/MOL
REMARK 927      BINDING AFFINITY PREDICTED BY RF-SCORE:    0.00 PKD
ROOT
HETATM    1  O   UNL     1     -10.118   9.971  62.535  1.00  0.00    -0.588 OA 
HETATM    2  C   UNL     1      -9.584  10.925  63.448  1.00  0.00    -0.332 C  
HETATM    3  H   UNL     1     -10.752  10.423  61.991  1.00  0.00     0.000 HD 
ENDROOT
BRANCH   2   4
HETATM    4  C   UNL     1     -10.735  11.586  64.166  1.00  0.00    -0.428 C  
HETATM    5  C   UNL     1     -11.610  12.595  63.466  1.00  0.00    -0.584 C  
HETATM    6  C   UNL     1     -10.652  13.048  64.531  1.00  0.00    -0.413 C  
ENDBRANCH   2   4
BRANCH   2   7
HETATM    7  C   UNL     1      -8.587  10.212  64.305  1.00  0.00    -0.200 C  
HETATM    8  C   UNL     1      -7.722  10.783  65.163  1.00  0.00     0.100 C  
HETATM    9  C   UNL     1      -6.752  10.028  66.040  1.00  0.00    -0.100 C  
HETATM   10  C   UNL     1      -5.326  10.406  65.584  1.00  0.00    -0.089 C  
HETATM   11  C   UNL     1      -6.978  10.238  67.582  1.00  0.00    -0.084 C  
HETATM   12  C   UNL     1      -6.727  11.704  67.977  1.00  0.00    -0.064 C  
HETATM   13  C   UNL     1      -8.072  12.346  68.241  1.00  0.00    -0.166 C  
HETATM   14  C   UNL     1      -9.154  11.267  68.106  1.00  0.00    -0.166 C  
HETATM   15  C   UNL     1     -10.294  11.548  69.081  1.00  0.00    -0.086 C  
HETATM   16  C   UNL     1     -10.805  10.364  69.859  1.00  0.00    -0.353 C  
HETATM   17  C   UNL     1     -10.811  12.795  69.186  1.00  0.00    -0.123 C  
HETATM   18  C   UNL     1      -9.706   9.435  70.394  1.00  0.00    -0.315 C  
HETATM   19  C   UNL     1      -9.113   8.726  67.487  1.00  0.00    -0.146 C  
HETATM   20  C   UNL     1      -8.405   9.903  68.201  1.00  0.00    -0.110 C  
HETATM   21  C   UNL     1      -8.331   9.509  69.702  1.00  0.00    -0.155 C  
BRANCH  17  22
HETATM   22  C   UNL     1     -12.106  13.107  69.748  1.00  0.00    -0.336 C  
HETATM   23  C   UNL     1     -12.532  14.188  70.430  1.00  0.00    -0.424 C  
HETATM   24  C   UNL     1     -14.024  14.304  70.707  1.00  0.00     0.347 C  
HETATM   25  C   UNL     1     -14.324  14.501  72.191  1.00  0.00    -0.510 C  
HETATM   26  C   UNL     1     -13.559  15.704  72.740  1.00  0.00    -0.678 C  
HETATM   27  O   UNL     1     -14.013  13.331  72.939  1.00  0.00    -0.657 OA 
HETATM   28  C   UNL     1     -12.056  15.577  72.479  1.00  0.00    -0.437 C  
HETATM   29  H   UNL     1     -14.201  13.453  73.862  1.00  0.00     0.000 HD 
HETATM   30  O   UNL     1     -11.431  16.785  72.926  1.00  0.00    -0.046 OA 
HETATM   31  C   UNL     1     -11.746  15.288  71.007  1.00  0.00    -0.394 C  
HETATM   32  C   UNL     1     -10.885  16.026  70.286  1.00  0.00    -0.327 C  
HETATM   33  H   UNL     1     -10.498  16.705  72.764  1.00  0.00     0.000 HD 
ENDBRANCH  17  22
ENDBRANCH   2   7
TORSDOF 3
ENDMDL
MODEL       31
REMARK 921   NORMALIZED FREE ENERGY PREDICTED BY IDOCK:   -6.42 KCAL/MOL
REMARK 922        TOTAL FREE ENERGY PREDICTED BY IDOCK:   -8.82 KCAL/MOL
REMARK 923 INTER-LIGAND FREE ENERGY PREDICTED BY IDOCK:   -7.91 KCAL/MOL
REMARK 924 INTRA-LIGAND FREE ENERGY PREDICTED BY IDOCK:   -0.91 KCAL/MOL
REMARK 927      BINDING AFFINITY PREDICTED BY RF-SCORE:    0.00 PKD
ROOT
HETATM    1  O   UNL     1     -11.013   8.917  72.288  1.00  0.00    -0.337 OA 
HETATM    2  C   UNL     1      -9.995   7.990  72.658  1.00  0.00    -0.290 C  
HETATM    3  H   UNL     1     -11.420   9.225  73.089  1.00  0.00     0.000 HD 
ENDROOT
BRANCH   2   4
HETATM    4  C   UNL     1     -10.617   6.938  73.543  1.00  0.00    -0.378 C  
HETATM    5  C   UNL     1      -9.828   5.733  73.990  1.00  0.00    -0.194 C  
HETATM    6  C   UNL     1     -10.929   5.573  72.980  1.00  0.00    -0.336 C  
ENDBRANCH   2   4
BRANCH   2   7
HETATM    7  C   UNL     1      -9.355   7.505  71.397  1.00  0.00    -0.151 C  
HETATM    8  C   UNL     1      -9.945   7.405  70.192  1.00  0.00    -0.184 C  
HETATM    9  C   UNL     1      -9.257   6.943  68.930  1.00  0.00    -0.132 C  
HETATM   10  C   UNL     1      -9.931   5.625  68.492  1.00  0.00    -0.205 C  
HETATM   11  C   UNL     1      -9.217   8.021  67.786  1.00  0.00    -0.142 C  
HETATM   12  C   UNL     1     -10.639   8.354  67.298  1.00  0.00    -0.328 C  
HETATM   13  C   UNL     1     -11.001   9.722  67.835  1.00  0.00    -0.246 C  
HETATM   14  C   UNL     1      -9.781  10.286  68.574  1.00  0.00    -0.167 C  
HETATM   15  C   UNL     1      -9.730  11.803  68.414  1.00  0.00    -0.197 C  
HETATM   16  C   UNL     1      -8.384  12.387  68.079  1.00  0.00    -0.170 C  
HETATM   17  C   UNL     1     -10.846  12.547  68.604  1.00  0.00    -0.280 C  
HETATM   18  C   UNL     1      -7.592  11.596  67.028  1.00  0.00    -0.154 C  
HETATM   19  C   UNL     1      -7.390   9.362  69.095  1.00  0.00    -0.071 C  
HETATM   20  C   UNL     1      -8.564   9.440  68.089  1.00  0.00    -0.120 C  
HETATM   21  C   UNL     1      -7.991  10.122  66.817  1.00  0.00    -0.115 C  
BRANCH  17  22
HETATM   22  C   UNL     1     -10.854  13.967  68.871  1.00  0.00    -0.278 C  
HETATM   23  C   UNL     1     -11.105  15.014  68.061  1.00  0.00    -0.304 C  
HETATM   24  C   UNL     1     -11.238  16.387  68.703  1.00  0.00    -0.332 C  
HETATM   25  C   UNL     1     -10.304  17.416  68.070  1.00  0.00    -0.362 C  
HETATM   26  C   UNL     1     -10.521  17.482  66.559  1.00  0.00    -0.270 C  
HETATM   27  O   UNL     1      -8.943  17.124  68.365  1.00  0.00    -0.243 OA 
HETATM   28  C   UNL     1     -10.367  16.104  65.911  1.00  0.00    -0.367 C  
HETATM   29  H   UNL     1      -8.362  17.764  67.971  1.00  0.00     0.000 HD 
HETATM   30  O   UNL     1     -10.688  16.235  64.522  1.00  0.00    -0.830 OA 
HETATM   31  C   UNL     1     -11.233  15.042  66.596  1.00  0.00    -0.311 C  
HETATM   32  C   UNL     1     -12.089  14.255  65.923  1.00  0.00    -0.416 C  
HETATM   33  H   UNL     1     -10.592  15.379  64.120  1.00  0.00     0.000 HD 
ENDBRANCH  17  22
ENDBRANCH   2   7
TORSDOF 3
ENDMDL
MODEL       32
REMARK 921   NORMALIZED FREE ENERGY PREDICTED BY IDOCK:   -6.30 KCAL/MOL
REMARK 922        TOTAL FREE ENERGY PREDICTED BY IDOCK:   -8.69 KCAL/MOL
REMARK 923 INTER-LIGAND FREE ENERGY PREDICTED BY IDOCK:   -7.35 KCAL/MOL
REMARK 924 INTRA-LIGAND FREE ENERGY PREDICTED BY IDOCK:   -1.34 KCAL/MOL
REMARK 927      BINDING AFFINITY PREDICTED BY RF-SCORE:    0.00 PKD
ROOT
HETATM    1  O   UNL     1     -14.235   9.106  73.101  1.00  0.00    -1.118 OA 
HETATM    2  C   UNL     1     -13.293   8.934  72.046  1.00  0.00    -0.421 C  
HETATM    3  H   UNL     1     -14.919   9.682  72.780  1.00  0.00     0.000 HD 
ENDROOT
BRANCH   2   4
HETATM    4  C   UNL     1     -12.856  10.301  71.579  1.00  0.00    -0.557 C  
HETATM    5  C   UNL     1     -12.811  10.643  70.112  1.00  0.00    -0.146 C  
HETATM    6  C   UNL     1     -11.530  10.465  70.876  1.00  0.00    -0.385 C  
ENDBRANCH   2   4
BRANCH   2   7
HETATM    7  C   UNL     1     -12.217   8.028  72.553  1.00  0.00    -0.294 C  
HETATM    8  C   UNL     1     -11.895   6.820  72.057  1.00  0.00    -0.351 C  
HETATM    9  C   UNL     1     -10.777   5.945  72.573  1.00  0.00    -0.274 C  
HETATM   10  C   UNL     1     -11.420   4.663  73.146  1.00  0.00    -0.317 C  
HETATM   11  C   UNL     1      -9.651   5.648  71.517  1.00  0.00    -0.184 C  
HETATM   12  C   UNL     1     -10.209   4.830  70.338  1.00  0.00    -0.261 C  
HETATM   13  C   UNL     1     -10.328   5.758  69.149  1.00  0.00    -0.316 C  
HETATM   14  C   UNL     1      -9.759   7.126  69.549  1.00  0.00    -0.157 C  
HETATM   15  C   UNL     1      -9.099   7.788  68.344  1.00  0.00    -0.131 C  
HETATM   16  C   UNL     1      -7.754   8.418  68.590  1.00  0.00    -0.107 C  
HETATM   17  C   UNL     1      -9.733   7.816  67.147  1.00  0.00    -0.243 C  
HETATM   18  C   UNL     1      -6.812   7.580  69.468  1.00  0.00    -0.044 C  
HETATM   19  C   UNL     1      -8.756   8.095  71.762  1.00  0.00    -0.199 C  
HETATM   20  C   UNL     1      -8.903   6.870  70.827  1.00  0.00    -0.150 C  
HETATM   21  C   UNL     1      -7.463   6.511  70.366  1.00  0.00    -0.094 C  
BRANCH  17  22
HETATM   22  C   UNL     1      -9.418   8.724  66.067  1.00  0.00    -0.302 C  
HETATM   23  C   UNL     1      -8.651   8.557  64.973  1.00  0.00    -0.162 C  
HETATM   24  C   UNL     1      -8.689   9.647  63.912  1.00  0.00    -0.241 C  
HETATM   25  C   UNL     1      -7.296  10.172  63.570  1.00  0.00    -0.127 C  
HETATM   26  C   UNL     1      -6.374   9.026  63.160  1.00  0.00    -0.090 C  
HETATM   27  O   UNL     1      -6.738  10.894  64.662  1.00  0.00    -0.343 OA 
HETATM   28  C   UNL     1      -6.320   7.939  64.238  1.00  0.00    -0.057 C  
HETATM   29  H   UNL     1      -5.872  11.222  64.450  1.00  0.00     0.000 HD 
HETATM   30  O   UNL     1      -5.524   6.862  63.733  1.00  0.00    -0.027 OA 
HETATM   31  C   UNL     1      -7.716   7.467  64.654  1.00  0.00    -0.122 C  
HETATM   32  C   UNL     1      -8.077   6.172  64.656  1.00  0.00    -0.126 C  
HETATM   33  H   UNL     1      -5.490   6.188  64.402  1.00  0.00     0.000 HD 
ENDBRANCH  17  22
ENDBRANCH   2   7
TORSDOF 3
ENDMDL
MODEL       33
REMARK 921   NORMALIZED FREE ENERGY PREDICTED BY IDOCK:   -6.18 KCAL/MOL
REMARK 922        TOTAL FREE ENERGY PREDICTED BY IDOCK:   -8.54 KCAL/MOL
REMARK 923 INTER-LIGAND FREE ENERGY PREDICTED BY IDOCK:   -7.72 KCAL/MOL
REMARK 924 INTRA-LIGAND FREE ENERGY PREDICTED BY IDOCK:   -0.82 KCAL/MOL
REMARK 927      BINDING AFFINITY PREDICTED BY RF-SCORE:    0.00 PKD
ROOT
HETATM    1  O   UNL     1      -9.925   9.274  70.953  1.00  0.00    -0.259 OA 
HETATM    2  C   UNL     1      -9.251   8.422  71.876  1.00  0.00    -0.238 C  
HETATM    3  H   UNL     1     -10.213  10.041  71.433  1.00  0.00     0.000 HD 
ENDROOT
BRANCH   2   4
HETATM    4  C   UNL     1     -10.171   8.175  73.046  1.00  0.00    -0.273 C  
HETATM    5  C   UNL     1     -10.709   6.796  73.333  1.00  0.00    -0.332 C  
HETATM    6  C   UNL     1     -11.626   7.860  72.802  1.00  0.00    -0.387 C  
ENDBRANCH   2   4
BRANCH   2   7
HETATM    7  C   UNL     1      -8.798   7.215  71.119  1.00  0.00    -0.144 C  
HETATM    8  C   UNL     1      -9.543   6.479  70.275  1.00  0.00    -0.172 C  
HETATM    9  C   UNL     1      -9.043   5.284  69.499  1.00  0.00    -0.144 C  
HETATM   10  C   UNL     1      -9.815   4.047  70.006  1.00  0.00    -0.198 C  
HETATM   11  C   UNL     1      -9.113   5.453  67.937  1.00  0.00    -0.112 C  
HETATM   12  C   UNL     1     -10.574   5.580  67.466  1.00  0.00    -0.252 C  
HETATM   13  C   UNL     1     -10.813   7.027  67.092  1.00  0.00    -0.427 C  
HETATM   14  C   UNL     1      -9.487   7.785  67.235  1.00  0.00    -0.187 C  
HETATM   15  C   UNL     1      -9.403   8.890  66.186  1.00  0.00    -0.301 C  
HETATM   16  C   UNL     1      -8.092   9.009  65.456  1.00  0.00    -0.110 C  
HETATM   17  C   UNL     1     -10.457   9.714  65.977  1.00  0.00    -0.047 C  
HETATM   18  C   UNL     1      -7.474   7.667  65.038  1.00  0.00    -0.090 C  
HETATM   19  C   UNL     1      -7.084   7.104  68.011  1.00  0.00    -0.085 C  
HETATM   20  C   UNL     1      -8.376   6.692  67.264  1.00  0.00    -0.120 C  
HETATM   21  C   UNL     1      -7.950   6.413  65.797  1.00  0.00    -0.117 C  
BRANCH  17  22
HETATM   22  C   UNL     1     -10.379  11.004  65.328  1.00  0.00    -0.338 C  
HETATM   23  C   UNL     1     -10.528  12.248  65.822  1.00  0.00    -0.287 C  
HETATM   24  C   UNL     1     -10.176  13.416  64.912  1.00  0.00    -0.339 C  
HETATM   25  C   UNL     1     -11.321  14.417  64.785  1.00  0.00    -0.388 C  
HETATM   26  C   UNL     1     -11.770  14.900  66.164  1.00  0.00    -0.178 C  
HETATM   27  O   UNL     1     -12.417  13.856  64.073  1.00  0.00    -0.679 OA 
HETATM   28  C   UNL     1     -12.143  13.725  67.072  1.00  0.00    -0.397 C  
HETATM   29  H   UNL     1     -13.130  14.480  63.993  1.00  0.00     0.000 HD 
HETATM   30  O   UNL     1     -12.448  14.254  68.367  1.00  0.00    -0.564 OA 
HETATM   31  C   UNL     1     -11.037  12.668  67.136  1.00  0.00    -0.321 C  
HETATM   32  C   UNL     1     -10.525  12.218  68.295  1.00  0.00    -0.236 C  
HETATM   33  H   UNL     1     -12.680  13.525  68.930  1.00  0.00     0.000 HD 
ENDBRANCH  17  22
ENDBRANCH   2   7
TORSDOF 3
ENDMDL
MODEL       34
REMARK 921   NORMALIZED FREE ENERGY PREDICTED BY IDOCK:   -6.16 KCAL/MOL
REMARK 922        TOTAL FREE ENERGY PREDICTED BY IDOCK:   -8.52 KCAL/MOL
REMARK 923 INTER-LIGAND FREE ENERGY PREDICTED BY IDOCK:   -6.92 KCAL/MOL
REMARK 924 INTRA-LIGAND FREE ENERGY PREDICTED BY IDOCK:   -1.60 KCAL/MOL
REMARK 927      BINDING AFFINITY PREDICTED BY RF-SCORE:    0.00 PKD
ROOT
HETATM    1  O   UNL     1     -11.705  13.436  70.091  1.00  0.00    -0.451 OA 
HETATM    2  C   UNL     1     -11.990  12.123  69.616  1.00  0.00    -0.284 C  
HETATM    3  H   UNL     1     -11.787  14.028  69.353  1.00  0.00     0.000 HD 
ENDROOT
BRANCH   2   4
HETATM    4  C   UNL     1     -11.098  11.847  68.431  1.00  0.00    -0.292 C  
HETATM    5  C   UNL     1     -11.580  12.089  67.022  1.00  0.00    -0.387 C  
HETATM    6  C   UNL     1     -11.400  10.683  67.519  1.00  0.00    -0.241 C  
ENDBRANCH   2   4
BRANCH   2   7
HETATM    7  C   UNL     1     -11.860  11.191  70.778  1.00  0.00    -0.325 C  
HETATM    8  C   UNL     1     -12.409   9.967  70.882  1.00  0.00    -0.438 C  
HETATM    9  C   UNL     1     -12.227   9.037  72.058  1.00  0.00    -0.446 C  
HETATM   10  C   UNL     1     -13.611   8.849  72.716  1.00  0.00    -0.275 C  
HETATM   11  C   UNL     1     -11.528   7.674  71.700  1.00  0.00    -0.295 C  
HETATM   12  C   UNL     1     -12.403   6.847  70.741  1.00  0.00    -0.314 C  
HETATM   13  C   UNL     1     -11.768   6.911  69.368  1.00  0.00     0.059 C  
HETATM   14  C   UNL     1     -10.453   7.694  69.484  1.00  0.00    -0.227 C  
HETATM   15  C   UNL     1      -9.430   7.143  68.495  1.00  0.00    -0.139 C  
HETATM   16  C   UNL     1      -8.040   6.932  69.033  1.00  0.00    -0.117 C  
HETATM   17  C   UNL     1      -9.784   6.901  67.210  1.00  0.00    -0.184 C  
HETATM   18  C   UNL     1      -7.989   6.310  70.436  1.00  0.00    -0.111 C  
HETATM   19  C   UNL     1      -9.231   8.903  71.455  1.00  0.00    -0.328 C  
HETATM   20  C   UNL     1     -10.099   7.704  71.002  1.00  0.00    -0.196 C  
HETATM   21  C   UNL     1      -9.259   6.432  71.300  1.00  0.00    -0.158 C  
BRANCH  17  22
HETATM   22  C   UNL     1      -8.854   6.767  66.111  1.00  0.00    -0.161 C  
HETATM   23  C   UNL     1      -8.212   7.700  65.382  1.00  0.00    -0.137 C  
HETATM   24  C   UNL     1      -7.131   7.225  64.422  1.00  0.00    -0.062 C  
HETATM   25  C   UNL     1      -7.363   7.721  62.997  1.00  0.00    -0.100 C  
HETATM   26  C   UNL     1      -7.501   9.243  62.973  1.00  0.00    -0.105 C  
HETATM   27  O   UNL     1      -8.509   7.108  62.419  1.00  0.00    -0.335 OA 
HETATM   28  C   UNL     1      -8.603   9.718  63.924  1.00  0.00    -0.199 C  
HETATM   29  H   UNL     1      -8.653   7.417  61.532  1.00  0.00     0.000 HD 
HETATM   30  O   UNL     1      -8.595  11.150  63.921  1.00  0.00    -0.378 OA 
HETATM   31  C   UNL     1      -8.432   9.153  65.337  1.00  0.00    -0.163 C  
HETATM   32  C   UNL     1      -8.411   9.929  66.434  1.00  0.00    -0.128 C  
HETATM   33  H   UNL     1      -9.279  11.445  64.510  1.00  0.00     0.000 HD 
ENDBRANCH  17  22
ENDBRANCH   2   7
TORSDOF 3
ENDMDL
MODEL       35
REMARK 921   NORMALIZED FREE ENERGY PREDICTED BY IDOCK:   -6.15 KCAL/MOL
REMARK 922        TOTAL FREE ENERGY PREDICTED BY IDOCK:   -8.51 KCAL/MOL
REMARK 923 INTER-LIGAND FREE ENERGY PREDICTED BY IDOCK:   -6.99 KCAL/MOL
REMARK 924 INTRA-LIGAND FREE ENERGY PREDICTED BY IDOCK:   -1.53 KCAL/MOL
REMARK 927      BINDING AFFINITY PREDICTED BY RF-SCORE:    0.00 PKD
ROOT
HETATM    1  O   UNL     1      -9.346   8.729  64.983  1.00  0.00    -0.432 OA 
HETATM    2  C   UNL     1      -8.715   8.992  66.234  1.00  0.00    -0.135 C  
HETATM    3  H   UNL     1      -9.336   9.538  64.485  1.00  0.00     0.000 HD 
ENDROOT
BRANCH   2   4
HETATM    4  C   UNL     1      -9.402  10.177  66.866  1.00  0.00    -0.185 C  
HETATM    5  C   UNL     1     -10.851  10.107  67.278  1.00  0.00    -0.295 C  
HETATM    6  C   UNL     1     -10.451  10.938  66.092  1.00  0.00    -0.290 C  
ENDBRANCH   2   4
BRANCH   2   7
HETATM    7  C   UNL     1      -8.731   7.718  67.017  1.00  0.00    -0.131 C  
HETATM    8  C   UNL     1      -8.221   7.535  68.248  1.00  0.00    -0.125 C  
HETATM    9  C   UNL     1      -8.285   6.241  69.025  1.00  0.00    -0.114 C  
HETATM   10  C   UNL     1      -6.836   5.741  69.210  1.00  0.00    -0.062 C  
HETATM   11  C   UNL     1      -9.077   6.341  70.380  1.00  0.00    -0.157 C  
HETATM   12  C   UNL     1      -8.366   7.294  71.359  1.00  0.00    -0.110 C  
HETATM   13  C   UNL     1      -9.170   8.575  71.419  1.00  0.00    -0.272 C  
HETATM   14  C   UNL     1     -10.427   8.394  70.559  1.00  0.00    -0.227 C  
HETATM   15  C   UNL     1     -11.590   9.174  71.165  1.00  0.00    -0.386 C  
HETATM   16  C   UNL     1     -12.907   8.448  71.237  1.00  0.00    -0.189 C  
HETATM   17  C   UNL     1     -11.415  10.454  71.572  1.00  0.00     0.227 C  
HETATM   18  C   UNL     1     -12.800   6.984  71.689  1.00  0.00    -0.408 C  
HETATM   19  C   UNL     1     -11.337   6.449  69.066  1.00  0.00    -0.332 C  
HETATM   20  C   UNL     1     -10.582   6.856  70.354  1.00  0.00    -0.247 C  
HETATM   21  C   UNL     1     -11.426   6.305  71.536  1.00  0.00    -0.351 C  
BRANCH  17  22
HETATM   22  C   UNL     1     -12.483  11.406  71.782  1.00  0.00    -0.103 C  
HETATM   23  C   UNL     1     -12.732  12.593  71.196  1.00  0.00    -0.347 C  
HETATM   24  C   UNL     1     -14.065  13.262  71.497  1.00  0.00     0.498 C  
HETATM   25  C   UNL     1     -13.895  14.691  72.008  1.00  0.00    -0.461 C  
HETATM   26  C   UNL     1     -13.063  15.517  71.029  1.00  0.00    -0.551 C  
HETATM   27  O   UNL     1     -13.301  14.706  73.302  1.00  0.00    -0.585 OA 
HETATM   28  C   UNL     1     -11.713  14.854  70.743  1.00  0.00    -0.311 C  
HETATM   29  H   UNL     1     -13.195  15.595  73.620  1.00  0.00     0.000 HD 
HETATM   30  O   UNL     1     -11.047  15.632  69.744  1.00  0.00    -0.260 OA 
HETATM   31  C   UNL     1     -11.866  13.391  70.316  1.00  0.00    -0.316 C  
HETATM   32  C   UNL     1     -11.316  12.899  69.192  1.00  0.00    -0.329 C  
HETATM   33  H   UNL     1     -10.209  15.220  69.567  1.00  0.00     0.000 HD 
ENDBRANCH  17  22
ENDBRANCH   2   7
TORSDOF 3
ENDMDL
MODEL       36
REMARK 921   NORMALIZED FREE ENERGY PREDICTED BY IDOCK:   -6.14 KCAL/MOL
REMARK 922        TOTAL FREE ENERGY PREDICTED BY IDOCK:   -8.50 KCAL/MOL
REMARK 923 INTER-LIGAND FREE ENERGY PREDICTED BY IDOCK:   -6.94 KCAL/MOL
REMARK 924 INTRA-LIGAND FREE ENERGY PREDICTED BY IDOCK:   -1.56 KCAL/MOL
REMARK 927      BINDING AFFINITY PREDICTED BY RF-SCORE:    0.00 PKD
ROOT
HETATM    1  O   UNL     1     -12.575  12.346  71.522  1.00  0.00    -0.263 OA 
HETATM    2  C   UNL     1     -12.738  11.177  70.723  1.00  0.00    -0.297 C  
HETATM    3  H   UNL     1     -12.878  13.085  71.008  1.00  0.00     0.000 HD 
ENDROOT
BRANCH   2   4
HETATM    4  C   UNL     1     -12.042  11.408  69.404  1.00  0.00    -0.358 C  
HETATM    5  C   UNL     1     -10.537  11.445  69.315  1.00  0.00    -0.148 C  
HETATM    6  C   UNL     1     -11.326  12.713  69.152  1.00  0.00    -0.339 C  
ENDBRANCH   2   4
BRANCH   2   7
HETATM    7  C   UNL     1     -12.261  10.014  71.532  1.00  0.00    -0.496 C  
HETATM    8  C   UNL     1     -12.340   8.717  71.184  1.00  0.00    -0.243 C  
HETATM    9  C   UNL     1     -11.815   7.568  72.012  1.00  0.00    -0.331 C  
HETATM   10  C   UNL     1     -13.029   6.712  72.435  1.00  0.00     0.228 C  
HETATM   11  C   UNL     1     -10.688   6.727  71.308  1.00  0.00    -0.257 C  
HETATM   12  C   UNL     1     -11.234   6.024  70.052  1.00  0.00    -0.425 C  
HETATM   13  C   UNL     1     -10.693   6.755  68.843  1.00  0.00    -0.276 C  
HETATM   14  C   UNL     1      -9.738   7.852  69.332  1.00  0.00    -0.170 C  
HETATM   15  C   UNL     1      -8.608   8.046  68.325  1.00  0.00    -0.130 C  
HETATM   16  C   UNL     1      -7.221   8.154  68.902  1.00  0.00    -0.078 C  
HETATM   17  C   UNL     1      -8.881   8.143  67.002  1.00  0.00    -0.143 C  
HETATM   18  C   UNL     1      -6.923   7.155  70.029  1.00  0.00    -0.061 C  
HETATM   19  C   UNL     1      -8.979   8.671  71.697  1.00  0.00    -0.305 C  
HETATM   20  C   UNL     1      -9.377   7.473  70.801  1.00  0.00    -0.162 C  
HETATM   21  C   UNL     1      -8.135   6.542  70.757  1.00  0.00    -0.120 C  
BRANCH  17  22
HETATM   22  C   UNL     1      -7.989   8.709  66.016  1.00  0.00    -0.107 C  
HETATM   23  C   UNL     1      -8.198   9.654  65.079  1.00  0.00    -0.137 C  
HETATM   24  C   UNL     1      -6.985  10.181  64.326  1.00  0.00    -0.103 C  
HETATM   25  C   UNL     1      -7.154  10.077  62.812  1.00  0.00    -0.127 C  
HETATM   26  C   UNL     1      -8.437  10.775  62.364  1.00  0.00    -0.308 C  
HETATM   27  O   UNL     1      -7.152   8.718  62.387  1.00  0.00    -0.098 OA 
HETATM   28  C   UNL     1      -9.659  10.230  63.108  1.00  0.00    -0.250 C  
HETATM   29  H   UNL     1      -7.257   8.653  61.445  1.00  0.00     0.000 HD 
HETATM   30  O   UNL     1     -10.794  11.005  62.709  1.00  0.00    -0.780 OA 
HETATM   31  C   UNL     1      -9.466  10.246  64.627  1.00  0.00    -0.351 C  
HETATM   32  C   UNL     1     -10.346  10.817  65.467  1.00  0.00    -0.308 C  
HETATM   33  H   UNL     1     -11.553  10.667  63.171  1.00  0.00     0.000 HD 
ENDBRANCH  17  22
ENDBRANCH   2   7
TORSDOF 3
ENDMDL
MODEL       37
REMARK 921   NORMALIZED FREE ENERGY PREDICTED BY IDOCK:   -6.13 KCAL/MOL
REMARK 922        TOTAL FREE ENERGY PREDICTED BY IDOCK:   -8.48 KCAL/MOL
REMARK 923 INTER-LIGAND FREE ENERGY PREDICTED BY IDOCK:   -7.48 KCAL/MOL
REMARK 924 INTRA-LIGAND FREE ENERGY PREDICTED BY IDOCK:   -1.00 KCAL/MOL
REMARK 927      BINDING AFFINITY PREDICTED BY RF-SCORE:    0.00 PKD
ROOT
HETATM    1  O   UNL     1      -8.763   4.535  66.342  1.00  0.00    -0.112 OA 
HETATM    2  C   UNL     1      -9.539   3.800  67.285  1.00  0.00    -0.169 C  
HETATM    3  H   UNL     1      -8.861   4.107  65.500  1.00  0.00     0.000 HD 
ENDROOT
BRANCH   2   4
HETATM    4  C   UNL     1      -9.118   2.353  67.214  1.00  0.00    -0.180 C  
HETATM    5  C   UNL     1      -9.038   1.505  68.459  1.00  0.00    -0.181 C  
HETATM    6  C   UNL     1      -7.776   1.934  67.764  1.00  0.00    -0.059 C  
ENDBRANCH   2   4
BRANCH   2   7
HETATM    7  C   UNL     1      -9.384   4.474  68.611  1.00  0.00    -0.199 C  
HETATM    8  C   UNL     1      -8.414   5.342  68.954  1.00  0.00    -0.091 C  
HETATM    9  C   UNL     1      -8.307   6.032  70.293  1.00  0.00    -0.124 C  
HETATM   10  C   UNL     1      -7.010   5.535  70.967  1.00  0.00    -0.061 C  
HETATM   11  C   UNL     1      -8.399   7.600  70.220  1.00  0.00    -0.132 C  
HETATM   12  C   UNL     1      -7.206   8.181  69.439  1.00  0.00    -0.067 C  
HETATM   13  C   UNL     1      -7.715   8.628  68.086  1.00  0.00    -0.102 C  
HETATM   14  C   UNL     1      -9.235   8.417  68.051  1.00  0.00    -0.143 C  
HETATM   15  C   UNL     1      -9.891   9.500  67.199  1.00  0.00    -0.239 C  
HETATM   16  C   UNL     1     -11.128  10.135  67.777  1.00  0.00    -0.293 C  
HETATM   17  C   UNL     1      -9.380   9.818  65.986  1.00  0.00    -0.249 C  
HETATM   18  C   UNL     1     -11.036  10.454  69.277  1.00  0.00    -0.303 C  
HETATM   19  C   UNL     1     -10.968   7.441  69.749  1.00  0.00    -0.215 C  
HETATM   20  C   UNL     1      -9.674   8.264  69.539  1.00  0.00    -0.174 C  
HETATM   21  C   UNL     1      -9.978   9.684  70.090  1.00  0.00    -0.309 C  
BRANCH  17  22
HETATM   22  C   UNL     1     -10.103  10.509  64.942  1.00  0.00    -0.403 C  
HETATM   23  C   UNL     1     -10.446  11.805  64.819  1.00  0.00    -0.341 C  
HETATM   24  C   UNL     1     -11.030  12.258  63.489  1.00  0.00    -0.521 C  
HETATM   25  C   UNL     1     -12.375  12.961  63.655  1.00  0.00    -0.434 C  
HETATM   26  C   UNL     1     -12.255  14.126  64.637  1.00  0.00    -0.465 C  
HETATM   27  O   UNL     1     -13.382  12.051  64.083  1.00  0.00    -0.725 OA 
HETATM   28  C   UNL     1     -11.687  13.666  65.982  1.00  0.00    -0.358 C  
HETATM   29  H   UNL     1     -14.219  12.489  64.186  1.00  0.00     0.000 HD 
HETATM   30  O   UNL     1     -11.509  14.827  66.801  1.00  0.00    -0.351 OA 
HETATM   31  C   UNL     1     -10.383  12.880  65.821  1.00  0.00    -0.297 C  
HETATM   32  C   UNL     1      -9.257  13.192  66.486  1.00  0.00    -0.185 C  
HETATM   33  H   UNL     1     -11.157  14.541  67.636  1.00  0.00     0.000 HD 
ENDBRANCH  17  22
ENDBRANCH   2   7
TORSDOF 3
ENDMDL
MODEL       38
REMARK 921   NORMALIZED FREE ENERGY PREDICTED BY IDOCK:   -6.11 KCAL/MOL
REMARK 922        TOTAL FREE ENERGY PREDICTED BY IDOCK:   -8.47 KCAL/MOL
REMARK 923 INTER-LIGAND FREE ENERGY PREDICTED BY IDOCK:   -6.83 KCAL/MOL
REMARK 924 INTRA-LIGAND FREE ENERGY PREDICTED BY IDOCK:   -1.63 KCAL/MOL
REMARK 927      BINDING AFFINITY PREDICTED BY RF-SCORE:    0.00 PKD
ROOT
HETATM    1  O   UNL     1      -9.225   5.610  65.319  1.00  0.00    -0.348 OA 
HETATM    2  C   UNL     1      -8.358   6.499  66.019  1.00  0.00    -0.133 C  
HETATM    3  H   UNL     1      -9.147   5.809  64.393  1.00  0.00     0.000 HD 
ENDROOT
BRANCH   2   4
HETATM    4  C   UNL     1      -8.696   7.909  65.604  1.00  0.00    -0.145 C  
HETATM    5  C   UNL     1      -8.238   8.461  64.277  1.00  0.00    -0.130 C  
HETATM    6  C   UNL     1      -7.611   8.957  65.549  1.00  0.00    -0.087 C  
ENDBRANCH   2   4
BRANCH   2   7
HETATM    7  C   UNL     1      -8.481   6.186  67.476  1.00  0.00    -0.108 C  
HETATM    8  C   UNL     1      -7.819   6.791  68.478  1.00  0.00    -0.118 C  
HETATM    9  C   UNL     1      -7.994   6.473  69.944  1.00  0.00    -0.116 C  
HETATM   10  C   UNL     1      -6.653   5.905  70.457  1.00  0.00    -0.047 C  
HETATM   11  C   UNL     1      -8.520   7.677  70.808  1.00  0.00    -0.125 C  
HETATM   12  C   UNL     1      -7.494   8.825  70.827  1.00  0.00    -0.087 C  
HETATM   13  C   UNL     1      -8.025   9.931  69.940  1.00  0.00    -0.193 C  
HETATM   14  C   UNL     1      -9.418   9.522  69.444  1.00  0.00    -0.182 C  
HETATM   15  C   UNL     1     -10.300  10.757  69.291  1.00  0.00    -0.228 C  
HETATM   16  C   UNL     1     -11.699  10.642  69.835  1.00  0.00    -0.395 C  
HETATM   17  C   UNL     1      -9.826  11.861  68.666  1.00  0.00    -0.139 C  
HETATM   18  C   UNL     1     -11.793   9.940  71.198  1.00  0.00    -0.472 C  
HETATM   19  C   UNL     1     -10.906   7.396  69.770  1.00  0.00    -0.246 C  
HETATM   20  C   UNL     1      -9.887   8.379  70.395  1.00  0.00    -0.194 C  
HETATM   21  C   UNL     1     -10.613   9.036  71.601  1.00  0.00    -0.434 C  
BRANCH  17  22
HETATM   22  C   UNL     1     -10.650  12.914  68.115  1.00  0.00    -0.249 C  
HETATM   23  C   UNL     1     -11.196  13.056  66.892  1.00  0.00    -0.331 C  
HETATM   24  C   UNL     1     -12.192  14.189  66.690  1.00  0.00    -0.450 C  
HETATM   25  C   UNL     1     -11.814  15.092  65.519  1.00  0.00    -0.071 C  
HETATM   26  C   UNL     1     -11.636  14.271  64.242  1.00  0.00    -0.299 C  
HETATM   27  O   UNL     1     -10.633  15.833  65.802  1.00  0.00    -0.324 OA 
HETATM   28  C   UNL     1     -10.618  13.144  64.440  1.00  0.00    -0.421 C  
HETATM   29  H   UNL     1     -10.398  16.396  65.074  1.00  0.00     0.000 HD 
HETATM   30  O   UNL     1     -10.590  12.366  63.239  1.00  0.00    -0.492 OA 
HETATM   31  C   UNL     1     -10.937  12.285  65.667  1.00  0.00    -0.338 C  
HETATM   32  C   UNL     1     -11.043  10.946  65.611  1.00  0.00     0.068 C  
HETATM   33  H   UNL     1      -9.958  11.667  63.362  1.00  0.00     0.000 HD 
ENDBRANCH  17  22
ENDBRANCH   2   7
TORSDOF 3
ENDMDL
MODEL       39
REMARK 921   NORMALIZED FREE ENERGY PREDICTED BY IDOCK:   -6.11 KCAL/MOL
REMARK 922        TOTAL FREE ENERGY PREDICTED BY IDOCK:   -8.46 KCAL/MOL
REMARK 923 INTER-LIGAND FREE ENERGY PREDICTED BY IDOCK:   -7.40 KCAL/MOL
REMARK 924 INTRA-LIGAND FREE ENERGY PREDICTED BY IDOCK:   -1.06 KCAL/MOL
REMARK 927      BINDING AFFINITY PREDICTED BY RF-SCORE:    0.00 PKD
ROOT
HETATM    1  O   UNL     1     -10.686  16.853  70.125  1.00  0.00    -0.254 OA 
HETATM    2  C   UNL     1     -10.478  15.459  69.912  1.00  0.00    -0.297 C  
HETATM    3  H   UNL     1     -11.302  16.941  70.843  1.00  0.00     0.000 HD 
ENDROOT
BRANCH   2   4
HETATM    4  C   UNL     1     -11.825  14.806  69.725  1.00  0.00    -0.362 C  
HETATM    5  C   UNL     1     -12.921  14.978  70.747  1.00  0.00    -0.442 C  
HETATM    6  C   UNL     1     -12.229  13.652  70.610  1.00  0.00    -0.434 C  
ENDBRANCH   2   4
BRANCH   2   7
HETATM    7  C   UNL     1      -9.509  15.321  68.781  1.00  0.00    -0.212 C  
HETATM    8  C   UNL     1      -8.266  14.812  68.856  1.00  0.00    -0.165 C  
HETATM    9  C   UNL     1      -7.326  14.655  67.685  1.00  0.00    -0.204 C  
HETATM   10  C   UNL     1      -6.113  15.575  67.941  1.00  0.00    -0.163 C  
HETATM   11  C   UNL     1      -6.915  13.167  67.383  1.00  0.00    -0.117 C  
HETATM   12  C   UNL     1      -6.107  12.575  68.552  1.00  0.00    -0.061 C  
HETATM   13  C   UNL     1      -7.007  11.607  69.289  1.00  0.00    -0.083 C  
HETATM   14  C   UNL     1      -8.339  11.520  68.534  1.00  0.00    -0.146 C  
HETATM   15  C   UNL     1      -8.916  10.112  68.655  1.00  0.00    -0.136 C  
HETATM   16  C   UNL     1      -9.450   9.505  67.385  1.00  0.00    -0.164 C  
HETATM   17  C   UNL     1      -8.956   9.492  69.858  1.00  0.00    -0.231 C  
HETATM   18  C   UNL     1      -8.570   9.743  66.149  1.00  0.00    -0.138 C  
HETATM   19  C   UNL     1      -9.294  12.696  66.401  1.00  0.00    -0.198 C  
HETATM   20  C   UNL     1      -8.057  12.095  67.112  1.00  0.00    -0.175 C  
HETATM   21  C   UNL     1      -7.578  10.921  66.214  1.00  0.00    -0.136 C  
BRANCH  17  22
HETATM   22  C   UNL     1      -9.807   8.368  70.179  1.00  0.00    -0.183 C  
HETATM   23  C   UNL     1     -11.115   8.316  70.496  1.00  0.00    -0.259 C  
HETATM   24  C   UNL     1     -11.767   6.944  70.576  1.00  0.00    -0.401 C  
HETATM   25  C   UNL     1     -12.469   6.713  71.912  1.00  0.00    -0.287 C  
HETATM   26  C   UNL     1     -13.476   7.827  72.191  1.00  0.00    -0.138 C  
HETATM   27  O   UNL     1     -11.529   6.613  72.976  1.00  0.00    -0.477 OA 
HETATM   28  C   UNL     1     -12.814   9.206  72.131  1.00  0.00    -0.412 C  
HETATM   29  H   UNL     1     -11.965   6.469  73.807  1.00  0.00     0.000 HD 
HETATM   30  O   UNL     1     -13.840  10.191  72.298  1.00  0.00    -0.452 OA 
HETATM   31  C   UNL     1     -12.031   9.416  70.832  1.00  0.00    -0.351 C  
HETATM   32  C   UNL     1     -12.219  10.479  70.032  1.00  0.00    -0.323 C  
HETATM   33  H   UNL     1     -13.429  11.047  72.261  1.00  0.00     0.000 HD 
ENDBRANCH  17  22
ENDBRANCH   2   7
TORSDOF 3
ENDMDL
MODEL       40
REMARK 921   NORMALIZED FREE ENERGY PREDICTED BY IDOCK:   -6.10 KCAL/MOL
REMARK 922        TOTAL FREE ENERGY PREDICTED BY IDOCK:   -8.45 KCAL/MOL
REMARK 923 INTER-LIGAND FREE ENERGY PREDICTED BY IDOCK:   -7.37 KCAL/MOL
REMARK 924 INTRA-LIGAND FREE ENERGY PREDICTED BY IDOCK:   -1.08 KCAL/MOL
REMARK 927      BINDING AFFINITY PREDICTED BY RF-SCORE:    0.00 PKD
ROOT
HETATM    1  O   UNL     1     -11.765  10.806  70.555  1.00  0.00    -0.311 OA 
HETATM    2  C   UNL     1     -11.897   9.637  71.359  1.00  0.00    -0.406 C  
HETATM    3  H   UNL     1     -12.371  11.453  70.895  1.00  0.00     0.000 HD 
ENDROOT
BRANCH   2   4
HETATM    4  C   UNL     1     -13.354   9.245  71.384  1.00  0.00    -0.390 C  
HETATM    5  C   UNL     1     -14.046   8.906  72.680  1.00  0.00    -0.343 C  
HETATM    6  C   UNL     1     -13.743   7.819  71.688  1.00  0.00    -0.434 C  
ENDBRANCH   2   4
BRANCH   2   7
HETATM    7  C   UNL     1     -10.944   8.617  70.823  1.00  0.00    -0.286 C  
HETATM    8  C   UNL     1     -10.950   8.097  69.582  1.00  0.00    -0.094 C  
HETATM    9  C   UNL     1      -9.948   7.093  69.062  1.00  0.00    -0.174 C  
HETATM   10  C   UNL     1     -10.716   5.789  68.759  1.00  0.00    -0.318 C  
HETATM   11  C   UNL     1      -9.099   7.603  67.840  1.00  0.00    -0.134 C  
HETATM   12  C   UNL     1      -9.998   7.854  66.617  1.00  0.00    -0.316 C  
HETATM   13  C   UNL     1     -10.139   9.352  66.450  1.00  0.00    -0.332 C  
HETATM   14  C   UNL     1      -9.259  10.038  67.503  1.00  0.00    -0.151 C  
HETATM   15  C   UNL     1      -8.702  11.344  66.945  1.00  0.00    -0.165 C  
HETATM   16  C   UNL     1      -7.239  11.598  67.194  1.00  0.00    -0.145 C  
HETATM   17  C   UNL     1      -9.515  12.212  66.298  1.00  0.00    -0.238 C  
HETATM   18  C   UNL     1      -6.339  10.370  66.996  1.00  0.00    -0.072 C  
HETATM   19  C   UNL     1      -7.724   9.162  69.430  1.00  0.00    -0.080 C  
HETATM   20  C   UNL     1      -8.260   8.946  67.995  1.00  0.00    -0.110 C  
HETATM   21  C   UNL     1      -7.018   8.988  67.064  1.00  0.00    -0.078 C  
BRANCH  17  22
HETATM   22  C   UNL     1      -9.222  13.611  66.082  1.00  0.00    -0.009 C  
HETATM   23  C   UNL     1      -9.514  14.697  66.824  1.00  0.00    -0.275 C  
HETATM   24  C   UNL     1      -8.878  16.019  66.421  1.00  0.00    -0.363 C  
HETATM   25  C   UNL     1      -9.914  17.124  66.223  1.00  0.00    -0.304 C  
HETATM   26  C   UNL     1     -10.781  17.279  67.471  1.00  0.00    -0.278 C  
HETATM   27  O   UNL     1     -10.725  16.869  65.082  1.00  0.00    -0.663 OA 
HETATM   28  C   UNL     1     -11.437  15.952  67.864  1.00  0.00    -0.187 C  
HETATM   29  H   UNL     1     -11.369  17.556  64.958  1.00  0.00     0.000 HD 
HETATM   30  O   UNL     1     -12.140  16.160  69.094  1.00  0.00    -0.335 OA 
HETATM   31  C   UNL     1     -10.418  14.815  67.978  1.00  0.00    -0.246 C  
HETATM   32  C   UNL     1     -10.312  14.038  69.070  1.00  0.00    -0.136 C  
HETATM   33  H   UNL     1     -12.547  15.337  69.337  1.00  0.00     0.000 HD 
ENDBRANCH  17  22
ENDBRANCH   2   7
TORSDOF 3
ENDMDL
MODEL       41
REMARK 921   NORMALIZED FREE ENERGY PREDICTED BY IDOCK:   -6.06 KCAL/MOL
REMARK 922        TOTAL FREE ENERGY PREDICTED BY IDOCK:   -8.41 KCAL/MOL
REMARK 923 INTER-LIGAND FREE ENERGY PREDICTED BY IDOCK:   -7.10 KCAL/MOL
REMARK 924 INTRA-LIGAND FREE ENERGY PREDICTED BY IDOCK:   -1.31 KCAL/MOL
REMARK 927      BINDING AFFINITY PREDICTED BY RF-SCORE:    0.00 PKD
ROOT
HETATM    1  O   UNL     1      -9.891  10.159  63.224  1.00  0.00    -0.473 OA 
HETATM    2  C   UNL     1      -9.248  10.250  64.493  1.00  0.00    -0.250 C  
HETATM    3  H   UNL     1     -10.114  11.043  62.956  1.00  0.00     0.000 HD 
ENDROOT
BRANCH   2   4
HETATM    4  C   UNL     1     -10.148  11.026  65.422  1.00  0.00    -0.326 C  
HETATM    5  C   UNL     1     -11.192  11.971  64.883  1.00  0.00    -0.374 C  
HETATM    6  C   UNL     1      -9.971  12.518  65.566  1.00  0.00    -0.248 C  
ENDBRANCH   2   4
BRANCH   2   7
HETATM    7  C   UNL     1      -8.896   8.859  64.915  1.00  0.00    -0.161 C  
HETATM    8  C   UNL     1      -8.061   8.517  65.912  1.00  0.00    -0.116 C  
HETATM    9  C   UNL     1      -7.756   7.100  66.335  1.00  0.00    -0.100 C  
HETATM   10  C   UNL     1      -6.258   6.847  66.055  1.00  0.00    -0.039 C  
HETATM   11  C   UNL     1      -8.169   6.764  67.815  1.00  0.00    -0.120 C  
HETATM   12  C   UNL     1      -7.351   7.603  68.814  1.00  0.00    -0.091 C  
HETATM   13  C   UNL     1      -8.265   8.672  69.373  1.00  0.00    -0.113 C  
HETATM   14  C   UNL     1      -9.671   8.449  68.802  1.00  0.00    -0.168 C  
HETATM   15  C   UNL     1     -10.722   8.855  69.831  1.00  0.00    -0.236 C  
HETATM   16  C   UNL     1     -11.871   7.900  70.015  1.00  0.00     0.369 C  
HETATM   17  C   UNL     1     -10.608  10.030  70.495  1.00  0.00    -0.313 C  
HETATM   18  C   UNL     1     -11.466   6.420  70.050  1.00  0.00    -0.496 C  
HETATM   19  C   UNL     1     -10.690   6.728  67.116  1.00  0.00    -0.441 C  
HETATM   20  C   UNL     1      -9.680   6.987  68.259  1.00  0.00    -0.136 C  
HETATM   21  C   UNL     1     -10.106   6.053  69.425  1.00  0.00    -0.243 C  
BRANCH  17  22
HETATM   22  C   UNL     1     -11.693  10.703  71.173  1.00  0.00    -0.248 C  
HETATM   23  C   UNL     1     -12.408  11.791  70.826  1.00  0.00    -0.433 C  
HETATM   24  C   UNL     1     -13.633  12.127  71.664  1.00  0.00     0.107 C  
HETATM   25  C   UNL     1     -13.601  13.560  72.189  1.00  0.00    -0.557 C  
HETATM   26  C   UNL     1     -13.422  14.550  71.040  1.00  0.00    -0.345 C  
HETATM   27  O   UNL     1     -12.572  13.729  73.157  1.00  0.00    -0.153 OA 
HETATM   28  C   UNL     1     -12.178  14.224  70.209  1.00  0.00    -0.342 C  
HETATM   29  H   UNL     1     -12.552  14.621  73.484  1.00  0.00     0.000 HD 
HETATM   30  O   UNL     1     -12.143  15.128  69.100  1.00  0.00    -0.477 OA 
HETATM   31  C   UNL     1     -12.154  12.762  69.752  1.00  0.00    -0.305 C  
HETATM   32  C   UNL     1     -11.989  12.404  68.467  1.00  0.00    -0.273 C  
HETATM   33  H   UNL     1     -11.371  14.925  68.585  1.00  0.00     0.000 HD 
ENDBRANCH  17  22
ENDBRANCH   2   7
TORSDOF 3
ENDMDL
MODEL       42
REMARK 921   NORMALIZED FREE ENERGY PREDICTED BY IDOCK:   -5.95 KCAL/MOL
REMARK 922        TOTAL FREE ENERGY PREDICTED BY IDOCK:   -8.27 KCAL/MOL
REMARK 923 INTER-LIGAND FREE ENERGY PREDICTED BY IDOCK:   -7.52 KCAL/MOL
REMARK 924 INTRA-LIGAND FREE ENERGY PREDICTED BY IDOCK:   -0.75 KCAL/MOL
REMARK 927      BINDING AFFINITY PREDICTED BY RF-SCORE:    0.00 PKD
ROOT
HETATM    1  O   UNL     1      -7.664   9.211  72.038  1.00  0.00    -0.331 OA 
HETATM    2  C   UNL     1      -6.689   8.173  71.983  1.00  0.00    -0.073 C  
HETATM    3  H   UNL     1      -7.198  10.032  72.140  1.00  0.00     0.000 HD 
ENDROOT
BRANCH   2   4
HETATM    4  C   UNL     1      -5.801   8.296  73.197  1.00  0.00    -0.069 C  
HETATM    5  C   UNL     1      -5.720   7.187  74.215  1.00  0.00    -0.062 C  
HETATM    6  C   UNL     1      -6.419   8.471  74.563  1.00  0.00    -0.165 C  
ENDBRANCH   2   4
BRANCH   2   7
HETATM    7  C   UNL     1      -7.423   6.880  71.823  1.00  0.00    -0.089 C  
HETATM    8  C   UNL     1      -8.759   6.722  71.799  1.00  0.00    -0.128 C  
HETATM    9  C   UNL     1      -9.468   5.403  71.600  1.00  0.00    -0.182 C  
HETATM   10  C   UNL     1     -10.247   5.098  72.897  1.00  0.00    -0.220 C  
HETATM   11  C   UNL     1     -10.370   5.343  70.313  1.00  0.00    -0.357 C  
HETATM   12  C   UNL     1     -11.534   6.345  70.415  1.00  0.00    -0.458 C  
HETATM   13  C   UNL     1     -11.227   7.502  69.487  1.00  0.00     0.027 C  
HETATM   14  C   UNL     1      -9.927   7.184  68.737  1.00  0.00    -0.163 C  
HETATM   15  C   UNL     1      -9.978   7.774  67.331  1.00  0.00    -0.257 C  
HETATM   16  C   UNL     1      -9.514   6.872  66.219  1.00  0.00    -0.122 C  
HETATM   17  C   UNL     1     -10.393   9.049  67.142  1.00  0.00    -0.342 C  
HETATM   18  C   UNL     1     -10.002   5.421  66.333  1.00  0.00    -0.218 C  
HETATM   19  C   UNL     1      -8.235   5.190  68.808  1.00  0.00    -0.085 C  
HETATM   20  C   UNL     1      -9.710   5.648  68.898  1.00  0.00    -0.181 C  
HETATM   21  C   UNL     1     -10.448   4.942  67.728  1.00  0.00     0.013 C  
BRANCH  17  22
HETATM   22  C   UNL     1     -10.120   9.838  65.961  1.00  0.00    -0.322 C  
HETATM   23  C   UNL     1     -10.401  11.124  65.677  1.00  0.00    -0.311 C  
HETATM   24  C   UNL     1      -9.791  11.719  64.416  1.00  0.00    -0.227 C  
HETATM   25  C   UNL     1     -10.842  12.339  63.500  1.00  0.00    -0.454 C  
HETATM   26  C   UNL     1     -11.675  13.372  64.258  1.00  0.00    -0.455 C  
HETATM   27  O   UNL     1     -11.683  11.341  62.933  1.00  0.00    -0.842 OA 
HETATM   28  C   UNL     1     -12.306  12.768  65.515  1.00  0.00    -0.434 C  
HETATM   29  H   UNL     1     -12.338  11.727  62.362  1.00  0.00     0.000 HD 
HETATM   30  O   UNL     1     -12.975  13.820  66.217  1.00  0.00    -0.316 OA 
HETATM   31  C   UNL     1     -11.273  12.063  66.399  1.00  0.00    -0.389 C  
HETATM   32  C   UNL     1     -11.128  12.334  67.708  1.00  0.00    -0.304 C  
HETATM   33  H   UNL     1     -13.367  13.445  66.997  1.00  0.00     0.000 HD 
ENDBRANCH  17  22
ENDBRANCH   2   7
TORSDOF 3
ENDMDL
MODEL       43
REMARK 921   NORMALIZED FREE ENERGY PREDICTED BY IDOCK:   -5.92 KCAL/MOL
REMARK 922        TOTAL FREE ENERGY PREDICTED BY IDOCK:   -8.24 KCAL/MOL
REMARK 923 INTER-LIGAND FREE ENERGY PREDICTED BY IDOCK:   -6.75 KCAL/MOL
REMARK 924 INTRA-LIGAND FREE ENERGY PREDICTED BY IDOCK:   -1.48 KCAL/MOL
REMARK 927      BINDING AFFINITY PREDICTED BY RF-SCORE:    0.00 PKD
ROOT
HETATM    1  O   UNL     1     -12.607  10.708  71.889  1.00  0.00    -0.361 OA 
HETATM    2  C   UNL     1     -12.291  11.079  70.550  1.00  0.00    -0.373 C  
HETATM    3  H   UNL     1     -13.271  11.313  72.201  1.00  0.00     0.000 HD 
ENDROOT
BRANCH   2   4
HETATM    4  C   UNL     1     -11.924  12.542  70.541  1.00  0.00    -0.277 C  
HETATM    5  C   UNL     1     -12.987  13.611  70.595  1.00  0.00    -0.134 C  
HETATM    6  C   UNL     1     -12.221  13.383  69.323  1.00  0.00    -0.222 C  
ENDBRANCH   2   4
BRANCH   2   7
HETATM    7  C   UNL     1     -11.247  10.128  70.060  1.00  0.00    -0.361 C  
HETATM    8  C   UNL     1     -11.074   9.721  68.789  1.00  0.00    -0.140 C  
HETATM    9  C   UNL     1      -9.984   8.785  68.323  1.00  0.00    -0.202 C  
HETATM   10  C   UNL     1     -10.669   7.500  67.808  1.00  0.00    -0.233 C  
HETATM   11  C   UNL     1      -8.996   9.416  67.274  1.00  0.00    -0.143 C  
HETATM   12  C   UNL     1      -9.733   9.761  65.967  1.00  0.00    -0.319 C  
HETATM   13  C   UNL     1      -9.894  11.265  65.914  1.00  0.00    -0.272 C  
HETATM   14  C   UNL     1      -9.180  11.868  67.130  1.00  0.00    -0.183 C  
HETATM   15  C   UNL     1      -8.592  13.228  66.767  1.00  0.00    -0.041 C  
HETATM   16  C   UNL     1      -7.183  13.483  67.231  1.00  0.00    -0.006 C  
HETATM   17  C   UNL     1      -9.338  14.137  66.095  1.00  0.00    -0.166 C  
HETATM   18  C   UNL     1      -6.229  12.293  67.049  1.00  0.00    -0.052 C  
HETATM   19  C   UNL     1      -7.888  10.849  69.163  1.00  0.00    -0.119 C  
HETATM   20  C   UNL     1      -8.224  10.753  67.655  1.00  0.00    -0.115 C  
HETATM   21  C   UNL     1      -6.872  10.900  66.906  1.00  0.00    -0.114 C  
BRANCH  17  22
HETATM   22  C   UNL     1      -9.059  15.555  66.041  1.00  0.00    -0.316 C  
HETATM   23  C   UNL     1      -9.066  16.490  67.010  1.00  0.00    -0.228 C  
HETATM   24  C   UNL     1      -8.520  17.868  66.665  1.00  0.00    -0.281 C  
HETATM   25  C   UNL     1      -9.516  18.982  66.979  1.00  0.00    -0.317 C  
HETATM   26  C   UNL     1      -9.964  18.909  68.437  1.00  0.00    -0.447 C  
HETATM   27  O   UNL     1     -10.640  18.926  66.109  1.00  0.00    -0.446 OA 
HETATM   28  C   UNL     1     -10.533  17.529  68.778  1.00  0.00    -0.318 C  
HETATM   29  H   UNL     1     -11.260  19.619  66.304  1.00  0.00     0.000 HD 
HETATM   30  O   UNL     1     -10.828  17.512  70.179  1.00  0.00    -0.092 OA 
HETATM   31  C   UNL     1      -9.579  16.396  68.385  1.00  0.00    -0.219 C  
HETATM   32  C   UNL     1      -9.189  15.441  69.246  1.00  0.00    -0.259 C  
HETATM   33  H   UNL     1     -11.181  16.655  70.390  1.00  0.00     0.000 HD 
ENDBRANCH  17  22
ENDBRANCH   2   7
TORSDOF 3
ENDMDL
MODEL       44
REMARK 921   NORMALIZED FREE ENERGY PREDICTED BY IDOCK:   -5.91 KCAL/MOL
REMARK 922        TOTAL FREE ENERGY PREDICTED BY IDOCK:   -8.23 KCAL/MOL
REMARK 923 INTER-LIGAND FREE ENERGY PREDICTED BY IDOCK:   -6.90 KCAL/MOL
REMARK 924 INTRA-LIGAND FREE ENERGY PREDICTED BY IDOCK:   -1.33 KCAL/MOL
REMARK 927      BINDING AFFINITY PREDICTED BY RF-SCORE:    0.00 PKD
ROOT
HETATM    1  O   UNL     1      -5.316   8.827  68.443  1.00  0.00    -0.036 OA 
HETATM    2  C   UNL     1      -6.221   9.914  68.271  1.00  0.00    -0.050 C  
HETATM    3  H   UNL     1      -4.488   9.191  68.734  1.00  0.00     0.000 HD 
ENDROOT
BRANCH   2   4
HETATM    4  C   UNL     1      -5.573  10.925  67.357  1.00  0.00    -0.045 C  
HETATM    5  C   UNL     1      -6.362  12.079  66.791  1.00  0.00     0.025 C  
HETATM    6  C   UNL     1      -5.935  10.954  65.892  1.00  0.00    -0.116 C  
ENDBRANCH   2   4
BRANCH   2   7
HETATM    7  C   UNL     1      -7.524   9.341  67.812  1.00  0.00    -0.088 C  
HETATM    8  C   UNL     1      -8.738   9.619  68.320  1.00  0.00    -0.120 C  
HETATM    9  C   UNL     1     -10.039   9.047  67.807  1.00  0.00    -0.260 C  
HETATM   10  C   UNL     1     -10.637   8.179  68.935  1.00  0.00    -0.161 C  
HETATM   11  C   UNL     1     -11.047  10.124  67.262  1.00  0.00    -0.166 C  
HETATM   12  C   UNL     1     -11.507  11.064  68.392  1.00  0.00    -0.378 C  
HETATM   13  C   UNL     1     -10.816  12.395  68.193  1.00  0.00    -0.250 C  
HETATM   14  C   UNL     1     -10.001  12.325  66.895  1.00  0.00    -0.223 C  
HETATM   15  C   UNL     1      -9.980  13.692  66.218  1.00  0.00    -0.305 C  
HETATM   16  C   UNL     1     -10.229  13.698  64.733  1.00  0.00    -0.363 C  
HETATM   17  C   UNL     1      -9.716  14.807  66.940  1.00  0.00    -0.247 C  
HETATM   18  C   UNL     1     -11.358  12.764  64.275  1.00  0.00    -0.416 C  
HETATM   19  C   UNL     1      -9.568  10.446  65.127  1.00  0.00    -0.329 C  
HETATM   20  C   UNL     1     -10.570  11.106  66.105  1.00  0.00    -0.305 C  
HETATM   21  C   UNL     1     -11.746  11.618  65.229  1.00  0.00    -0.016 C  
BRANCH  17  22
HETATM   22  C   UNL     1      -9.283  16.068  66.381  1.00  0.00    -0.339 C  
HETATM   23  C   UNL     1      -9.089  17.268  66.962  1.00  0.00    -0.247 C  
HETATM   24  C   UNL     1      -8.423  18.355  66.131  1.00  0.00    -0.145 C  
HETATM   25  C   UNL     1      -9.249  19.638  66.086  1.00  0.00    -0.340 C  
HETATM   26  C   UNL     1      -9.559  20.127  67.500  1.00  0.00    -0.547 C  
HETATM   27  O   UNL     1     -10.452  19.450  65.350  1.00  0.00    -0.442 OA 
HETATM   28  C   UNL     1     -10.248  19.040  68.329  1.00  0.00    -0.386 C  
HETATM   29  H   UNL     1     -10.966  20.248  65.322  1.00  0.00     0.000 HD 
HETATM   30  O   UNL     1     -10.406  19.540  69.661  1.00  0.00    -0.533 OA 
HETATM   31  C   UNL     1      -9.474  17.719  68.308  1.00  0.00    -0.290 C  
HETATM   32  C   UNL     1      -9.114  17.066  69.427  1.00  0.00     0.223 C  
HETATM   33  H   UNL     1     -10.833  18.865  70.176  1.00  0.00     0.000 HD 
ENDBRANCH  17  22
ENDBRANCH   2   7
TORSDOF 3
ENDMDL
MODEL       45
REMARK 921   NORMALIZED FREE ENERGY PREDICTED BY IDOCK:   -5.85 KCAL/MOL
REMARK 922        TOTAL FREE ENERGY PREDICTED BY IDOCK:   -8.15 KCAL/MOL
REMARK 923 INTER-LIGAND FREE ENERGY PREDICTED BY IDOCK:   -6.89 KCAL/MOL
REMARK 924 INTRA-LIGAND FREE ENERGY PREDICTED BY IDOCK:   -1.26 KCAL/MOL
REMARK 927      BINDING AFFINITY PREDICTED BY RF-SCORE:    0.00 PKD
ROOT
HETATM    1  O   UNL     1     -12.580  15.831  69.994  1.00  0.00    -0.501 OA 
HETATM    2  C   UNL     1     -11.987  14.553  70.212  1.00  0.00    -0.314 C  
HETATM    3  H   UNL     1     -12.903  16.139  70.832  1.00  0.00     0.000 HD 
ENDROOT
BRANCH   2   4
HETATM    4  C   UNL     1     -13.002  13.676  70.904  1.00  0.00    -0.256 C  
HETATM    5  C   UNL     1     -12.933  13.433  72.391  1.00  0.00    -0.372 C  
HETATM    6  C   UNL     1     -12.588  12.326  71.436  1.00  0.00    -0.303 C  
ENDBRANCH   2   4
BRANCH   2   7
HETATM    7  C   UNL     1     -11.479  14.067  68.892  1.00  0.00    -0.331 C  
HETATM    8  C   UNL     1     -10.216  13.695  68.614  1.00  0.00    -0.199 C  
HETATM    9  C   UNL     1      -9.744  13.175  67.277  1.00  0.00    -0.230 C  
HETATM   10  C   UNL     1      -8.728  14.194  66.718  1.00  0.00    -0.148 C  
HETATM   11  C   UNL     1      -9.181  11.707  67.318  1.00  0.00    -0.170 C  
HETATM   12  C   UNL     1      -7.909  11.633  68.182  1.00  0.00    -0.133 C  
HETATM   13  C   UNL     1      -8.276  10.952  69.483  1.00  0.00     0.122 C  
HETATM   14  C   UNL     1      -9.744  10.515  69.399  1.00  0.00    -0.188 C  
HETATM   15  C   UNL     1      -9.947   9.219  70.178  1.00  0.00    -0.251 C  
HETATM   16  C   UNL     1     -10.767   8.158  69.492  1.00  0.00    -0.180 C  
HETATM   17  C   UNL     1      -9.432   9.082  71.423  1.00  0.00    -0.334 C  
HETATM   18  C   UNL     1     -10.452   7.978  68.001  1.00  0.00    -0.243 C  
HETATM   19  C   UNL     1     -11.610  10.769  67.583  1.00  0.00    -0.087 C  
HETATM   20  C   UNL     1     -10.108  10.544  67.883  1.00  0.00    -0.204 C  
HETATM   21  C   UNL     1      -9.758   9.154  67.287  1.00  0.00    -0.225 C  
BRANCH  17  22
HETATM   22  C   UNL     1      -9.871   8.106  72.394  1.00  0.00    -0.346 C  
HETATM   23  C   UNL     1      -9.670   6.775  72.457  1.00  0.00    -0.166 C  
HETATM   24  C   UNL     1     -10.093   6.057  73.731  1.00  0.00    -0.232 C  
HETATM   25  C   UNL     1     -11.031   4.885  73.451  1.00  0.00    -0.325 C  
HETATM   26  C   UNL     1     -10.401   3.920  72.449  1.00  0.00    -0.194 C  
HETATM   27  O   UNL     1     -12.294   5.339  72.980  1.00  0.00    -0.485 OA 
HETATM   28  C   UNL     1      -9.995   4.639  71.159  1.00  0.00    -0.195 C  
HETATM   29  H   UNL     1     -12.878   4.610  72.807  1.00  0.00     0.000 HD 
HETATM   30  O   UNL     1      -9.323   3.691  70.323  1.00  0.00    -0.137 OA 
HETATM   31  C   UNL     1      -9.128   5.871  71.433  1.00  0.00    -0.148 C  
HETATM   32  C   UNL     1      -7.937   6.069  70.840  1.00  0.00    -0.115 C  
HETATM   33  H   UNL     1      -9.072   4.138  69.523  1.00  0.00     0.000 HD 
ENDBRANCH  17  22
ENDBRANCH   2   7
TORSDOF 3
ENDMDL
MODEL       46
REMARK 921   NORMALIZED FREE ENERGY PREDICTED BY IDOCK:   -5.83 KCAL/MOL
REMARK 922        TOTAL FREE ENERGY PREDICTED BY IDOCK:   -8.13 KCAL/MOL
REMARK 923 INTER-LIGAND FREE ENERGY PREDICTED BY IDOCK:   -6.66 KCAL/MOL
REMARK 924 INTRA-LIGAND FREE ENERGY PREDICTED BY IDOCK:   -1.47 KCAL/MOL
REMARK 927      BINDING AFFINITY PREDICTED BY RF-SCORE:    0.00 PKD
ROOT
HETATM    1  O   UNL     1     -11.782  11.337  62.850  1.00  0.00    -0.842 OA 
HETATM    2  C   UNL     1     -10.526  11.618  63.461  1.00  0.00    -0.443 C  
HETATM    3  H   UNL     1     -12.077  12.136  62.428  1.00  0.00     0.000 HD 
ENDROOT
BRANCH   2   4
HETATM    4  C   UNL     1     -10.695  12.825  64.351  1.00  0.00    -0.398 C  
HETATM    5  C   UNL     1     -11.572  12.771  65.576  1.00  0.00    -0.400 C  
HETATM    6  C   UNL     1     -12.013  13.560  64.376  1.00  0.00    -0.466 C  
ENDBRANCH   2   4
BRANCH   2   7
HETATM    7  C   UNL     1     -10.063  10.361  64.126  1.00  0.00    -0.262 C  
HETATM    8  C   UNL     1      -8.796   9.914  64.189  1.00  0.00    -0.251 C  
HETATM    9  C   UNL     1      -8.359   8.656  64.900  1.00  0.00    -0.174 C  
HETATM   10  C   UNL     1      -7.813   7.686  63.830  1.00  0.00    -0.117 C  
HETATM   11  C   UNL     1      -7.348   8.899  66.081  1.00  0.00    -0.090 C  
HETATM   12  C   UNL     1      -6.021   9.473  65.553  1.00  0.00    -0.064 C  
HETATM   13  C   UNL     1      -5.973  10.939  65.927  1.00  0.00    -0.116 C  
HETATM   14  C   UNL     1      -7.216  11.262  66.765  1.00  0.00    -0.142 C  
HETATM   15  C   UNL     1      -6.883  12.332  67.801  1.00  0.00    -0.109 C  
HETATM   16  C   UNL     1      -7.395  12.083  69.195  1.00  0.00     0.048 C  
HETATM   17  C   UNL     1      -6.194  13.440  67.441  1.00  0.00     0.033 C  
HETATM   18  C   UNL     1      -7.236  10.635  69.681  1.00  0.00    -0.139 C  
HETATM   19  C   UNL     1      -9.283   9.866  67.554  1.00  0.00    -0.148 C  
HETATM   20  C   UNL     1      -7.764   9.887  67.256  1.00  0.00    -0.095 C  
HETATM   21  C   UNL     1      -7.061   9.551  68.600  1.00  0.00    -0.069 C  
BRANCH  17  22
HETATM   22  C   UNL     1      -6.160  14.672  68.196  1.00  0.00    -0.146 C  
HETATM   23  C   UNL     1      -6.954  15.759  68.144  1.00  0.00    -0.125 C  
HETATM   24  C   UNL     1      -6.779  16.814  69.226  1.00  0.00    -0.229 C  
HETATM   25  C   UNL     1      -6.540  18.206  68.646  1.00  0.00    -0.233 C  
HETATM   26  C   UNL     1      -7.658  18.583  67.674  1.00  0.00    -0.238 C  
HETATM   27  O   UNL     1      -5.274  18.284  68.002  1.00  0.00    -0.155 OA 
HETATM   28  C   UNL     1      -7.819  17.531  66.574  1.00  0.00    -0.276 C  
HETATM   29  H   UNL     1      -5.125  19.150  67.642  1.00  0.00     0.000 HD 
HETATM   30  O   UNL     1      -8.947  17.904  65.775  1.00  0.00    -0.492 OA 
HETATM   31  C   UNL     1      -7.969  16.117  67.142  1.00  0.00    -0.232 C  
HETATM   32  C   UNL     1      -8.984  15.301  66.808  1.00  0.00    -0.291 C  
HETATM   33  H   UNL     1      -9.047  17.252  65.091  1.00  0.00     0.000 HD 
ENDBRANCH  17  22
ENDBRANCH   2   7
TORSDOF 3
ENDMDL
MODEL       47
REMARK 921   NORMALIZED FREE ENERGY PREDICTED BY IDOCK:   -5.81 KCAL/MOL
REMARK 922        TOTAL FREE ENERGY PREDICTED BY IDOCK:   -8.11 KCAL/MOL
REMARK 923 INTER-LIGAND FREE ENERGY PREDICTED BY IDOCK:   -6.67 KCAL/MOL
REMARK 924 INTRA-LIGAND FREE ENERGY PREDICTED BY IDOCK:   -1.43 KCAL/MOL
REMARK 927      BINDING AFFINITY PREDICTED BY RF-SCORE:    0.00 PKD
ROOT
HETATM    1  O   UNL     1      -8.542   4.691  67.544  1.00  0.00    -0.104 OA 
HETATM    2  C   UNL     1      -7.376   4.788  68.357  1.00  0.00    -0.065 C  
HETATM    3  H   UNL     1      -8.254   4.655  66.639  1.00  0.00     0.000 HD 
ENDROOT
BRANCH   2   4
HETATM    4  C   UNL     1      -6.556   5.956  67.867  1.00  0.00    -0.052 C  
HETATM    5  C   UNL     1      -7.206   7.121  67.163  1.00  0.00    -0.085 C  
HETATM    6  C   UNL     1      -6.352   6.160  66.386  1.00  0.00    -0.045 C  
ENDBRANCH   2   4
BRANCH   2   7
HETATM    7  C   UNL     1      -7.829   4.845  69.781  1.00  0.00    -0.066 C  
HETATM    8  C   UNL     1      -7.438   5.741  70.706  1.00  0.00    -0.090 C  
HETATM    9  C   UNL     1      -7.945   5.790  72.128  1.00  0.00    -0.107 C  
HETATM   10  C   UNL     1      -6.747   5.491  73.055  1.00  0.00    -0.073 C  
HETATM   11  C   UNL     1      -8.692   7.122  72.501  1.00  0.00    -0.140 C  
HETATM   12  C   UNL     1      -7.732   8.324  72.437  1.00  0.00    -0.168 C  
HETATM   13  C   UNL     1      -8.069   9.118  71.194  1.00  0.00    -0.136 C  
HETATM   14  C   UNL     1      -9.294   8.474  70.531  1.00  0.00    -0.192 C  
HETATM   15  C   UNL     1     -10.150   9.547  69.864  1.00  0.00    -0.262 C  
HETATM   16  C   UNL     1     -11.633   9.450  70.099  1.00  0.00    -0.117 C  
HETATM   17  C   UNL     1      -9.573  10.495  69.087  1.00  0.00    -0.214 C  
HETATM   18  C   UNL     1     -12.026   9.111  71.545  1.00  0.00    -0.422 C  
HETATM   19  C   UNL     1     -10.758   6.377  71.078  1.00  0.00    -0.301 C  
HETATM   20  C   UNL     1      -9.942   7.572  71.626  1.00  0.00    -0.200 C  
HETATM   21  C   UNL     1     -10.949   8.446  72.423  1.00  0.00    -0.425 C  
BRANCH  17  22
HETATM   22  C   UNL     1     -10.272  11.296  68.108  1.00  0.00    -0.196 C  
HETATM   23  C   UNL     1     -10.564  11.051  66.816  1.00  0.00    -0.317 C  
HETATM   24  C   UNL     1     -11.503  12.019  66.110  1.00  0.00    -0.401 C  
HETATM   25  C   UNL     1     -10.900  12.573  64.820  1.00  0.00    -0.298 C  
HETATM   26  C   UNL     1     -10.470  11.435  63.895  1.00  0.00    -0.444 C  
HETATM   27  O   UNL     1      -9.801  13.434  65.095  1.00  0.00    -0.528 OA 
HETATM   28  C   UNL     1      -9.510  10.474  64.601  1.00  0.00    -0.263 C  
HETATM   29  H   UNL     1      -9.427  13.779  64.293  1.00  0.00     0.000 HD 
HETATM   30  O   UNL     1      -9.242   9.389  63.706  1.00  0.00    -0.430 OA 
HETATM   31  C   UNL     1     -10.065   9.981  65.941  1.00  0.00    -0.319 C  
HETATM   32  C   UNL     1     -10.155   8.678  66.257  1.00  0.00    -0.215 C  
HETATM   33  H   UNL     1      -8.645   8.793  64.144  1.00  0.00     0.000 HD 
ENDBRANCH  17  22
ENDBRANCH   2   7
TORSDOF 3
ENDMDL
MODEL       48
REMARK 921   NORMALIZED FREE ENERGY PREDICTED BY IDOCK:   -5.79 KCAL/MOL
REMARK 922        TOTAL FREE ENERGY PREDICTED BY IDOCK:   -8.08 KCAL/MOL
REMARK 923 INTER-LIGAND FREE ENERGY PREDICTED BY IDOCK:   -7.25 KCAL/MOL
REMARK 924 INTRA-LIGAND FREE ENERGY PREDICTED BY IDOCK:   -0.83 KCAL/MOL
REMARK 927      BINDING AFFINITY PREDICTED BY RF-SCORE:    0.00 PKD
ROOT
HETATM    1  O   UNL     1     -10.677  14.846  71.235  1.00  0.00    -0.511 OA 
HETATM    2  C   UNL     1     -11.895  14.510  70.577  1.00  0.00    -0.306 C  
HETATM    3  H   UNL     1     -10.860  14.887  72.166  1.00  0.00     0.000 HD 
ENDROOT
BRANCH   2   4
HETATM    4  C   UNL     1     -12.952  15.496  71.010  1.00  0.00    -0.550 C  
HETATM    5  C   UNL     1     -13.357  15.615  72.458  1.00  0.00    -0.604 C  
HETATM    6  C   UNL     1     -14.302  14.998  71.466  1.00  0.00    -0.651 C  
ENDBRANCH   2   4
BRANCH   2   7
HETATM    7  C   UNL     1     -11.606  14.446  69.111  1.00  0.00    -0.344 C  
HETATM    8  C   UNL     1     -10.388  14.397  68.542  1.00  0.00    -0.248 C  
HETATM    9  C   UNL     1     -10.133  14.297  67.057  1.00  0.00    -0.260 C  
HETATM   10  C   UNL     1      -9.414  15.593  66.624  1.00  0.00    -0.282 C  
HETATM   11  C   UNL     1      -9.367  12.995  66.619  1.00  0.00    -0.242 C  
HETATM   12  C   UNL     1      -7.947  12.971  67.213  1.00  0.00    -0.143 C  
HETATM   13  C   UNL     1      -7.934  11.953  68.332  1.00  0.00    -0.154 C  
HETATM   14  C   UNL     1      -9.309  11.273  68.380  1.00  0.00    -0.181 C  
HETATM   15  C   UNL     1      -9.156   9.819  68.815  1.00  0.00    -0.136 C  
HETATM   16  C   UNL     1      -9.938   8.806  68.021  1.00  0.00    -0.220 C  
HETATM   17  C   UNL     1      -8.380   9.502  69.879  1.00  0.00    -0.180 C  
HETATM   18  C   UNL     1      -9.916   9.036  66.503  1.00  0.00    -0.355 C  
HETATM   19  C   UNL     1     -11.526  11.574  67.026  1.00  0.00    -0.290 C  
HETATM   20  C   UNL     1      -9.979  11.578  67.006  1.00  0.00    -0.225 C  
HETATM   21  C   UNL     1      -9.562  10.455  66.017  1.00  0.00    -0.251 C  
BRANCH  17  22
HETATM   22  C   UNL     1      -8.462   8.264  70.620  1.00  0.00    -0.131 C  
HETATM   23  C   UNL     1      -8.062   7.018  70.299  1.00  0.00    -0.119 C  
HETATM   24  C   UNL     1      -8.103   5.961  71.393  1.00  0.00    -0.115 C  
HETATM   25  C   UNL     1      -8.899   4.726  70.975  1.00  0.00    -0.117 C  
HETATM   26  C   UNL     1      -8.359   4.155  69.666  1.00  0.00    -0.075 C  
HETATM   27  O   UNL     1     -10.285   5.025  70.854  1.00  0.00    -0.221 OA 
HETATM   28  C   UNL     1      -8.338   5.214  68.561  1.00  0.00    -0.089 C  
HETATM   29  H   UNL     1     -10.781   4.257  70.595  1.00  0.00     0.000 HD 
HETATM   30  O   UNL     1      -7.724   4.630  67.407  1.00  0.00    -0.088 OA 
HETATM   31  C   UNL     1      -7.619   6.494  68.999  1.00  0.00    -0.100 C  
HETATM   32  C   UNL     1      -6.619   7.047  68.291  1.00  0.00    -0.059 C  
HETATM   33  H   UNL     1      -7.711   5.287  66.721  1.00  0.00     0.000 HD 
ENDBRANCH  17  22
ENDBRANCH   2   7
TORSDOF 3
ENDMDL
MODEL       49
REMARK 921   NORMALIZED FREE ENERGY PREDICTED BY IDOCK:   -5.73 KCAL/MOL
REMARK 922        TOTAL FREE ENERGY PREDICTED BY IDOCK:   -8.01 KCAL/MOL
REMARK 923 INTER-LIGAND FREE ENERGY PREDICTED BY IDOCK:   -6.32 KCAL/MOL
REMARK 924 INTRA-LIGAND FREE ENERGY PREDICTED BY IDOCK:   -1.69 KCAL/MOL
REMARK 927      BINDING AFFINITY PREDICTED BY RF-SCORE:    0.00 PKD
ROOT
HETATM    1  O   UNL     1      -9.630   4.301  68.867  1.00  0.00    -0.160 OA 
HETATM    2  C   UNL     1      -9.991   5.557  68.300  1.00  0.00    -0.154 C  
HETATM    3  H   UNL     1     -10.349   4.024  69.423  1.00  0.00     0.000 HD 
ENDROOT
BRANCH   2   4
HETATM    4  C   UNL     1     -10.369   6.490  69.424  1.00  0.00    -0.241 C  
HETATM    5  C   UNL     1     -10.829   7.899  69.144  1.00  0.00    -0.054 C  
HETATM    6  C   UNL     1      -9.479   7.661  69.759  1.00  0.00    -0.156 C  
ENDBRANCH   2   4
BRANCH   2   7
HETATM    7  C   UNL     1      -8.859   5.994  67.425  1.00  0.00    -0.106 C  
HETATM    8  C   UNL     1      -8.965   6.630  66.245  1.00  0.00    -0.168 C  
HETATM    9  C   UNL     1      -7.798   7.088  65.404  1.00  0.00    -0.119 C  
HETATM   10  C   UNL     1      -7.841   6.292  64.081  1.00  0.00    -0.117 C  
HETATM   11  C   UNL     1      -7.733   8.644  65.181  1.00  0.00    -0.101 C  
HETATM   12  C   UNL     1      -8.950   9.131  64.373  1.00  0.00    -0.104 C  
HETATM   13  C   UNL     1      -9.878   9.850  65.327  1.00  0.00    -0.373 C  
HETATM   14  C   UNL     1      -9.207   9.898  66.706  1.00  0.00    -0.176 C  
HETATM   15  C   UNL     1      -9.589  11.187  67.427  1.00  0.00    -0.183 C  
HETATM   16  C   UNL     1      -8.465  11.923  68.104  1.00  0.00    -0.163 C  
HETATM   17  C   UNL     1     -10.881  11.593  67.461  1.00  0.00    -0.287 C  
HETATM   18  C   UNL     1      -7.169  11.998  67.284  1.00  0.00    -0.150 C  
HETATM   19  C   UNL     1      -6.950   8.978  67.656  1.00  0.00    -0.075 C  
HETATM   20  C   UNL     1      -7.697   9.600  66.452  1.00  0.00    -0.101 C  
HETATM   21  C   UNL     1      -6.991  10.954  66.164  1.00  0.00    -0.099 C  
BRANCH  17  22
HETATM   22  C   UNL     1     -11.423  12.539  68.409  1.00  0.00    -0.355 C  
HETATM   23  C   UNL     1     -11.582  13.874  68.328  1.00  0.00    -0.372 C  
HETATM   24  C   UNL     1     -12.384  14.558  69.426  1.00  0.00    -0.213 C  
HETATM   25  C   UNL     1     -11.613  15.704  70.079  1.00  0.00    -0.350 C  
HETATM   26  C   UNL     1     -11.143  16.705  69.025  1.00  0.00    -0.234 C  
HETATM   27  O   UNL     1     -10.507  15.217  70.831  1.00  0.00    -0.505 OA 
HETATM   28  C   UNL     1     -10.320  16.020  67.931  1.00  0.00    -0.269 C  
HETATM   29  H   UNL     1     -10.028  15.929  71.237  1.00  0.00     0.000 HD 
HETATM   30  O   UNL     1     -10.011  17.002  66.936  1.00  0.00    -0.269 OA 
HETATM   31  C   UNL     1     -11.046  14.812  67.331  1.00  0.00    -0.327 C  
HETATM   32  C   UNL     1     -11.239  14.661  66.009  1.00  0.00    -0.342 C  
HETATM   33  H   UNL     1      -9.500  16.576  66.258  1.00  0.00     0.000 HD 
ENDBRANCH  17  22
ENDBRANCH   2   7
TORSDOF 3
ENDMDL
MODEL       50
REMARK 921   NORMALIZED FREE ENERGY PREDICTED BY IDOCK:   -5.70 KCAL/MOL
REMARK 922        TOTAL FREE ENERGY PREDICTED BY IDOCK:   -7.98 KCAL/MOL
REMARK 923 INTER-LIGAND FREE ENERGY PREDICTED BY IDOCK:   -6.63 KCAL/MOL
REMARK 924 INTRA-LIGAND FREE ENERGY PREDICTED BY IDOCK:   -1.35 KCAL/MOL
REMARK 927      BINDING AFFINITY PREDICTED BY RF-SCORE:    0.00 PKD
ROOT
HETATM    1  O   UNL     1     -13.006  14.112  64.536  1.00  0.00    -0.579 OA 
HETATM    2  C   UNL     1     -12.411  12.896  64.983  1.00  0.00    -0.492 C  
HETATM    3  H   UNL     1     -13.435  13.930  63.709  1.00  0.00     0.000 HD 
ENDROOT
BRANCH   2   4
HETATM    4  C   UNL     1     -11.536  12.366  63.875  1.00  0.00    -0.509 C  
HETATM    5  C   UNL     1     -10.622  11.188  64.102  1.00  0.00    -0.436 C  
HETATM    6  C   UNL     1     -10.041  12.564  63.939  1.00  0.00    -0.308 C  
ENDBRANCH   2   4
BRANCH   2   7
HETATM    7  C   UNL     1     -11.735  13.183  66.285  1.00  0.00    -0.424 C  
HETATM    8  C   UNL     1     -11.805  12.433  67.400  1.00  0.00    -0.360 C  
HETATM    9  C   UNL     1     -11.080  12.735  68.690  1.00  0.00    -0.304 C  
HETATM   10  C   UNL     1     -12.150  13.022  69.765  1.00  0.00    -0.325 C  
HETATM   11  C   UNL     1     -10.052  11.628  69.127  1.00  0.00     0.053 C  
HETATM   12  C   UNL     1     -10.776  10.305  69.442  1.00  0.00    -0.272 C  
HETATM   13  C   UNL     1     -10.500   9.348  68.303  1.00  0.00    -0.260 C  
HETATM   14  C   UNL     1      -9.533  10.029  67.326  1.00  0.00    -0.179 C  
HETATM   15  C   UNL     1      -8.614   8.989  66.693  1.00  0.00    -0.134 C  
HETATM   16  C   UNL     1      -7.154   9.352  66.625  1.00  0.00    -0.085 C  
HETATM   17  C   UNL     1      -9.124   7.834  66.203  1.00  0.00    -0.199 C  
HETATM   18  C   UNL     1      -6.606  10.018  67.896  1.00  0.00    -0.063 C  
HETATM   19  C   UNL     1      -8.409  12.389  67.239  1.00  0.00    -0.184 C  
HETATM   20  C   UNL     1      -8.896  11.212  68.117  1.00  0.00    -0.148 C  
HETATM   21  C   UNL     1      -7.633  10.669  68.841  1.00  0.00    -0.113 C  
BRANCH  17  22
HETATM   22  C   UNL     1      -8.454   6.974  65.254  1.00  0.00    -0.060 C  
HETATM   23  C   UNL     1      -8.655   5.678  64.946  1.00  0.00    -0.086 C  
HETATM   24  C   UNL     1      -7.913   5.115  63.743  1.00  0.00    -0.102 C  
HETATM   25  C   UNL     1      -7.110   3.864  64.090  1.00  0.00    -0.050 C  
HETATM   26  C   UNL     1      -8.009   2.810  64.735  1.00  0.00    -0.082 C  
HETATM   27  O   UNL     1      -6.016   4.176  64.944  1.00  0.00    -0.021 OA 
HETATM   28  C   UNL     1      -8.739   3.371  65.958  1.00  0.00    -0.125 C  
HETATM   29  H   UNL     1      -5.516   3.397  65.160  1.00  0.00     0.000 HD 
HETATM   30  O   UNL     1      -9.632   2.359  66.435  1.00  0.00    -0.375 OA 
HETATM   31  C   UNL     1      -9.475   4.676  65.644  1.00  0.00    -0.178 C  
HETATM   32  C   UNL     1     -10.778   4.862  65.917  1.00  0.00    -0.233 C  
HETATM   33  H   UNL     1     -10.085   2.707  67.195  1.00  0.00     0.000 HD 
ENDBRANCH  17  22
ENDBRANCH   2   7
TORSDOF 3
ENDMDL
MODEL       51
REMARK 921   NORMALIZED FREE ENERGY PREDICTED BY IDOCK:   -5.66 KCAL/MOL
REMARK 922        TOTAL FREE ENERGY PREDICTED BY IDOCK:   -7.93 KCAL/MOL
REMARK 923 INTER-LIGAND FREE ENERGY PREDICTED BY IDOCK:   -6.76 KCAL/MOL
REMARK 924 INTRA-LIGAND FREE ENERGY PREDICTED BY IDOCK:   -1.16 KCAL/MOL
REMARK 927      BINDING AFFINITY PREDICTED BY RF-SCORE:    0.00 PKD
ROOT
HETATM    1  O   UNL     1     -11.994  13.217  69.719  1.00  0.00    -0.313 OA 
HETATM    2  C   UNL     1     -12.032  11.835  69.371  1.00  0.00    -0.298 C  
HETATM    3  H   UNL     1     -12.045  13.714  68.911  1.00  0.00     0.000 HD 
ENDROOT
BRANCH   2   4
HETATM    4  C   UNL     1     -10.949  11.576  68.353  1.00  0.00    -0.267 C  
HETATM    5  C   UNL     1     -11.255  11.568  66.877  1.00  0.00    -0.363 C  
HETATM    6  C   UNL     1     -10.938  10.279  67.582  1.00  0.00    -0.356 C  
ENDBRANCH   2   4
BRANCH   2   7
HETATM    7  C   UNL     1     -11.951  11.053  70.643  1.00  0.00    -0.464 C  
HETATM    8  C   UNL     1     -12.495   9.843  70.869  1.00  0.00    -0.401 C  
HETATM    9  C   UNL     1     -12.363   9.065  72.157  1.00  0.00    -0.442 C  
HETATM   10  C   UNL     1     -13.776   8.939  72.766  1.00  0.00    -0.288 C  
HETATM   11  C   UNL     1     -11.636   7.680  72.002  1.00  0.00    -0.334 C  
HETATM   12  C   UNL     1     -12.454   6.729  71.110  1.00  0.00    -0.351 C  
HETATM   13  C   UNL     1     -11.753   6.636  69.772  1.00  0.00    -0.279 C  
HETATM   14  C   UNL     1     -10.453   7.446  69.854  1.00  0.00    -0.238 C  
HETATM   15  C   UNL     1      -9.377   6.793  68.990  1.00  0.00    -0.134 C  
HETATM   16  C   UNL     1      -8.013   6.670  69.616  1.00  0.00    -0.124 C  
HETATM   17  C   UNL     1      -9.664   6.393  67.729  1.00  0.00    -0.127 C  
HETATM   18  C   UNL     1      -8.026   6.223  71.085  1.00  0.00    -0.116 C  
HETATM   19  C   UNL     1      -9.340   8.903  71.719  1.00  0.00    -0.304 C  
HETATM   20  C   UNL     1     -10.174   7.646  71.375  1.00  0.00    -0.208 C  
HETATM   21  C   UNL     1      -9.339   6.431  71.865  1.00  0.00    -0.154 C  
BRANCH  17  22
HETATM   22  C   UNL     1      -8.681   6.139  66.700  1.00  0.00    -0.124 C  
HETATM   23  C   UNL     1      -8.715   5.317  65.634  1.00  0.00    -0.146 C  
HETATM   24  C   UNL     1      -7.590   5.435  64.616  1.00  0.00    -0.081 C  
HETATM   25  C   UNL     1      -6.900   4.098  64.355  1.00  0.00    -0.045 C  
HETATM   26  C   UNL     1      -7.920   3.038  63.941  1.00  0.00    -0.082 C  
HETATM   27  O   UNL     1      -6.170   3.666  65.498  1.00  0.00    -0.029 OA 
HETATM   28  C   UNL     1      -9.040   2.905  64.976  1.00  0.00    -0.147 C  
HETATM   29  H   UNL     1      -5.740   2.834  65.336  1.00  0.00     0.000 HD 
HETATM   30  O   UNL     1     -10.000   1.976  64.464  1.00  0.00    -0.331 OA 
HETATM   31  C   UNL     1      -9.680   4.255  65.313  1.00  0.00    -0.201 C  
HETATM   32  C   UNL     1     -11.006   4.469  65.248  1.00  0.00    -0.014 C  
HETATM   33  H   UNL     1     -10.695   1.893  65.106  1.00  0.00     0.000 HD 
ENDBRANCH  17  22
ENDBRANCH   2   7
TORSDOF 3
ENDMDL
MODEL       52
REMARK 921   NORMALIZED FREE ENERGY PREDICTED BY IDOCK:   -5.62 KCAL/MOL
REMARK 922        TOTAL FREE ENERGY PREDICTED BY IDOCK:   -7.88 KCAL/MOL
REMARK 923 INTER-LIGAND FREE ENERGY PREDICTED BY IDOCK:   -6.40 KCAL/MOL
REMARK 924 INTRA-LIGAND FREE ENERGY PREDICTED BY IDOCK:   -1.48 KCAL/MOL
REMARK 927      BINDING AFFINITY PREDICTED BY RF-SCORE:    0.00 PKD
ROOT
HETATM    1  O   UNL     1     -11.935  12.806  62.802  1.00  0.00    -0.593 OA 
HETATM    2  C   UNL     1     -11.273  12.257  63.938  1.00  0.00    -0.421 C  
HETATM    3  H   UNL     1     -12.438  12.106  62.402  1.00  0.00     0.000 HD 
ENDROOT
BRANCH   2   4
HETATM    4  C   UNL     1     -10.497  11.044  63.489  1.00  0.00    -0.365 C  
HETATM    5  C   UNL     1      -9.176  10.687  64.124  1.00  0.00    -0.267 C  
HETATM    6  C   UNL     1      -9.210  11.218  62.719  1.00  0.00    -0.354 C  
ENDBRANCH   2   4
BRANCH   2   7
HETATM    7  C   UNL     1     -10.481  13.359  64.567  1.00  0.00    -0.431 C  
HETATM    8  C   UNL     1     -10.760  13.976  65.729  1.00  0.00    -0.294 C  
HETATM    9  C   UNL     1      -9.917  15.063  66.353  1.00  0.00    -0.295 C  
HETATM   10  C   UNL     1     -10.768  16.351  66.375  1.00  0.00    -0.161 C  
HETATM   11  C   UNL     1      -9.327  14.693  67.763  1.00  0.00    -0.197 C  
HETATM   12  C   UNL     1     -10.454  14.500  68.793  1.00  0.00    -0.246 C  
HETATM   13  C   UNL     1     -10.585  13.016  69.059  1.00  0.00    -0.079 C  
HETATM   14  C   UNL     1      -9.486  12.288  68.274  1.00  0.00    -0.209 C  
HETATM   15  C   UNL     1      -9.021  11.058  69.047  1.00  0.00    -0.071 C  
HETATM   16  C   UNL     1      -7.532  10.852  69.127  1.00  0.00    -0.130 C  
HETATM   17  C   UNL     1      -9.927  10.208  69.587  1.00  0.00    -0.262 C  
HETATM   18  C   UNL     1      -6.727  12.131  69.397  1.00  0.00    -0.056 C  
HETATM   19  C   UNL     1      -7.608  13.075  66.633  1.00  0.00     0.694 C  
HETATM   20  C   UNL     1      -8.438  13.381  67.903  1.00  0.00    -0.173 C  
HETATM   21  C   UNL     1      -7.416  13.471  69.069  1.00  0.00     0.046 C  
BRANCH  17  22
HETATM   22  C   UNL     1      -9.647   8.846  69.982  1.00  0.00    -0.190 C  
HETATM   23  C   UNL     1      -9.598   7.712  69.257  1.00  0.00    -0.159 C  
HETATM   24  C   UNL     1      -9.067   6.460  69.939  1.00  0.00    -0.142 C  
HETATM   25  C   UNL     1     -10.040   5.288  69.840  1.00  0.00    -0.263 C  
HETATM   26  C   UNL     1     -10.408   5.016  68.382  1.00  0.00    -0.091 C  
HETATM   27  O   UNL     1     -11.211   5.526  70.613  1.00  0.00    -0.141 OA 
HETATM   28  C   UNL     1     -10.962   6.270  67.702  1.00  0.00    -0.342 C  
HETATM   29  H   UNL     1     -11.817   4.796  70.552  1.00  0.00     0.000 HD 
HETATM   30  O   UNL     1     -11.180   5.959  66.322  1.00  0.00    -0.737 OA 
HETATM   31  C   UNL     1     -10.036   7.478  67.872  1.00  0.00    -0.203 C  
HETATM   32  C   UNL     1      -9.602   8.215  66.835  1.00  0.00    -0.269 C  
HETATM   33  H   UNL     1     -11.524   6.738  65.900  1.00  0.00     0.000 HD 
ENDBRANCH  17  22
ENDBRANCH   2   7
TORSDOF 3
ENDMDL
MODEL       53
REMARK 921   NORMALIZED FREE ENERGY PREDICTED BY IDOCK:   -5.53 KCAL/MOL
REMARK 922        TOTAL FREE ENERGY PREDICTED BY IDOCK:   -7.78 KCAL/MOL
REMARK 923 INTER-LIGAND FREE ENERGY PREDICTED BY IDOCK:   -6.68 KCAL/MOL
REMARK 924 INTRA-LIGAND FREE ENERGY PREDICTED BY IDOCK:   -1.10 KCAL/MOL
REMARK 927      BINDING AFFINITY PREDICTED BY RF-SCORE:    0.00 PKD
ROOT
HETATM    1  O   UNL     1     -11.744  12.633  69.685  1.00  0.00    -0.303 OA 
HETATM    2  C   UNL     1     -12.032  13.844  68.992  1.00  0.00    -0.364 C  
HETATM    3  H   UNL     1     -12.426  12.509  70.334  1.00  0.00     0.000 HD 
ENDROOT
BRANCH   2   4
HETATM    4  C   UNL     1     -12.195  14.943  70.013  1.00  0.00    -0.381 C  
HETATM    5  C   UNL     1     -12.053  14.661  71.488  1.00  0.00    -0.413 C  
HETATM    6  C   UNL     1     -13.408  14.959  70.911  1.00  0.00    -0.393 C  
ENDBRANCH   2   4
BRANCH   2   7
HETATM    7  C   UNL     1     -10.957  14.039  67.971  1.00  0.00    -0.266 C  
HETATM    8  C   UNL     1      -9.636  14.123  68.211  1.00  0.00    -0.226 C  
HETATM    9  C   UNL     1      -8.574  14.285  67.150  1.00  0.00    -0.234 C  
HETATM   10  C   UNL     1      -7.901  15.657  67.376  1.00  0.00    -0.210 C  
HETATM   11  C   UNL     1      -7.543  13.100  67.082  1.00  0.00    -0.008 C  
HETATM   12  C   UNL     1      -6.720  13.016  68.380  1.00  0.00    -0.093 C  
HETATM   13  C   UNL     1      -7.220  11.823  69.166  1.00  0.00    -0.043 C  
HETATM   14  C   UNL     1      -8.283  11.106  68.325  1.00  0.00    -0.134 C  
HETATM   15  C   UNL     1      -8.228   9.603  68.587  1.00  0.00    -0.105 C  
HETATM   16  C   UNL     1      -8.291   8.718  67.371  1.00  0.00    -0.109 C  
HETATM   17  C   UNL     1      -8.160   9.133  69.855  1.00  0.00    -0.122 C  
HETATM   18  C   UNL     1      -7.441   9.204  66.188  1.00  0.00    -0.095 C  
HETATM   19  C   UNL     1      -9.359  11.567  65.986  1.00  0.00    -0.239 C  
HETATM   20  C   UNL     1      -8.087  11.620  66.866  1.00  0.00    -0.164 C  
HETATM   21  C   UNL     1      -7.050  10.694  66.174  1.00  0.00    -0.138 C  
BRANCH  17  22
HETATM   22  C   UNL     1      -8.496   7.785  70.254  1.00  0.00    -0.133 C  
HETATM   23  C   UNL     1      -9.630   7.277  70.774  1.00  0.00    -0.171 C  
HETATM   24  C   UNL     1      -9.736   5.764  70.892  1.00  0.00    -0.218 C  
HETATM   25  C   UNL     1     -10.079   5.316  72.311  1.00  0.00    -0.189 C  
HETATM   26  C   UNL     1     -11.352   6.005  72.801  1.00  0.00    -0.282 C  
HETATM   27  O   UNL     1      -9.000   5.569  73.204  1.00  0.00    -0.123 OA 
HETATM   28  C   UNL     1     -11.236   7.529  72.701  1.00  0.00    -0.348 C  
HETATM   29  H   UNL     1      -9.213   5.290  74.087  1.00  0.00     0.000 HD 
HETATM   30  O   UNL     1     -12.498   8.089  73.076  1.00  0.00    -0.625 OA 
HETATM   31  C   UNL     1     -10.804   7.986  71.304  1.00  0.00    -0.267 C  
HETATM   32  C   UNL     1     -11.485   8.904  70.596  1.00  0.00    -0.280 C  
HETATM   33  H   UNL     1     -12.426   9.034  73.015  1.00  0.00     0.000 HD 
ENDBRANCH  17  22
ENDBRANCH   2   7
TORSDOF 3
ENDMDL
MODEL       54
REMARK 921   NORMALIZED FREE ENERGY PREDICTED BY IDOCK:   -5.47 KCAL/MOL
REMARK 922        TOTAL FREE ENERGY PREDICTED BY IDOCK:   -7.71 KCAL/MOL
REMARK 923 INTER-LIGAND FREE ENERGY PREDICTED BY IDOCK:   -7.01 KCAL/MOL
REMARK 924 INTRA-LIGAND FREE ENERGY PREDICTED BY IDOCK:   -0.71 KCAL/MOL
REMARK 927      BINDING AFFINITY PREDICTED BY RF-SCORE:    0.00 PKD
ROOT
HETATM    1  O   UNL     1      -5.992   8.930  65.903  1.00  0.00    -0.050 OA 
HETATM    2  C   UNL     1      -6.674   9.601  64.846  1.00  0.00    -0.104 C  
HETATM    3  H   UNL     1      -5.060   9.041  65.754  1.00  0.00     0.000 HD 
ENDROOT
BRANCH   2   4
HETATM    4  C   UNL     1      -6.136   9.082  63.536  1.00  0.00    -0.088 C  
HETATM    5  C   UNL     1      -7.065   8.598  62.451  1.00  0.00    -0.097 C  
HETATM    6  C   UNL     1      -6.230   7.610  63.215  1.00  0.00    -0.055 C  
ENDBRANCH   2   4
BRANCH   2   7
HETATM    7  C   UNL     1      -8.140   9.424  65.081  1.00  0.00    -0.126 C  
HETATM    8  C   UNL     1      -8.792   9.638  66.238  1.00  0.00    -0.172 C  
HETATM    9  C   UNL     1     -10.282   9.483  66.429  1.00  0.00    -0.302 C  
HETATM   10  C   UNL     1     -10.502   8.331  67.434  1.00  0.00    -0.353 C  
HETATM   11  C   UNL     1     -11.020  10.809  66.846  1.00  0.00    -0.255 C  
HETATM   12  C   UNL     1     -10.545  11.288  68.229  1.00  0.00    -0.228 C  
HETATM   13  C   UNL     1      -9.651  12.490  68.018  1.00  0.00    -0.212 C  
HETATM   14  C   UNL     1      -9.641  12.824  66.520  1.00  0.00    -0.257 C  
HETATM   15  C   UNL     1      -9.512  14.331  66.323  1.00  0.00    -0.277 C  
HETATM   16  C   UNL     1     -10.432  14.945  65.302  1.00  0.00    -0.427 C  
HETATM   17  C   UNL     1      -8.589  15.034  67.021  1.00  0.00    -0.266 C  
HETATM   18  C   UNL     1     -11.873  14.416  65.347  1.00  0.00    -0.366 C  
HETATM   19  C   UNL     1     -10.749  11.738  64.414  1.00  0.00    -0.381 C  
HETATM   20  C   UNL     1     -10.878  12.091  65.916  1.00  0.00    -0.329 C  
HETATM   21  C   UNL     1     -12.094  13.051  66.026  1.00  0.00    -0.493 C  
BRANCH  17  22
HETATM   22  C   UNL     1      -8.102  16.346  66.655  1.00  0.00    -0.321 C  
HETATM   23  C   UNL     1      -7.072  17.068  67.138  1.00  0.00    -0.210 C  
HETATM   24  C   UNL     1      -6.690  18.337  66.390  1.00  0.00    -0.256 C  
HETATM   25  C   UNL     1      -6.661  19.561  67.303  1.00  0.00    -0.191 C  
HETATM   26  C   UNL     1      -5.742  19.319  68.500  1.00  0.00    -0.226 C  
HETATM   27  O   UNL     1      -7.970  19.905  67.742  1.00  0.00    -0.282 OA 
HETATM   28  C   UNL     1      -6.141  18.053  69.263  1.00  0.00    -0.239 C  
HETATM   29  H   UNL     1      -7.952  20.667  68.310  1.00  0.00     0.000 HD 
HETATM   30  O   UNL     1      -5.173  17.843  70.296  1.00  0.00    -0.210 OA 
HETATM   31  C   UNL     1      -6.261  16.835  68.342  1.00  0.00    -0.134 C  
HETATM   32  C   UNL     1      -5.619  15.678  68.577  1.00  0.00    -0.103 C  
HETATM   33  H   UNL     1      -5.420  17.057  70.770  1.00  0.00     0.000 HD 
ENDBRANCH  17  22
ENDBRANCH   2   7
TORSDOF 3
ENDMDL
MODEL       55
REMARK 921   NORMALIZED FREE ENERGY PREDICTED BY IDOCK:   -5.44 KCAL/MOL
REMARK 922        TOTAL FREE ENERGY PREDICTED BY IDOCK:   -7.67 KCAL/MOL
REMARK 923 INTER-LIGAND FREE ENERGY PREDICTED BY IDOCK:   -6.89 KCAL/MOL
REMARK 924 INTRA-LIGAND FREE ENERGY PREDICTED BY IDOCK:   -0.78 KCAL/MOL
REMARK 927      BINDING AFFINITY PREDICTED BY RF-SCORE:    0.00 PKD
ROOT
HETATM    1  O   UNL     1     -10.887  17.111  67.960  1.00  0.00    -0.378 OA 
HETATM    2  C   UNL     1     -10.901  15.926  68.752  1.00  0.00    -0.284 C  
HETATM    3  H   UNL     1     -10.425  17.777  68.455  1.00  0.00     0.000 HD 
ENDROOT
BRANCH   2   4
HETATM    4  C   UNL     1     -11.470  16.273  70.106  1.00  0.00    -0.228 C  
HETATM    5  C   UNL     1     -11.288  15.350  71.285  1.00  0.00    -0.441 C  
HETATM    6  C   UNL     1     -12.642  15.492  70.649  1.00  0.00    -0.493 C  
ENDBRANCH   2   4
BRANCH   2   7
HETATM    7  C   UNL     1     -11.628  14.878  67.973  1.00  0.00    -0.363 C  
HETATM    8  C   UNL     1     -11.132  14.161  66.947  1.00  0.00    -0.312 C  
HETATM    9  C   UNL     1     -11.885  13.083  66.204  1.00  0.00    -0.466 C  
HETATM   10  C   UNL     1     -12.065  13.565  64.749  1.00  0.00    -0.442 C  
HETATM   11  C   UNL     1     -11.232  11.656  66.302  1.00  0.00    -0.332 C  
HETATM   12  C   UNL     1      -9.851  11.639  65.623  1.00  0.00    -0.270 C  
HETATM   13  C   UNL     1      -8.802  11.601  66.713  1.00  0.00    -0.184 C  
HETATM   14  C   UNL     1      -9.519  11.497  68.066  1.00  0.00    -0.181 C  
HETATM   15  C   UNL     1      -8.682  10.672  69.038  1.00  0.00    -0.152 C  
HETATM   16  C   UNL     1      -9.427   9.638  69.839  1.00  0.00    -0.260 C  
HETATM   17  C   UNL     1      -7.355  10.909  69.167  1.00  0.00    -0.126 C  
HETATM   18  C   UNL     1     -10.466   8.841  69.036  1.00  0.00    -0.220 C  
HETATM   19  C   UNL     1     -12.034  11.445  68.784  1.00  0.00    -0.353 C  
HETATM   20  C   UNL     1     -10.970  11.028  67.740  1.00  0.00    -0.323 C  
HETATM   21  C   UNL     1     -10.972   9.475  67.726  1.00  0.00    -0.165 C  
BRANCH  17  22
HETATM   22  C   UNL     1      -6.549  10.495  70.294  1.00  0.00    -0.138 C  
HETATM   23  C   UNL     1      -6.184   9.268  70.711  1.00  0.00    -0.066 C  
HETATM   24  C   UNL     1      -5.150   9.180  71.825  1.00  0.00    -0.047 C  
HETATM   25  C   UNL     1      -5.633   8.333  72.999  1.00  0.00    -0.055 C  
HETATM   26  C   UNL     1      -6.059   6.945  72.522  1.00  0.00    -0.042 C  
HETATM   27  O   UNL     1      -6.701   8.972  73.689  1.00  0.00    -0.337 OA 
HETATM   28  C   UNL     1      -7.115   7.034  71.417  1.00  0.00    -0.070 C  
HETATM   29  H   UNL     1      -7.001   8.445  74.420  1.00  0.00     0.000 HD 
HETATM   30  O   UNL     1      -7.379   5.705  70.957  1.00  0.00    -0.079 OA 
HETATM   31  C   UNL     1      -6.679   7.955  70.273  1.00  0.00    -0.038 C  
HETATM   32  C   UNL     1      -6.680   7.568  68.986  1.00  0.00    -0.049 C  
HETATM   33  H   UNL     1      -8.034   5.760  70.271  1.00  0.00     0.000 HD 
ENDBRANCH  17  22
ENDBRANCH   2   7
TORSDOF 3
ENDMDL
MODEL       56
REMARK 921   NORMALIZED FREE ENERGY PREDICTED BY IDOCK:   -5.42 KCAL/MOL
REMARK 922        TOTAL FREE ENERGY PREDICTED BY IDOCK:   -7.65 KCAL/MOL
REMARK 923 INTER-LIGAND FREE ENERGY PREDICTED BY IDOCK:   -6.02 KCAL/MOL
REMARK 924 INTRA-LIGAND FREE ENERGY PREDICTED BY IDOCK:   -1.64 KCAL/MOL
REMARK 927      BINDING AFFINITY PREDICTED BY RF-SCORE:    0.00 PKD
ROOT
HETATM    1  O   UNL     1     -12.844  10.840  69.072  1.00  0.00    -0.549 OA 
HETATM    2  C   UNL     1     -11.907  10.986  68.009  1.00  0.00    -0.072 C  
HETATM    3  H   UNL     1     -13.502  11.517  68.965  1.00  0.00     0.000 HD 
ENDROOT
BRANCH   2   4
HETATM    4  C   UNL     1     -11.410  12.411  68.013  1.00  0.00    -0.340 C  
HETATM    5  C   UNL     1     -12.064  13.465  67.155  1.00  0.00    -0.367 C  
HETATM    6  C   UNL     1     -10.694  12.960  66.803  1.00  0.00    -0.276 C  
ENDBRANCH   2   4
BRANCH   2   7
HETATM    7  C   UNL     1     -10.872   9.920  68.177  1.00  0.00    -0.282 C  
HETATM    8  C   UNL     1      -9.857   9.656  67.335  1.00  0.00    -0.218 C  
HETATM    9  C   UNL     1      -8.807   8.593  67.554  1.00  0.00    -0.139 C  
HETATM   10  C   UNL     1      -8.969   7.546  66.431  1.00  0.00    -0.196 C  
HETATM   11  C   UNL     1      -7.340   9.148  67.669  1.00  0.00    -0.087 C  
HETATM   12  C   UNL     1      -6.897   9.799  66.346  1.00  0.00    -0.088 C  
HETATM   13  C   UNL     1      -6.903  11.299  66.546  1.00  0.00    -0.101 C  
HETATM   14  C   UNL     1      -7.256  11.586  68.011  1.00  0.00    -0.085 C  
HETATM   15  C   UNL     1      -6.526  12.839  68.487  1.00  0.00    -0.082 C  
HETATM   16  C   UNL     1      -5.871  12.749  69.839  1.00  0.00    -0.134 C  
HETATM   17  C   UNL     1      -6.520  13.957  67.722  1.00  0.00    -0.178 C  
HETATM   18  C   UNL     1      -5.131  11.429  70.099  1.00  0.00    -0.075 C  
HETATM   19  C   UNL     1      -7.865  10.077  70.059  1.00  0.00    -0.172 C  
HETATM   20  C   UNL     1      -7.019  10.247  68.774  1.00  0.00    -0.067 C  
HETATM   21  C   UNL     1      -5.536  10.220  69.233  1.00  0.00    -0.038 C  
BRANCH  17  22
HETATM   22  C   UNL     1      -6.226  15.287  68.207  1.00  0.00    -0.123 C  
HETATM   23  C   UNL     1      -7.040  16.256  68.668  1.00  0.00    -0.155 C  
HETATM   24  C   UNL     1      -6.393  17.478  69.303  1.00  0.00    -0.244 C  
HETATM   25  C   UNL     1      -6.865  18.782  68.664  1.00  0.00    -0.272 C  
HETATM   26  C   UNL     1      -8.390  18.876  68.697  1.00  0.00    -0.384 C  
HETATM   27  O   UNL     1      -6.388  18.902  67.329  1.00  0.00    -0.186 OA 
HETATM   28  C   UNL     1      -9.040  17.656  68.039  1.00  0.00    -0.267 C  
HETATM   29  H   UNL     1      -6.681  19.714  66.931  1.00  0.00     0.000 HD 
HETATM   30  O   UNL     1     -10.457  17.772  68.206  1.00  0.00    -0.369 OA 
HETATM   31  C   UNL     1      -8.507  16.338  68.610  1.00  0.00    -0.221 C  
HETATM   32  C   UNL     1      -9.312  15.372  69.085  1.00  0.00    -0.246 C  
HETATM   33  H   UNL     1     -10.860  17.015  67.798  1.00  0.00     0.000 HD 
ENDBRANCH  17  22
ENDBRANCH   2   7
TORSDOF 3
ENDMDL
MODEL       57
REMARK 921   NORMALIZED FREE ENERGY PREDICTED BY IDOCK:   -5.41 KCAL/MOL
REMARK 922        TOTAL FREE ENERGY PREDICTED BY IDOCK:   -7.64 KCAL/MOL
REMARK 923 INTER-LIGAND FREE ENERGY PREDICTED BY IDOCK:   -6.75 KCAL/MOL
REMARK 924 INTRA-LIGAND FREE ENERGY PREDICTED BY IDOCK:   -0.89 KCAL/MOL
REMARK 927      BINDING AFFINITY PREDICTED BY RF-SCORE:    0.00 PKD
ROOT
HETATM    1  O   UNL     1     -11.068  10.978  62.905  1.00  0.00    -0.775 OA 
HETATM    2  C   UNL     1      -9.911  11.686  63.342  1.00  0.00    -0.404 C  
HETATM    3  H   UNL     1     -11.747  11.622  62.740  1.00  0.00     0.000 HD 
ENDROOT
BRANCH   2   4
HETATM    4  C   UNL     1     -10.305  12.560  64.506  1.00  0.00    -0.362 C  
HETATM    5  C   UNL     1     -11.720  12.569  65.027  1.00  0.00    -0.407 C  
HETATM    6  C   UNL     1     -11.194  13.759  64.277  1.00  0.00    -0.321 C  
ENDBRANCH   2   4
BRANCH   2   7
HETATM    7  C   UNL     1      -8.842  10.673  63.603  1.00  0.00    -0.183 C  
HETATM    8  C   UNL     1      -7.837  10.787  64.490  1.00  0.00     0.219 C  
HETATM    9  C   UNL     1      -6.793   9.728  64.753  1.00  0.00    -0.122 C  
HETATM   10  C   UNL     1      -5.428  10.308  64.325  1.00  0.00    -0.131 C  
HETATM   11  C   UNL     1      -6.791   9.176  66.226  1.00  0.00    -0.082 C  
HETATM   12  C   UNL     1      -6.412  10.285  67.224  1.00  0.00    -0.067 C  
HETATM   13  C   UNL     1      -7.672  10.696  67.955  1.00  0.00    -0.100 C  
HETATM   14  C   UNL     1      -8.816   9.787  67.488  1.00  0.00    -0.129 C  
HETATM   15  C   UNL     1      -9.792   9.547  68.636  1.00  0.00    -0.173 C  
HETATM   16  C   UNL     1     -10.249   8.126  68.829  1.00  0.00    -0.221 C  
HETATM   17  C   UNL     1     -10.224  10.584  69.393  1.00  0.00    -0.245 C  
HETATM   18  C   UNL     1      -9.135   7.078  68.693  1.00  0.00    -0.132 C  
HETATM   19  C   UNL     1      -8.992   7.845  65.745  1.00  0.00    -0.125 C  
HETATM   20  C   UNL     1      -8.132   8.557  66.816  1.00  0.00    -0.098 C  
HETATM   21  C   UNL     1      -7.869   7.500  67.924  1.00  0.00    -0.117 C  
BRANCH  17  22
HETATM   22  C   UNL     1     -11.410  10.564  70.219  1.00  0.00    -0.407 C  
HETATM   23  C   UNL     1     -11.687   9.877  71.344  1.00  0.00    -0.449 C  
HETATM   24  C   UNL     1     -12.959  10.238  72.096  1.00  0.00    -0.410 C  
HETATM   25  C   UNL     1     -13.854   9.024  72.338  1.00  0.00    -0.475 C  
HETATM   26  C   UNL     1     -13.078   7.918  73.051  1.00  0.00     0.922 C  
HETATM   27  O   UNL     1     -14.404   8.540  71.118  1.00  0.00    -0.626 OA 
HETATM   28  C   UNL     1     -11.809   7.541  72.283  1.00  0.00    -0.289 C  
HETATM   29  H   UNL     1     -14.961   7.785  71.269  1.00  0.00     0.000 HD 
HETATM   30  O   UNL     1     -11.092   6.581  73.067  1.00  0.00    -0.335 OA 
HETATM   31  C   UNL     1     -10.946   8.763  71.955  1.00  0.00    -0.438 C  
HETATM   32  C   UNL     1      -9.641   8.838  72.267  1.00  0.00    -0.270 C  
HETATM   33  H   UNL     1     -10.305   6.347  72.590  1.00  0.00     0.000 HD 
ENDBRANCH  17  22
ENDBRANCH   2   7
TORSDOF 3
ENDMDL
MODEL       58
REMARK 921   NORMALIZED FREE ENERGY PREDICTED BY IDOCK:   -5.39 KCAL/MOL
REMARK 922        TOTAL FREE ENERGY PREDICTED BY IDOCK:   -7.62 KCAL/MOL
REMARK 923 INTER-LIGAND FREE ENERGY PREDICTED BY IDOCK:   -6.83 KCAL/MOL
REMARK 924 INTRA-LIGAND FREE ENERGY PREDICTED BY IDOCK:   -0.78 KCAL/MOL
REMARK 927      BINDING AFFINITY PREDICTED BY RF-SCORE:    0.00 PKD
ROOT
HETATM    1  O   UNL     1      -8.227  11.192  64.400  1.00  0.00    -0.340 OA 
HETATM    2  C   UNL     1      -9.183  10.240  63.941  1.00  0.00    -0.274 C  
HETATM    3  H   UNL     1      -7.955  11.706  63.649  1.00  0.00     0.000 HD 
ENDROOT
BRANCH   2   4
HETATM    4  C   UNL     1      -8.572   9.478  62.791  1.00  0.00    -0.215 C  
HETATM    5  C   UNL     1      -8.000   8.096  62.990  1.00  0.00    -0.154 C  
HETATM    6  C   UNL     1      -7.080   9.258  62.744  1.00  0.00    -0.097 C  
ENDBRANCH   2   4
BRANCH   2   7
HETATM    7  C   UNL     1      -9.609   9.431  65.123  1.00  0.00    -0.195 C  
HETATM    8  C   UNL     1      -8.927   9.281  66.273  1.00  0.00    -0.193 C  
HETATM    9  C   UNL     1      -9.405   8.483  67.463  1.00  0.00    -0.169 C  
HETATM   10  C   UNL     1      -8.428   7.302  67.649  1.00  0.00    -0.116 C  
HETATM   11  C   UNL     1      -9.599   9.331  68.773  1.00  0.00    -0.157 C  
HETATM   12  C   UNL     1      -8.254   9.900  69.260  1.00  0.00    -0.138 C  
HETATM   13  C   UNL     1      -8.241  11.381  68.949  1.00  0.00    -0.054 C  
HETATM   14  C   UNL     1      -9.605  11.760  68.357  1.00  0.00    -0.191 C  
HETATM   15  C   UNL     1      -9.976  13.180  68.771  1.00  0.00    -0.038 C  
HETATM   16  C   UNL     1     -11.390  13.381  69.246  1.00  0.00    -0.314 C  
HETATM   17  C   UNL     1      -9.068  14.180  68.672  1.00  0.00    -0.138 C  
HETATM   18  C   UNL     1     -11.911  12.276  70.176  1.00  0.00    -0.377 C  
HETATM   19  C   UNL     1     -11.764  10.406  67.771  1.00  0.00     0.444 C  
HETATM   20  C   UNL     1     -10.568  10.593  68.734  1.00  0.00    -0.234 C  
HETATM   21  C   UNL     1     -11.184  10.919  70.122  1.00  0.00    -0.317 C  
BRANCH  17  22
HETATM   22  C   UNL     1      -9.392  15.589  68.647  1.00  0.00    -0.201 C  
HETATM   23  C   UNL     1     -10.122  16.309  67.774  1.00  0.00    -0.252 C  
HETATM   24  C   UNL     1     -10.450  17.748  68.146  1.00  0.00    -0.382 C  
HETATM   25  C   UNL     1     -10.030  18.737  67.061  1.00  0.00    -0.341 C  
HETATM   26  C   UNL     1     -10.646  18.354  65.716  1.00  0.00    -0.236 C  
HETATM   27  O   UNL     1      -8.613  18.815  66.957  1.00  0.00    -0.270 OA 
HETATM   28  C   UNL     1     -10.298  16.913  65.333  1.00  0.00    -0.104 C  
HETATM   29  H   UNL     1      -8.352  19.431  66.282  1.00  0.00     0.000 HD 
HETATM   30  O   UNL     1     -10.995  16.603  64.122  1.00  0.00    -1.149 OA 
HETATM   31  C   UNL     1     -10.631  15.920  66.450  1.00  0.00    -0.298 C  
HETATM   32  C   UNL     1     -11.386  14.827  66.251  1.00  0.00    -0.334 C  
HETATM   33  H   UNL     1     -10.779  15.709  63.884  1.00  0.00     0.000 HD 
ENDBRANCH  17  22
ENDBRANCH   2   7
TORSDOF 3
ENDMDL
MODEL       59
REMARK 921   NORMALIZED FREE ENERGY PREDICTED BY IDOCK:   -5.39 KCAL/MOL
REMARK 922        TOTAL FREE ENERGY PREDICTED BY IDOCK:   -7.61 KCAL/MOL
REMARK 923 INTER-LIGAND FREE ENERGY PREDICTED BY IDOCK:   -6.27 KCAL/MOL
REMARK 924 INTRA-LIGAND FREE ENERGY PREDICTED BY IDOCK:   -1.34 KCAL/MOL
REMARK 927      BINDING AFFINITY PREDICTED BY RF-SCORE:    0.00 PKD
ROOT
HETATM    1  O   UNL     1     -11.032  11.018  62.969  1.00  0.00    -0.798 OA 
HETATM    2  C   UNL     1      -9.952  11.405  63.814  1.00  0.00    -0.341 C  
HETATM    3  H   UNL     1     -11.768  11.583  63.174  1.00  0.00     0.000 HD 
ENDROOT
BRANCH   2   4
HETATM    4  C   UNL     1     -10.439  11.382  65.241  1.00  0.00    -0.340 C  
HETATM    5  C   UNL     1     -11.572  12.270  65.691  1.00  0.00    -0.433 C  
HETATM    6  C   UNL     1     -10.169  12.559  66.147  1.00  0.00    -0.269 C  
ENDBRANCH   2   4
BRANCH   2   7
HETATM    7  C   UNL     1      -8.794  10.516  63.491  1.00  0.00    -0.208 C  
HETATM    8  C   UNL     1      -7.644  10.425  64.183  1.00  0.00    -0.017 C  
HETATM    9  C   UNL     1      -6.507   9.489  63.848  1.00  0.00    -0.100 C  
HETATM   10  C   UNL     1      -5.289  10.359  63.468  1.00  0.00    -0.154 C  
HETATM   11  C   UNL     1      -6.183   8.439  64.973  1.00  0.00    -0.052 C  
HETATM   12  C   UNL     1      -5.684   9.141  66.249  1.00  0.00    -0.053 C  
HETATM   13  C   UNL     1      -6.800   9.085  67.271  1.00  0.00    -0.077 C  
HETATM   14  C   UNL     1      -7.956   8.272  66.676  1.00  0.00    -0.098 C  
HETATM   15  C   UNL     1      -8.673   7.501  67.780  1.00  0.00    -0.123 C  
HETATM   16  C   UNL     1      -8.996   6.062  67.478  1.00  0.00    -0.111 C  
HETATM   17  C   UNL     1      -9.010   8.120  68.936  1.00  0.00    -0.141 C  
HETATM   18  C   UNL     1      -7.870   5.292  66.775  1.00  0.00    -0.100 C  
HETATM   19  C   UNL     1      -8.352   7.104  64.369  1.00  0.00     0.109 C  
HETATM   20  C   UNL     1      -7.344   7.477  65.482  1.00  0.00    -0.071 C  
HETATM   21  C   UNL     1      -6.806   6.130  66.039  1.00  0.00    -0.057 C  
BRANCH  17  22
HETATM   22  C   UNL     1     -10.008   7.642  69.867  1.00  0.00    -0.190 C  
HETATM   23  C   UNL     1     -11.160   8.201  70.286  1.00  0.00    -0.221 C  
HETATM   24  C   UNL     1     -12.098   7.341  71.121  1.00  0.00    -0.376 C  
HETATM   25  C   UNL     1     -12.470   8.005  72.444  1.00  0.00    -0.212 C  
HETATM   26  C   UNL     1     -13.053   9.397  72.203  1.00  0.00    -0.526 C  
HETATM   27  O   UNL     1     -11.347   8.081  73.314  1.00  0.00    -0.436 OA 
HETATM   28  C   UNL     1     -12.100  10.268  71.381  1.00  0.00    -0.362 C  
HETATM   29  H   UNL     1     -11.578   8.494  74.138  1.00  0.00     0.000 HD 
HETATM   30  O   UNL     1     -12.762  11.508  71.112  1.00  0.00    -0.393 OA 
HETATM   31  C   UNL     1     -11.648   9.574  70.092  1.00  0.00    -0.156 C  
HETATM   32  C   UNL     1     -11.757  10.146  68.881  1.00  0.00     0.036 C  
HETATM   33  H   UNL     1     -12.170  12.048  70.602  1.00  0.00     0.000 HD 
ENDBRANCH  17  22
ENDBRANCH   2   7
TORSDOF 3
ENDMDL
MODEL       60
REMARK 921   NORMALIZED FREE ENERGY PREDICTED BY IDOCK:   -5.38 KCAL/MOL
REMARK 922        TOTAL FREE ENERGY PREDICTED BY IDOCK:   -7.60 KCAL/MOL
REMARK 923 INTER-LIGAND FREE ENERGY PREDICTED BY IDOCK:   -6.08 KCAL/MOL
REMARK 924 INTRA-LIGAND FREE ENERGY PREDICTED BY IDOCK:   -1.52 KCAL/MOL
REMARK 927      BINDING AFFINITY PREDICTED BY RF-SCORE:    0.00 PKD
ROOT
HETATM    1  O   UNL     1     -12.054  14.243  63.635  1.00  0.00    -0.859 OA 
HETATM    2  C   UNL     1     -11.885  13.062  64.413  1.00  0.00    -0.386 C  
HETATM    3  H   UNL     1     -12.532  13.999  62.850  1.00  0.00     0.000 HD 
ENDROOT
BRANCH   2   4
HETATM    4  C   UNL     1     -11.248  12.010  63.539  1.00  0.00    -0.526 C  
HETATM    5  C   UNL     1     -10.428  10.894  64.137  1.00  0.00    -0.397 C  
HETATM    6  C   UNL     1      -9.749  11.987  63.363  1.00  0.00    -0.211 C  
ENDBRANCH   2   4
BRANCH   2   7
HETATM    7  C   UNL     1     -11.133  13.446  65.647  1.00  0.00    -0.298 C  
HETATM    8  C   UNL     1     -11.348  12.975  66.889  1.00  0.00    -0.352 C  
HETATM    9  C   UNL     1     -10.544  13.359  68.109  1.00  0.00    -0.255 C  
HETATM   10  C   UNL     1     -11.497  14.096  69.076  1.00  0.00    -0.322 C  
HETATM   11  C   UNL     1      -9.788  12.159  68.788  1.00  0.00    -0.034 C  
HETATM   12  C   UNL     1     -10.787  11.130  69.347  1.00  0.00    -0.264 C  
HETATM   13  C   UNL     1     -10.763   9.923  68.433  1.00  0.00    -0.271 C  
HETATM   14  C   UNL     1      -9.688  10.152  67.363  1.00  0.00    -0.192 C  
HETATM   15  C   UNL     1      -9.044   8.823  66.978  1.00  0.00    -0.160 C  
HETATM   16  C   UNL     1      -7.542   8.823  66.876  1.00  0.00    -0.090 C  
HETATM   17  C   UNL     1      -9.815   7.741  66.721  1.00  0.00    -0.312 C  
HETATM   18  C   UNL     1      -6.828   9.590  67.998  1.00  0.00    -0.074 C  
HETATM   19  C   UNL     1      -8.056  12.125  66.827  1.00  0.00    -0.055 C  
HETATM   20  C   UNL     1      -8.779  11.294  67.914  1.00  0.00    -0.138 C  
HETATM   21  C   UNL     1      -7.659  10.637  68.765  1.00  0.00    -0.109 C  
BRANCH  17  22
HETATM   22  C   UNL     1      -9.381   6.576  65.983  1.00  0.00    -0.039 C  
HETATM   23  C   UNL     1      -8.847   5.414  66.408  1.00  0.00    -0.123 C  
HETATM   24  C   UNL     1      -8.689   4.296  65.388  1.00  0.00    -0.123 C  
HETATM   25  C   UNL     1      -7.259   3.765  65.327  1.00  0.00    -0.067 C  
HETATM   26  C   UNL     1      -6.788   3.327  66.713  1.00  0.00    -0.053 C  
HETATM   27  O   UNL     1      -6.372   4.737  64.784  1.00  0.00    -0.032 OA 
HETATM   28  C   UNL     1      -6.928   4.459  67.734  1.00  0.00    -0.056 C  
HETATM   29  H   UNL     1      -5.482   4.406  64.746  1.00  0.00     0.000 HD 
HETATM   30  O   UNL     1      -6.569   3.937  69.018  1.00  0.00    -0.039 OA 
HETATM   31  C   UNL     1      -8.336   5.061  67.741  1.00  0.00    -0.105 C  
HETATM   32  C   UNL     1      -9.069   5.188  68.860  1.00  0.00    -0.135 C  
HETATM   33  H   UNL     1      -6.655   4.639  69.651  1.00  0.00     0.000 HD 
ENDBRANCH  17  22
ENDBRANCH   2   7
TORSDOF 3
ENDMDL
MODEL       61
REMARK 921   NORMALIZED FREE ENERGY PREDICTED BY IDOCK:   -5.36 KCAL/MOL
REMARK 922        TOTAL FREE ENERGY PREDICTED BY IDOCK:   -7.58 KCAL/MOL
REMARK 923 INTER-LIGAND FREE ENERGY PREDICTED BY IDOCK:   -6.47 KCAL/MOL
REMARK 924 INTRA-LIGAND FREE ENERGY PREDICTED BY IDOCK:   -1.11 KCAL/MOL
REMARK 927      BINDING AFFINITY PREDICTED BY RF-SCORE:    0.00 PKD
ROOT
HETATM    1  O   UNL     1      -9.582   8.102  72.129  1.00  0.00    -0.195 OA 
HETATM    2  C   UNL     1      -9.742   6.812  71.546  1.00  0.00    -0.163 C  
HETATM    3  H   UNL     1     -10.200   8.167  72.848  1.00  0.00     0.000 HD 
ENDROOT
BRANCH   2   4
HETATM    4  C   UNL     1     -11.199   6.631  71.197  1.00  0.00    -0.340 C  
HETATM    5  C   UNL     1     -12.112   7.820  71.029  1.00  0.00    -0.264 C  
HETATM    6  C   UNL     1     -12.260   6.927  72.228  1.00  0.00    -0.173 C  
ENDBRANCH   2   4
BRANCH   2   7
HETATM    7  C   UNL     1      -8.770   6.711  70.414  1.00  0.00    -0.151 C  
HETATM    8  C   UNL     1      -9.070   6.722  69.103  1.00  0.00    -0.138 C  
HETATM    9  C   UNL     1      -8.058   6.654  67.985  1.00  0.00    -0.110 C  
HETATM   10  C   UNL     1      -8.301   5.333  67.222  1.00  0.00    -0.107 C  
HETATM   11  C   UNL     1      -8.049   7.913  67.044  1.00  0.00    -0.116 C  
HETATM   12  C   UNL     1      -9.385   8.040  66.288  1.00  0.00    -0.246 C  
HETATM   13  C   UNL     1     -10.158   9.183  66.911  1.00  0.00    -0.328 C  
HETATM   14  C   UNL     1      -9.276   9.830  67.987  1.00  0.00    -0.131 C  
HETATM   15  C   UNL     1      -9.555  11.329  68.056  1.00  0.00    -0.182 C  
HETATM   16  C   UNL     1      -8.346  12.223  68.130  1.00  0.00    -0.174 C  
HETATM   17  C   UNL     1     -10.830  11.785  68.081  1.00  0.00    -0.258 C  
HETATM   18  C   UNL     1      -7.199  11.818  67.193  1.00  0.00    -0.147 C  
HETATM   19  C   UNL     1      -6.886   9.321  68.918  1.00  0.00    -0.056 C  
HETATM   20  C   UNL     1      -7.823   9.351  67.687  1.00  0.00    -0.095 C  
HETATM   21  C   UNL     1      -7.189  10.361  66.691  1.00  0.00    -0.113 C  
BRANCH  17  22
HETATM   22  C   UNL     1     -11.226  13.100  68.534  1.00  0.00    -0.307 C  
HETATM   23  C   UNL     1     -11.144  14.301  67.930  1.00  0.00    -0.293 C  
HETATM   24  C   UNL     1     -11.846  15.475  68.596  1.00  0.00    -0.318 C  
HETATM   25  C   UNL     1     -10.906  16.656  68.830  1.00  0.00    -0.331 C  
HETATM   26  C   UNL     1     -10.234  17.075  67.523  1.00  0.00    -0.323 C  
HETATM   27  O   UNL     1      -9.928  16.346  69.816  1.00  0.00    -0.155 OA 
HETATM   28  C   UNL     1      -9.511  15.897  66.864  1.00  0.00    -0.227 C  
HETATM   29  H   UNL     1      -9.343  17.081  69.962  1.00  0.00     0.000 HD 
HETATM   30  O   UNL     1      -9.003  16.347  65.604  1.00  0.00    -0.427 OA 
HETATM   31  C   UNL     1     -10.419  14.675  66.707  1.00  0.00    -0.277 C  
HETATM   32  C   UNL     1     -10.595  14.044  65.533  1.00  0.00    -0.327 C  
HETATM   33  H   UNL     1      -8.553  15.616  65.195  1.00  0.00     0.000 HD 
ENDBRANCH  17  22
ENDBRANCH   2   7
TORSDOF 3
ENDMDL
MODEL       62
REMARK 921   NORMALIZED FREE ENERGY PREDICTED BY IDOCK:   -5.28 KCAL/MOL
REMARK 922        TOTAL FREE ENERGY PREDICTED BY IDOCK:   -7.49 KCAL/MOL
REMARK 923 INTER-LIGAND FREE ENERGY PREDICTED BY IDOCK:   -6.21 KCAL/MOL
REMARK 924 INTRA-LIGAND FREE ENERGY PREDICTED BY IDOCK:   -1.27 KCAL/MOL
REMARK 927      BINDING AFFINITY PREDICTED BY RF-SCORE:    0.00 PKD
ROOT
HETATM    1  O   UNL     1     -11.914   5.641  72.514  1.00  0.00    -0.392 OA 
HETATM    2  C   UNL     1     -11.888   6.607  71.466  1.00  0.00    -0.337 C  
HETATM    3  H   UNL     1     -12.573   5.919  73.139  1.00  0.00     0.000 HD 
ENDROOT
BRANCH   2   4
HETATM    4  C   UNL     1     -11.693   7.968  72.086  1.00  0.00    -0.399 C  
HETATM    5  C   UNL     1     -10.844   9.015  71.410  1.00  0.00    -0.400 C  
HETATM    6  C   UNL     1     -10.349   8.345  72.661  1.00  0.00    -0.314 C  
ENDBRANCH   2   4
BRANCH   2   7
HETATM    7  C   UNL     1     -10.851   6.168  70.482  1.00  0.00    -0.364 C  
HETATM    8  C   UNL     1     -10.910   6.313  69.146  1.00  0.00    -0.403 C  
HETATM    9  C   UNL     1      -9.827   5.890  68.183  1.00  0.00    -0.155 C  
HETATM   10  C   UNL     1     -10.410   4.769  67.296  1.00  0.00    -0.109 C  
HETATM   11  C   UNL     1      -9.205   7.071  67.351  1.00  0.00    -0.134 C  
HETATM   12  C   UNL     1     -10.261   7.700  66.423  1.00  0.00    -0.036 C  
HETATM   13  C   UNL     1     -10.652   9.038  67.013  1.00  0.00    -0.270 C  
HETATM   14  C   UNL     1      -9.781   9.291  68.250  1.00  0.00    -0.167 C  
HETATM   15  C   UNL     1      -9.498  10.784  68.391  1.00  0.00    -0.174 C  
HETATM   16  C   UNL     1      -8.075  11.160  68.706  1.00  0.00    -0.140 C  
HETATM   17  C   UNL     1     -10.503  11.683  68.267  1.00  0.00    -0.223 C  
HETATM   18  C   UNL     1      -7.021  10.372  67.915  1.00  0.00    -0.082 C  
HETATM   19  C   UNL     1      -7.926   7.911  69.474  1.00  0.00    -0.116 C  
HETATM   20  C   UNL     1      -8.576   8.309  68.127  1.00  0.00    -0.132 C  
HETATM   21  C   UNL     1      -7.464   9.025  67.312  1.00  0.00    -0.084 C  
BRANCH  17  22
HETATM   22  C   UNL     1     -10.458  13.043  68.757  1.00  0.00    -0.186 C  
HETATM   23  C   UNL     1     -11.067  13.619  69.812  1.00  0.00     0.006 C  
HETATM   24  C   UNL     1     -10.646  15.033  70.183  1.00  0.00    -0.155 C  
HETATM   25  C   UNL     1     -11.833  15.991  70.259  1.00  0.00    -0.254 C  
HETATM   26  C   UNL     1     -12.896  15.455  71.216  1.00  0.00    -0.519 C  
HETATM   27  O   UNL     1     -12.393  16.218  68.970  1.00  0.00    -0.194 OA 
HETATM   28  C   UNL     1     -13.334  14.039  70.830  1.00  0.00    -0.027 C  
HETATM   29  H   UNL     1     -13.131  16.814  69.017  1.00  0.00     0.000 HD 
HETATM   30  O   UNL     1     -14.246  13.575  71.831  1.00  0.00    -0.290 OA 
HETATM   31  C   UNL     1     -12.143  13.091  70.662  1.00  0.00    -0.333 C  
HETATM   32  C   UNL     1     -12.059  11.909  71.297  1.00  0.00     0.167 C  
HETATM   33  H   UNL     1     -14.518  12.697  71.591  1.00  0.00     0.000 HD 
ENDBRANCH  17  22
ENDBRANCH   2   7
TORSDOF 3
ENDMDL
MODEL       63
REMARK 921   NORMALIZED FREE ENERGY PREDICTED BY IDOCK:   -5.28 KCAL/MOL
REMARK 922        TOTAL FREE ENERGY PREDICTED BY IDOCK:   -7.49 KCAL/MOL
REMARK 923 INTER-LIGAND FREE ENERGY PREDICTED BY IDOCK:   -6.74 KCAL/MOL
REMARK 924 INTRA-LIGAND FREE ENERGY PREDICTED BY IDOCK:   -0.75 KCAL/MOL
REMARK 927      BINDING AFFINITY PREDICTED BY RF-SCORE:    0.00 PKD
ROOT
HETATM    1  O   UNL     1      -8.858   5.859  67.471  1.00  0.00    -0.109 OA 
HETATM    2  C   UNL     1      -8.560   4.547  67.942  1.00  0.00    -0.102 C  
HETATM    3  H   UNL     1      -8.725   5.859  66.530  1.00  0.00     0.000 HD 
ENDROOT
BRANCH   2   4
HETATM    4  C   UNL     1      -7.179   4.177  67.459  1.00  0.00    -0.068 C  
HETATM    5  C   UNL     1      -6.983   3.121  66.400  1.00  0.00    -0.054 C  
HETATM    6  C   UNL     1      -6.592   2.835  67.822  1.00  0.00    -0.036 C  
ENDBRANCH   2   4
BRANCH   2   7
HETATM    7  C   UNL     1      -8.769   4.548  69.423  1.00  0.00    -0.117 C  
HETATM    8  C   UNL     1      -8.199   5.387  70.307  1.00  0.00    -0.101 C  
HETATM    9  C   UNL     1      -8.460   5.381  71.794  1.00  0.00    -0.127 C  
HETATM   10  C   UNL     1      -7.137   5.005  72.494  1.00  0.00    -0.082 C  
HETATM   11  C   UNL     1      -9.088   6.714  72.344  1.00  0.00    -0.139 C  
HETATM   12  C   UNL     1      -8.110   7.890  72.172  1.00  0.00    -0.154 C  
HETATM   13  C   UNL     1      -8.621   8.752  71.038  1.00  0.00    -0.236 C  
HETATM   14  C   UNL     1      -9.961   8.176  70.562  1.00  0.00    -0.195 C  
HETATM   15  C   UNL     1     -10.876   9.303  70.094  1.00  0.00    -0.275 C  
HETATM   16  C   UNL     1     -12.303   9.235  70.570  1.00  0.00     0.073 C  
HETATM   17  C   UNL     1     -10.403  10.270  69.273  1.00  0.00    -0.250 C  
HETATM   18  C   UNL     1     -12.463   8.838  72.044  1.00  0.00    -0.452 C  
HETATM   19  C   UNL     1     -11.387   6.095  71.256  1.00  0.00    -0.335 C  
HETATM   20  C   UNL     1     -10.450   7.240  71.710  1.00  0.00    -0.218 C  
HETATM   21  C   UNL     1     -11.279   8.102  72.701  1.00  0.00    -0.447 C  
BRANCH  17  22
HETATM   22  C   UNL     1     -11.226  11.137  68.460  1.00  0.00    -0.318 C  
HETATM   23  C   UNL     1     -10.892  12.033  67.512  1.00  0.00    -0.284 C  
HETATM   24  C   UNL     1     -12.017  12.641  66.687  1.00  0.00    -0.382 C  
HETATM   25  C   UNL     1     -11.992  14.168  66.710  1.00  0.00    -0.447 C  
HETATM   26  C   UNL     1     -10.628  14.691  66.264  1.00  0.00    -0.306 C  
HETATM   27  O   UNL     1     -12.319  14.668  68.002  1.00  0.00    -0.604 OA 
HETATM   28  C   UNL     1      -9.498  14.094  67.108  1.00  0.00    -0.236 C  
HETATM   29  H   UNL     1     -12.305  15.618  68.016  1.00  0.00     0.000 HD 
HETATM   30  O   UNL     1      -8.256  14.550  66.560  1.00  0.00    -0.353 OA 
HETATM   31  C   UNL     1      -9.565  12.565  67.167  1.00  0.00    -0.208 C  
HETATM   32  C   UNL     1      -8.520  11.778  66.858  1.00  0.00    -0.174 C  
HETATM   33  H   UNL     1      -7.555  14.180  67.084  1.00  0.00     0.000 HD 
ENDBRANCH  17  22
ENDBRANCH   2   7
TORSDOF 3
ENDMDL
MODEL       64
REMARK 921   NORMALIZED FREE ENERGY PREDICTED BY IDOCK:   -5.23 KCAL/MOL
REMARK 922        TOTAL FREE ENERGY PREDICTED BY IDOCK:   -7.43 KCAL/MOL
REMARK 923 INTER-LIGAND FREE ENERGY PREDICTED BY IDOCK:   -6.01 KCAL/MOL
REMARK 924 INTRA-LIGAND FREE ENERGY PREDICTED BY IDOCK:   -1.42 KCAL/MOL
REMARK 927      BINDING AFFINITY PREDICTED BY RF-SCORE:    0.00 PKD
ROOT
HETATM    1  O   UNL     1     -12.013  12.952  67.998  1.00  0.00    -0.346 OA 
HETATM    2  C   UNL     1     -11.643  11.576  68.003  1.00  0.00    -0.300 C  
HETATM    3  H   UNL     1     -12.149  13.205  67.093  1.00  0.00     0.000 HD 
ENDROOT
BRANCH   2   4
HETATM    4  C   UNL     1     -10.468  11.401  67.072  1.00  0.00    -0.271 C  
HETATM    5  C   UNL     1      -9.518  10.240  67.229  1.00  0.00    -0.174 C  
HETATM    6  C   UNL     1      -9.066  11.629  67.582  1.00  0.00    -0.174 C  
ENDBRANCH   2   4
BRANCH   2   7
HETATM    7  C   UNL     1     -11.427  11.178  69.428  1.00  0.00    -0.368 C  
HETATM    8  C   UNL     1     -12.059  10.186  70.082  1.00  0.00    -0.224 C  
HETATM    9  C   UNL     1     -11.791   9.788  71.514  1.00  0.00    -0.476 C  
HETATM   10  C   UNL     1     -13.077  10.071  72.320  1.00  0.00    -0.385 C  
HETATM   11  C   UNL     1     -11.270   8.314  71.687  1.00  0.00    -0.330 C  
HETATM   12  C   UNL     1     -12.341   7.300  71.245  1.00  0.00    -0.401 C  
HETATM   13  C   UNL     1     -11.907   6.723  69.915  1.00  0.00    -0.208 C  
HETATM   14  C   UNL     1     -10.527   7.298  69.569  1.00  0.00    -0.238 C  
HETATM   15  C   UNL     1      -9.707   6.263  68.805  1.00  0.00    -0.141 C  
HETATM   16  C   UNL     1      -8.278   6.096  69.246  1.00  0.00    -0.116 C  
HETATM   17  C   UNL     1     -10.261   5.579  67.776  1.00  0.00    -0.237 C  
HETATM   18  C   UNL     1      -8.079   6.086  70.768  1.00  0.00    -0.120 C  
HETATM   19  C   UNL     1      -8.935   9.014  70.736  1.00  0.00    -0.286 C  
HETATM   20  C   UNL     1      -9.959   7.866  70.906  1.00  0.00    -0.196 C  
HETATM   21  C   UNL     1      -9.197   6.717  71.621  1.00  0.00    -0.144 C  
BRANCH  17  22
HETATM   22  C   UNL     1      -9.514   4.890  66.747  1.00  0.00    -0.154 C  
HETATM   23  C   UNL     1      -8.832   3.729  66.783  1.00  0.00    -0.132 C  
HETATM   24  C   UNL     1      -8.324   3.168  65.463  1.00  0.00    -0.100 C  
HETATM   25  C   UNL     1      -6.824   2.884  65.493  1.00  0.00    -0.048 C  
HETATM   26  C   UNL     1      -6.473   1.965  66.662  1.00  0.00    -0.024 C  
HETATM   27  O   UNL     1      -6.074   4.091  65.566  1.00  0.00    -0.023 OA 
HETATM   28  C   UNL     1      -6.967   2.540  67.992  1.00  0.00    -0.048 C  
HETATM   29  H   UNL     1      -5.140   3.915  65.584  1.00  0.00     0.000 HD 
HETATM   30  O   UNL     1      -6.694   1.575  69.014  1.00  0.00    -0.029 OA 
HETATM   31  C   UNL     1      -8.451   2.914  67.946  1.00  0.00    -0.103 C  
HETATM   32  C   UNL     1      -9.342   2.472  68.851  1.00  0.00    -0.218 C  
HETATM   33  H   UNL     1      -7.000   1.932  69.839  1.00  0.00     0.000 HD 
ENDBRANCH  17  22
ENDBRANCH   2   7
TORSDOF 3
ENDMDL
MODEL       65
REMARK 921   NORMALIZED FREE ENERGY PREDICTED BY IDOCK:   -5.20 KCAL/MOL
REMARK 922        TOTAL FREE ENERGY PREDICTED BY IDOCK:   -7.39 KCAL/MOL
REMARK 923 INTER-LIGAND FREE ENERGY PREDICTED BY IDOCK:   -6.02 KCAL/MOL
REMARK 924 INTRA-LIGAND FREE ENERGY PREDICTED BY IDOCK:   -1.37 KCAL/MOL
REMARK 927      BINDING AFFINITY PREDICTED BY RF-SCORE:    0.00 PKD
ROOT
HETATM    1  O   UNL     1     -13.047   9.051  73.128  1.00  0.00    -0.753 OA 
HETATM    2  C   UNL     1     -12.264   8.353  72.163  1.00  0.00    -0.374 C  
HETATM    3  H   UNL     1     -13.667   9.590  72.652  1.00  0.00     0.000 HD 
ENDROOT
BRANCH   2   4
HETATM    4  C   UNL     1     -11.680   9.366  71.210  1.00  0.00    -0.432 C  
HETATM    5  C   UNL     1     -12.101  10.813  71.259  1.00  0.00    -0.365 C  
HETATM    6  C   UNL     1     -12.538   9.946  70.113  1.00  0.00     0.135 C  
ENDBRANCH   2   4
BRANCH   2   7
HETATM    7  C   UNL     1     -11.287   7.504  72.913  1.00  0.00    -0.355 C  
HETATM    8  C   UNL     1     -10.978   6.222  72.646  1.00  0.00    -0.285 C  
HETATM    9  C   UNL     1      -9.959   5.405  73.403  1.00  0.00    -0.188 C  
HETATM   10  C   UNL     1     -10.716   4.252  74.098  1.00  0.00    -0.303 C  
HETATM   11  C   UNL     1      -8.752   4.906  72.527  1.00  0.00    -0.121 C  
HETATM   12  C   UNL     1      -9.234   3.929  71.439  1.00  0.00    -0.189 C  
HETATM   13  C   UNL     1      -9.192   4.660  70.114  1.00  0.00    -0.188 C  
HETATM   14  C   UNL     1      -8.598   6.055  70.354  1.00  0.00    -0.133 C  
HETATM   15  C   UNL     1      -7.793   6.495  69.134  1.00  0.00    -0.110 C  
HETATM   16  C   UNL     1      -6.449   7.110  69.417  1.00  0.00    -0.036 C  
HETATM   17  C   UNL     1      -8.307   6.352  67.889  1.00  0.00    -0.118 C  
HETATM   18  C   UNL     1      -5.639   6.393  70.506  1.00  0.00    -0.018 C  
HETATM   19  C   UNL     1      -7.767   7.330  72.481  1.00  0.00    -0.095 C  
HETATM   20  C   UNL     1      -7.882   5.978  71.737  1.00  0.00    -0.102 C  
HETATM   21  C   UNL     1      -6.424   5.502  71.488  1.00  0.00    -0.044 C  
BRANCH  17  22
HETATM   22  C   UNL     1      -7.845   7.066  66.720  1.00  0.00    -0.107 C  
HETATM   23  C   UNL     1      -8.092   8.322  66.301  1.00  0.00    -0.109 C  
HETATM   24  C   UNL     1      -7.280   8.846  65.125  1.00  0.00    -0.087 C  
HETATM   25  C   UNL     1      -8.166   9.375  63.999  1.00  0.00    -0.163 C  
HETATM   26  C   UNL     1      -9.132  10.434  64.527  1.00  0.00    -0.263 C  
HETATM   27  O   UNL     1      -8.881   8.318  63.369  1.00  0.00    -0.378 OA 
HETATM   28  C   UNL     1      -9.963   9.899  65.697  1.00  0.00    -0.283 C  
HETATM   29  H   UNL     1      -9.432   8.647  62.668  1.00  0.00     0.000 HD 
HETATM   30  O   UNL     1     -10.760  10.979  66.196  1.00  0.00    -0.253 OA 
HETATM   31  C   UNL     1      -9.089   9.284  66.794  1.00  0.00    -0.170 C  
HETATM   32  C   UNL     1      -9.178   9.647  68.085  1.00  0.00    -0.130 C  
HETATM   33  H   UNL     1     -11.276  10.647  66.922  1.00  0.00     0.000 HD 
ENDBRANCH  17  22
ENDBRANCH   2   7
TORSDOF 3
ENDMDL
MODEL       66
REMARK 921   NORMALIZED FREE ENERGY PREDICTED BY IDOCK:   -5.18 KCAL/MOL
REMARK 922        TOTAL FREE ENERGY PREDICTED BY IDOCK:   -7.37 KCAL/MOL
REMARK 923 INTER-LIGAND FREE ENERGY PREDICTED BY IDOCK:   -5.68 KCAL/MOL
REMARK 924 INTRA-LIGAND FREE ENERGY PREDICTED BY IDOCK:   -1.69 KCAL/MOL
REMARK 927      BINDING AFFINITY PREDICTED BY RF-SCORE:    0.00 PKD
ROOT
HETATM    1  O   UNL     1      -7.834   6.001  64.339  1.00  0.00    -0.101 OA 
HETATM    2  C   UNL     1      -7.583   7.130  65.172  1.00  0.00    -0.102 C  
HETATM    3  H   UNL     1      -7.348   6.130  63.533  1.00  0.00     0.000 HD 
ENDROOT
BRANCH   2   4
HETATM    4  C   UNL     1      -7.905   8.376  64.385  1.00  0.00    -0.141 C  
HETATM    5  C   UNL     1      -7.596   9.745  64.937  1.00  0.00    -0.128 C  
HETATM    6  C   UNL     1      -9.023   9.283  64.839  1.00  0.00    -0.229 C  
ENDBRANCH   2   4
BRANCH   2   7
HETATM    7  C   UNL     1      -8.350   6.927  66.440  1.00  0.00    -0.125 C  
HETATM    8  C   UNL     1      -7.980   7.336  67.667  1.00  0.00    -0.114 C  
HETATM    9  C   UNL     1      -8.797   7.144  68.923  1.00  0.00    -0.130 C  
HETATM   10  C   UNL     1      -7.997   6.210  69.856  1.00  0.00    -0.114 C  
HETATM   11  C   UNL     1      -9.230   8.485  69.622  1.00  0.00    -0.157 C  
HETATM   12  C   UNL     1      -8.000   9.259  70.128  1.00  0.00    -0.143 C  
HETATM   13  C   UNL     1      -7.788  10.440  69.206  1.00  0.00    -0.147 C  
HETATM   14  C   UNL     1      -8.931  10.463  68.183  1.00  0.00    -0.132 C  
HETATM   15  C   UNL     1      -9.271  11.903  67.813  1.00  0.00    -0.184 C  
HETATM   16  C   UNL     1     -10.736  12.247  67.773  1.00  0.00    -0.246 C  
HETATM   17  C   UNL     1      -8.285  12.782  67.514  1.00  0.00    -0.179 C  
HETATM   18  C   UNL     1     -11.557  11.663  68.932  1.00  0.00    -0.377 C  
HETATM   19  C   UNL     1     -10.991   8.915  67.734  1.00  0.00     0.036 C  
HETATM   20  C   UNL     1     -10.051   9.558  68.782  1.00  0.00    -0.202 C  
HETATM   21  C   UNL     1     -10.955  10.453  69.673  1.00  0.00    -0.325 C  
BRANCH  17  22
HETATM   22  C   UNL     1      -8.474  14.016  66.784  1.00  0.00    -0.019 C  
HETATM   23  C   UNL     1      -8.859  15.236  67.204  1.00  0.00    -0.232 C  
HETATM   24  C   UNL     1      -8.759  16.387  66.214  1.00  0.00    -0.369 C  
HETATM   25  C   UNL     1     -10.082  17.133  66.056  1.00  0.00    -0.288 C  
HETATM   26  C   UNL     1     -10.597  17.608  67.413  1.00  0.00    -0.320 C  
HETATM   27  O   UNL     1     -11.055  16.321  65.410  1.00  0.00    -0.212 OA 
HETATM   28  C   UNL     1     -10.718  16.446  68.403  1.00  0.00    -0.327 C  
HETATM   29  H   UNL     1     -11.879  16.785  65.311  1.00  0.00     0.000 HD 
HETATM   30  O   UNL     1     -11.102  16.989  69.670  1.00  0.00    -0.332 OA 
HETATM   31  C   UNL     1      -9.423  15.634  68.502  1.00  0.00    -0.200 C  
HETATM   32  C   UNL     1      -8.815  15.372  69.673  1.00  0.00    -0.138 C  
HETATM   33  H   UNL     1     -11.177  16.268  70.284  1.00  0.00     0.000 HD 
ENDBRANCH  17  22
ENDBRANCH   2   7
TORSDOF 3
ENDMDL
MODEL       67
REMARK 921   NORMALIZED FREE ENERGY PREDICTED BY IDOCK:   -5.15 KCAL/MOL
REMARK 922        TOTAL FREE ENERGY PREDICTED BY IDOCK:   -7.33 KCAL/MOL
REMARK 923 INTER-LIGAND FREE ENERGY PREDICTED BY IDOCK:   -5.98 KCAL/MOL
REMARK 924 INTRA-LIGAND FREE ENERGY PREDICTED BY IDOCK:   -1.35 KCAL/MOL
REMARK 927      BINDING AFFINITY PREDICTED BY RF-SCORE:    0.00 PKD
ROOT
HETATM    1  O   UNL     1     -11.963  11.993  62.962  1.00  0.00    -0.706 OA 
HETATM    2  C   UNL     1     -10.967  11.254  63.664  1.00  0.00    -0.287 C  
HETATM    3  H   UNL     1     -12.289  11.437  62.264  1.00  0.00     0.000 HD 
ENDROOT
BRANCH   2   4
HETATM    4  C   UNL     1      -9.949  10.768  62.663  1.00  0.00    -0.072 C  
HETATM    5  C   UNL     1      -8.922   9.730  63.039  1.00  0.00    -0.271 C  
HETATM    6  C   UNL     1      -8.498  11.155  62.820  1.00  0.00    -0.107 C  
ENDBRANCH   2   4
BRANCH   2   7
HETATM    7  C   UNL     1     -10.455  12.130  64.763  1.00  0.00    -0.332 C  
HETATM    8  C   UNL     1     -10.913  12.170  66.027  1.00  0.00    -0.332 C  
HETATM    9  C   UNL     1     -10.348  13.043  67.122  1.00  0.00    -0.243 C  
HETATM   10  C   UNL     1     -11.450  14.046  67.528  1.00  0.00    -0.369 C  
HETATM   11  C   UNL     1      -9.762  12.247  68.345  1.00  0.00    -0.191 C  
HETATM   12  C   UNL     1     -10.873  11.464  69.070  1.00  0.00    -0.265 C  
HETATM   13  C   UNL     1     -10.703  10.000  68.726  1.00  0.00    -0.250 C  
HETATM   14  C   UNL     1      -9.439   9.851  67.870  1.00  0.00    -0.149 C  
HETATM   15  C   UNL     1      -8.764   8.515  68.165  1.00  0.00    -0.142 C  
HETATM   16  C   UNL     1      -7.270   8.555  68.348  1.00  0.00    -0.085 C  
HETATM   17  C   UNL     1      -9.496   7.377  68.217  1.00  0.00    -0.143 C  
HETATM   18  C   UNL     1      -6.766   9.737  69.189  1.00  0.00    -0.053 C  
HETATM   19  C   UNL     1      -7.690  11.543  66.911  1.00  0.00    -0.157 C  
HETATM   20  C   UNL     1      -8.626  11.165  68.084  1.00  0.00    -0.140 C  
HETATM   21  C   UNL     1      -7.703  10.954  69.315  1.00  0.00    -0.100 C  
BRANCH  17  22
HETATM   22  C   UNL     1      -8.956   6.042  68.091  1.00  0.00    -0.112 C  
HETATM   23  C   UNL     1      -8.550   5.356  67.005  1.00  0.00    -0.109 C  
HETATM   24  C   UNL     1      -7.830   4.034  67.234  1.00  0.00    -0.091 C  
HETATM   25  C   UNL     1      -8.480   2.881  66.473  1.00  0.00    -0.101 C  
HETATM   26  C   UNL     1      -8.583   3.210  64.985  1.00  0.00    -0.106 C  
HETATM   27  O   UNL     1      -9.762   2.572  67.006  1.00  0.00    -0.396 OA 
HETATM   28  C   UNL     1      -9.326   4.529  64.754  1.00  0.00    -0.138 C  
HETATM   29  H   UNL     1     -10.166   1.854  66.532  1.00  0.00     0.000 HD 
HETATM   30  O   UNL     1      -9.286   4.813  63.352  1.00  0.00    -0.329 OA 
HETATM   31  C   UNL     1      -8.739   5.675  65.583  1.00  0.00    -0.151 C  
HETATM   32  C   UNL     1      -8.362   6.846  65.041  1.00  0.00    -0.054 C  
HETATM   33  H   UNL     1      -9.748   5.631  63.209  1.00  0.00     0.000 HD 
ENDBRANCH  17  22
ENDBRANCH   2   7
TORSDOF 3
ENDMDL
MODEL       68
REMARK 921   NORMALIZED FREE ENERGY PREDICTED BY IDOCK:   -5.13 KCAL/MOL
REMARK 922        TOTAL FREE ENERGY PREDICTED BY IDOCK:   -7.31 KCAL/MOL
REMARK 923 INTER-LIGAND FREE ENERGY PREDICTED BY IDOCK:   -6.10 KCAL/MOL
REMARK 924 INTRA-LIGAND FREE ENERGY PREDICTED BY IDOCK:   -1.21 KCAL/MOL
REMARK 927      BINDING AFFINITY PREDICTED BY RF-SCORE:    0.00 PKD
ROOT
HETATM    1  O   UNL     1      -9.117   8.760  64.974  1.00  0.00    -0.403 OA 
HETATM    2  C   UNL     1      -8.083   7.942  64.431  1.00  0.00    -0.103 C  
HETATM    3  H   UNL     1      -9.122   9.573  64.482  1.00  0.00     0.000 HD 
ENDROOT
BRANCH   2   4
HETATM    4  C   UNL     1      -6.802   8.738  64.437  1.00  0.00    -0.077 C  
HETATM    5  C   UNL     1      -6.693  10.032  65.204  1.00  0.00    -0.126 C  
HETATM    6  C   UNL     1      -6.733  10.055  63.702  1.00  0.00    -0.128 C  
ENDBRANCH   2   4
BRANCH   2   7
HETATM    7  C   UNL     1      -8.075   6.663  65.206  1.00  0.00    -0.130 C  
HETATM    8  C   UNL     1      -7.402   6.428  66.347  1.00  0.00    -0.081 C  
HETATM    9  C   UNL     1      -7.445   5.133  67.123  1.00  0.00    -0.087 C  
HETATM   10  C   UNL     1      -6.025   4.527  67.088  1.00  0.00    -0.023 C  
HETATM   11  C   UNL     1      -8.017   5.273  68.581  1.00  0.00    -0.087 C  
HETATM   12  C   UNL     1      -7.101   6.160  69.445  1.00  0.00    -0.069 C  
HETATM   13  C   UNL     1      -7.791   7.495  69.626  1.00  0.00    -0.119 C  
HETATM   14  C   UNL     1      -9.172   7.416  68.963  1.00  0.00    -0.146 C  
HETATM   15  C   UNL     1     -10.171   8.270  69.737  1.00  0.00    -0.204 C  
HETATM   16  C   UNL     1     -11.512   7.640  70.004  1.00  0.00    -0.012 C  
HETATM   17  C   UNL     1      -9.844   9.529  70.115  1.00  0.00    -0.288 C  
HETATM   18  C   UNL     1     -11.447   6.167  70.433  1.00  0.00    -0.342 C  
HETATM   19  C   UNL     1     -10.434   5.560  67.620  1.00  0.00    -0.256 C  
HETATM   20  C   UNL     1      -9.467   5.896  68.781  1.00  0.00    -0.143 C  
HETATM   21  C   UNL     1     -10.163   5.392  70.075  1.00  0.00    -0.349 C  
BRANCH  17  22
HETATM   22  C   UNL     1     -10.796  10.552  70.484  1.00  0.00    -0.066 C  
HETATM   23  C   UNL     1     -11.424  11.481  69.737  1.00  0.00    -0.362 C  
HETATM   24  C   UNL     1     -12.535  12.285  70.397  1.00  0.00    -0.221 C  
HETATM   25  C   UNL     1     -12.314  13.791  70.271  1.00  0.00    -0.337 C  
HETATM   26  C   UNL     1     -12.132  14.187  68.807  1.00  0.00    -0.326 C  
HETATM   27  O   UNL     1     -11.197  14.212  71.044  1.00  0.00    -0.395 OA 
HETATM   28  C   UNL     1     -11.000  13.393  68.150  1.00  0.00    -0.255 C  
HETATM   29  H   UNL     1     -11.060  15.149  70.967  1.00  0.00     0.000 HD 
HETATM   30  O   UNL     1     -10.967  13.747  66.763  1.00  0.00    -0.298 OA 
HETATM   31  C   UNL     1     -11.163  11.883  68.347  1.00  0.00    -0.312 C  
HETATM   32  C   UNL     1     -11.142  11.009  67.326  1.00  0.00    -0.359 C  
HETATM   33  H   UNL     1     -10.264  13.254  66.355  1.00  0.00     0.000 HD 
ENDBRANCH  17  22
ENDBRANCH   2   7
TORSDOF 3
ENDMDL
MODEL       69
REMARK 921   NORMALIZED FREE ENERGY PREDICTED BY IDOCK:   -5.10 KCAL/MOL
REMARK 922        TOTAL FREE ENERGY PREDICTED BY IDOCK:   -7.28 KCAL/MOL
REMARK 923 INTER-LIGAND FREE ENERGY PREDICTED BY IDOCK:   -6.33 KCAL/MOL
REMARK 924 INTRA-LIGAND FREE ENERGY PREDICTED BY IDOCK:   -0.94 KCAL/MOL
REMARK 927      BINDING AFFINITY PREDICTED BY RF-SCORE:    0.00 PKD
ROOT
HETATM    1  O   UNL     1      -9.788  15.837  68.640  1.00  0.00    -0.200 OA 
HETATM    2  C   UNL     1      -9.919  14.742  67.738  1.00  0.00    -0.223 C  
HETATM    3  H   UNL     1     -10.662  16.073  68.928  1.00  0.00     0.000 HD 
ENDROOT
BRANCH   2   4
HETATM    4  C   UNL     1     -10.898  15.136  66.659  1.00  0.00    -0.318 C  
HETATM    5  C   UNL     1     -11.125  14.255  65.456  1.00  0.00    -0.323 C  
HETATM    6  C   UNL     1     -10.389  15.556  65.302  1.00  0.00    -0.416 C  
ENDBRANCH   2   4
BRANCH   2   7
HETATM    7  C   UNL     1      -8.543  14.371  67.285  1.00  0.00    -0.230 C  
HETATM    8  C   UNL     1      -7.515  14.012  68.075  1.00  0.00    -0.141 C  
HETATM    9  C   UNL     1      -6.147  13.609  67.580  1.00  0.00    -0.108 C  
HETATM   10  C   UNL     1      -5.142  14.664  68.092  1.00  0.00    -0.117 C  
HETATM   11  C   UNL     1      -5.734  12.137  67.952  1.00  0.00    -0.069 C  
HETATM   12  C   UNL     1      -5.608  11.974  69.477  1.00  0.00    -0.078 C  
HETATM   13  C   UNL     1      -6.807  11.183  69.955  1.00  0.00     0.010 C  
HETATM   14  C   UNL     1      -7.630  10.770  68.728  1.00  0.00    -0.113 C  
HETATM   15  C   UNL     1      -8.281   9.412  68.970  1.00  0.00    -0.108 C  
HETATM   16  C   UNL     1      -8.192   8.425  67.837  1.00  0.00    -0.127 C  
HETATM   17  C   UNL     1      -8.920   9.159  70.137  1.00  0.00    -0.219 C  
HETATM   18  C   UNL     1      -6.822   8.376  67.145  1.00  0.00    -0.070 C  
HETATM   19  C   UNL     1      -7.397  11.205  66.160  1.00  0.00    -0.007 C  
HETATM   20  C   UNL     1      -6.679  10.938  67.504  1.00  0.00    -0.074 C  
HETATM   21  C   UNL     1      -5.907   9.603  67.319  1.00  0.00    -0.051 C  
BRANCH  17  22
HETATM   22  C   UNL     1      -9.889   8.104  70.335  1.00  0.00    -0.188 C  
HETATM   23  C   UNL     1     -11.209   8.159  70.598  1.00  0.00    -0.268 C  
HETATM   24  C   UNL     1     -11.994   6.857  70.545  1.00  0.00    -0.358 C  
HETATM   25  C   UNL     1     -12.774   6.597  71.831  1.00  0.00    -0.212 C  
HETATM   26  C   UNL     1     -13.680   7.782  72.159  1.00  0.00    -0.169 C  
HETATM   27  O   UNL     1     -11.897   6.325  72.918  1.00  0.00    -0.490 OA 
HETATM   28  C   UNL     1     -12.887   9.089  72.234  1.00  0.00    -0.406 C  
HETATM   29  H   UNL     1     -12.382   6.163  73.719  1.00  0.00     0.000 HD 
HETATM   30  O   UNL     1     -13.819  10.156  72.438  1.00  0.00    -0.519 OA 
HETATM   31  C   UNL     1     -12.029   9.317  70.985  1.00  0.00    -0.369 C  
HETATM   32  C   UNL     1     -12.077  10.450  70.265  1.00  0.00    -0.370 C  
HETATM   33  H   UNL     1     -13.326  10.967  72.485  1.00  0.00     0.000 HD 
ENDBRANCH  17  22
ENDBRANCH   2   7
TORSDOF 3
ENDMDL
MODEL       70
REMARK 921   NORMALIZED FREE ENERGY PREDICTED BY IDOCK:   -5.08 KCAL/MOL
REMARK 922        TOTAL FREE ENERGY PREDICTED BY IDOCK:   -7.25 KCAL/MOL
REMARK 923 INTER-LIGAND FREE ENERGY PREDICTED BY IDOCK:   -6.17 KCAL/MOL
REMARK 924 INTRA-LIGAND FREE ENERGY PREDICTED BY IDOCK:   -1.07 KCAL/MOL
REMARK 927      BINDING AFFINITY PREDICTED BY RF-SCORE:    0.00 PKD
ROOT
HETATM    1  O   UNL     1     -10.092  10.692  66.796  1.00  0.00    -0.207 OA 
HETATM    2  C   UNL     1     -10.519  10.490  65.452  1.00  0.00    -0.152 C  
HETATM    3  H   UNL     1     -10.814  11.093  67.266  1.00  0.00     0.000 HD 
ENDROOT
BRANCH   2   4
HETATM    4  C   UNL     1     -11.019  11.808  64.915  1.00  0.00    -0.358 C  
HETATM    5  C   UNL     1     -11.923  11.864  63.709  1.00  0.00    -0.547 C  
HETATM    6  C   UNL     1     -10.499  12.327  63.596  1.00  0.00    -0.483 C  
ENDBRANCH   2   4
BRANCH   2   7
HETATM    7  C   UNL     1      -9.382   9.859  64.713  1.00  0.00    -0.339 C  
HETATM    8  C   UNL     1      -8.086   9.887  65.073  1.00  0.00    -0.140 C  
HETATM    9  C   UNL     1      -6.967   9.208  64.320  1.00  0.00    -0.091 C  
HETATM   10  C   UNL     1      -6.028  10.314  63.791  1.00  0.00    -0.138 C  
HETATM   11  C   UNL     1      -6.210   8.105  65.147  1.00  0.00    -0.045 C  
HETATM   12  C   UNL     1      -5.483   8.728  66.353  1.00  0.00    -0.035 C  
HETATM   13  C   UNL     1      -6.261   8.361  67.599  1.00  0.00    -0.053 C  
HETATM   14  C   UNL     1      -7.414   7.435  67.190  1.00  0.00    -0.106 C  
HETATM   15  C   UNL     1      -7.692   6.427  68.301  1.00  0.00    -0.104 C  
HETATM   16  C   UNL     1      -7.887   5.000  67.865  1.00  0.00    -0.090 C  
HETATM   17  C   UNL     1      -7.784   6.839  69.588  1.00  0.00    -0.110 C  
HETATM   18  C   UNL     1      -6.899   4.524  66.789  1.00  0.00    -0.052 C  
HETATM   19  C   UNL     1      -8.259   6.496  64.900  1.00  0.00    -0.097 C  
HETATM   20  C   UNL     1      -7.046   6.903  65.771  1.00  0.00    -0.072 C  
HETATM   21  C   UNL     1      -6.200   5.614  65.954  1.00  0.00    -0.034 C  
BRANCH  17  22
HETATM   22  C   UNL     1      -8.417   6.090  70.650  1.00  0.00    -0.133 C  
HETATM   23  C   UNL     1      -9.716   5.825  70.887  1.00  0.00    -0.218 C  
HETATM   24  C   UNL     1     -10.043   4.823  71.985  1.00  0.00    -0.258 C  
HETATM   25  C   UNL     1     -11.013   5.392  73.019  1.00  0.00    -0.297 C  
HETATM   26  C   UNL     1     -12.280   5.910  72.340  1.00  0.00    -0.056 C  
HETATM   27  O   UNL     1     -10.401   6.424  73.784  1.00  0.00    -0.256 OA 
HETATM   28  C   UNL     1     -11.951   6.933  71.249  1.00  0.00    -0.356 C  
HETATM   29  H   UNL     1     -11.004   6.778  74.427  1.00  0.00     0.000 HD 
HETATM   30  O   UNL     1     -13.175   7.286  70.597  1.00  0.00    -0.578 OA 
HETATM   31  C   UNL     1     -10.910   6.407  70.257  1.00  0.00    -0.350 C  
HETATM   32  C   UNL     1     -11.105   6.410  68.927  1.00  0.00    -0.420 C  
HETATM   33  H   UNL     1     -12.971   7.921  69.920  1.00  0.00     0.000 HD 
ENDBRANCH  17  22
ENDBRANCH   2   7
TORSDOF 3
ENDMDL
MODEL       71
REMARK 921   NORMALIZED FREE ENERGY PREDICTED BY IDOCK:   -5.02 KCAL/MOL
REMARK 922        TOTAL FREE ENERGY PREDICTED BY IDOCK:   -7.18 KCAL/MOL
REMARK 923 INTER-LIGAND FREE ENERGY PREDICTED BY IDOCK:   -6.20 KCAL/MOL
REMARK 924 INTRA-LIGAND FREE ENERGY PREDICTED BY IDOCK:   -0.98 KCAL/MOL
REMARK 927      BINDING AFFINITY PREDICTED BY RF-SCORE:    0.00 PKD
ROOT
HETATM    1  O   UNL     1      -7.660   8.438  70.922  1.00  0.00    -0.066 OA 
HETATM    2  C   UNL     1      -6.822   7.311  70.679  1.00  0.00    -0.053 C  
HETATM    3  H   UNL     1      -7.470   8.748  71.800  1.00  0.00     0.000 HD 
ENDROOT
BRANCH   2   4
HETATM    4  C   UNL     1      -7.028   6.322  71.799  1.00  0.00    -0.076 C  
HETATM    5  C   UNL     1      -7.734   6.722  73.070  1.00  0.00    -0.093 C  
HETATM    6  C   UNL     1      -6.253   6.473  73.086  1.00  0.00    -0.062 C  
ENDBRANCH   2   4
BRANCH   2   7
HETATM    7  C   UNL     1      -7.121   6.823  69.297  1.00  0.00    -0.087 C  
HETATM    8  C   UNL     1      -8.343   6.671  68.754  1.00  0.00    -0.120 C  
HETATM    9  C   UNL     1      -8.607   6.208  67.341  1.00  0.00    -0.106 C  
HETATM   10  C   UNL     1      -9.344   4.854  67.429  1.00  0.00    -0.145 C  
HETATM   11  C   UNL     1      -9.362   7.260  66.449  1.00  0.00    -0.199 C  
HETATM   12  C   UNL     1     -10.777   7.524  66.993  1.00  0.00    -0.367 C  
HETATM   13  C   UNL     1     -10.771   8.889  67.648  1.00  0.00    -0.221 C  
HETATM   14  C   UNL     1      -9.389   9.518  67.434  1.00  0.00    -0.153 C  
HETATM   15  C   UNL     1      -9.522  11.032  67.291  1.00  0.00    -0.179 C  
HETATM   16  C   UNL     1      -8.736  11.661  66.173  1.00  0.00    -0.094 C  
HETATM   17  C   UNL     1     -10.287  11.734  68.160  1.00  0.00    -0.213 C  
HETATM   18  C   UNL     1      -8.771  10.879  64.852  1.00  0.00    -0.075 C  
HETATM   19  C   UNL     1      -7.185   8.703  66.286  1.00  0.00    -0.079 C  
HETATM   20  C   UNL     1      -8.732   8.711  66.273  1.00  0.00    -0.165 C  
HETATM   21  C   UNL     1      -9.144   9.386  64.936  1.00  0.00    -0.258 C  
BRANCH  17  22
HETATM   22  C   UNL     1     -10.187  13.159  68.381  1.00  0.00    -0.247 C  
HETATM   23  C   UNL     1     -10.661  14.197  67.665  1.00  0.00    -0.253 C  
HETATM   24  C   UNL     1     -10.562  15.584  68.282  1.00  0.00    -0.255 C  
HETATM   25  C   UNL     1      -9.855  16.579  67.364  1.00  0.00    -0.253 C  
HETATM   26  C   UNL     1     -10.532  16.623  65.995  1.00  0.00    -0.306 C  
HETATM   27  O   UNL     1      -8.475  16.259  67.226  1.00  0.00    -0.166 OA 
HETATM   28  C   UNL     1     -10.612  15.230  65.366  1.00  0.00    -0.394 C  
HETATM   29  H   UNL     1      -8.034  16.878  66.655  1.00  0.00     0.000 HD 
HETATM   30  O   UNL     1     -11.349  15.344  64.144  1.00  0.00    -0.694 OA 
HETATM   31  C   UNL     1     -11.239  14.202  66.313  1.00  0.00    -0.329 C  
HETATM   32  C   UNL     1     -12.276  13.424  65.959  1.00  0.00    -0.491 C  
HETATM   33  H   UNL     1     -11.398  14.479  63.753  1.00  0.00     0.000 HD 
ENDBRANCH  17  22
ENDBRANCH   2   7
TORSDOF 3
ENDMDL
MODEL       72
REMARK 921   NORMALIZED FREE ENERGY PREDICTED BY IDOCK:   -4.98 KCAL/MOL
REMARK 922        TOTAL FREE ENERGY PREDICTED BY IDOCK:   -7.13 KCAL/MOL
REMARK 923 INTER-LIGAND FREE ENERGY PREDICTED BY IDOCK:   -6.45 KCAL/MOL
REMARK 924 INTRA-LIGAND FREE ENERGY PREDICTED BY IDOCK:   -0.68 KCAL/MOL
REMARK 927      BINDING AFFINITY PREDICTED BY RF-SCORE:    0.00 PKD
ROOT
HETATM    1  O   UNL     1      -9.209   9.872  70.175  1.00  0.00    -0.311 OA 
HETATM    2  C   UNL     1      -8.648   9.156  71.272  1.00  0.00    -0.063 C  
HETATM    3  H   UNL     1      -9.938  10.379  70.511  1.00  0.00     0.000 HD 
ENDROOT
BRANCH   2   4
HETATM    4  C   UNL     1      -9.755   8.379  71.941  1.00  0.00    -0.331 C  
HETATM    5  C   UNL     1      -9.963   6.914  71.649  1.00  0.00    -0.180 C  
HETATM    6  C   UNL     1     -10.947   7.925  71.134  1.00  0.00    -0.262 C  
ENDBRANCH   2   4
BRANCH   2   7
HETATM    7  C   UNL     1      -7.500   8.357  70.743  1.00  0.00    -0.065 C  
HETATM    8  C   UNL     1      -7.583   7.279  69.942  1.00  0.00    -0.094 C  
HETATM    9  C   UNL     1      -6.400   6.516  69.396  1.00  0.00    -0.035 C  
HETATM   10  C   UNL     1      -6.452   5.094  69.995  1.00  0.00    -0.035 C  
HETATM   11  C   UNL     1      -6.298   6.518  67.827  1.00  0.00    -0.043 C  
HETATM   12  C   UNL     1      -7.497   5.783  67.201  1.00  0.00    -0.081 C  
HETATM   13  C   UNL     1      -8.416   6.827  66.604  1.00  0.00    -0.120 C  
HETATM   14  C   UNL     1      -7.753   8.201  66.769  1.00  0.00    -0.095 C  
HETATM   15  C   UNL     1      -8.111   9.098  65.587  1.00  0.00    -0.113 C  
HETATM   16  C   UNL     1      -6.974   9.877  64.982  1.00  0.00    -0.130 C  
HETATM   17  C   UNL     1      -9.393   9.184  65.159  1.00  0.00    -0.180 C  
HETATM   18  C   UNL     1      -5.672   9.080  64.822  1.00  0.00    -0.063 C  
HETATM   19  C   UNL     1      -5.525   9.018  67.868  1.00  0.00    -0.035 C  
HETATM   20  C   UNL     1      -6.249   7.912  67.063  1.00  0.00    -0.054 C  
HETATM   21  C   UNL     1      -5.510   7.824  65.699  1.00  0.00    -0.029 C  
BRANCH  17  22
HETATM   22  C   UNL     1      -9.920  10.256  64.346  1.00  0.00    -0.331 C  
HETATM   23  C   UNL     1     -10.338  11.492  64.681  1.00  0.00    -0.349 C  
HETATM   24  C   UNL     1     -10.645  12.464  63.551  1.00  0.00    -0.451 C  
HETATM   25  C   UNL     1     -12.048  13.056  63.661  1.00  0.00    -0.531 C  
HETATM   26  C   UNL     1     -12.253  13.706  65.028  1.00  0.00    -0.450 C  
HETATM   27  O   UNL     1     -13.043  12.066  63.427  1.00  0.00    -0.747 OA 
HETATM   28  C   UNL     1     -11.963  12.722  66.164  1.00  0.00    -0.414 C  
HETATM   29  H   UNL     1     -13.916  12.434  63.495  1.00  0.00     0.000 HD 
HETATM   30  O   UNL     1     -12.075  13.435  67.400  1.00  0.00    -0.355 OA 
HETATM   31  C   UNL     1     -10.593  12.053  66.016  1.00  0.00    -0.303 C  
HETATM   32  C   UNL     1      -9.676  12.045  66.999  1.00  0.00    -0.204 C  
HETATM   33  H   UNL     1     -11.895  12.824  68.105  1.00  0.00     0.000 HD 
ENDBRANCH  17  22
ENDBRANCH   2   7
TORSDOF 3
ENDMDL
MODEL       73
REMARK 921   NORMALIZED FREE ENERGY PREDICTED BY IDOCK:   -4.97 KCAL/MOL
REMARK 922        TOTAL FREE ENERGY PREDICTED BY IDOCK:   -7.13 KCAL/MOL
REMARK 923 INTER-LIGAND FREE ENERGY PREDICTED BY IDOCK:   -6.32 KCAL/MOL
REMARK 924 INTRA-LIGAND FREE ENERGY PREDICTED BY IDOCK:   -0.81 KCAL/MOL
REMARK 927      BINDING AFFINITY PREDICTED BY RF-SCORE:    0.00 PKD
ROOT
HETATM    1  O   UNL     1      -8.879   6.921  65.740  1.00  0.00    -0.256 OA 
HETATM    2  C   UNL     1      -9.438   5.612  65.793  1.00  0.00    -0.013 C  
HETATM    3  H   UNL     1      -9.015   7.251  64.859  1.00  0.00     0.000 HD 
ENDROOT
BRANCH   2   4
HETATM    4  C   UNL     1      -8.840   4.799  64.671  1.00  0.00    -0.152 C  
HETATM    5  C   UNL     1      -7.352   4.572  64.584  1.00  0.00    -0.071 C  
HETATM    6  C   UNL     1      -8.027   5.483  63.599  1.00  0.00    -0.108 C  
ENDBRANCH   2   4
BRANCH   2   7
HETATM    7  C   UNL     1      -9.225   5.092  67.178  1.00  0.00    -0.124 C  
HETATM    8  C   UNL     1      -8.321   5.543  68.067  1.00  0.00    -0.099 C  
HETATM    9  C   UNL     1      -8.156   5.017  69.473  1.00  0.00    -0.078 C  
HETATM   10  C   UNL     1      -6.754   4.376  69.564  1.00  0.00    -0.044 C  
HETATM   11  C   UNL     1      -8.416   6.087  70.597  1.00  0.00    -0.133 C  
HETATM   12  C   UNL     1      -7.371   7.216  70.528  1.00  0.00    -0.075 C  
HETATM   13  C   UNL     1      -8.054   8.440  69.958  1.00  0.00    -0.115 C  
HETATM   14  C   UNL     1      -9.539   8.113  69.759  1.00  0.00    -0.171 C  
HETATM   15  C   UNL     1     -10.385   9.361  69.995  1.00  0.00    -0.265 C  
HETATM   16  C   UNL     1     -11.618   9.173  70.839  1.00  0.00    -0.350 C  
HETATM   17  C   UNL     1     -10.030  10.542  69.435  1.00  0.00    -0.220 C  
HETATM   18  C   UNL     1     -11.413   8.283  72.073  1.00  0.00    -0.399 C  
HETATM   19  C   UNL     1     -10.988   5.967  70.133  1.00  0.00    -0.429 C  
HETATM   20  C   UNL     1      -9.813   6.846  70.626  1.00  0.00    -0.191 C  
HETATM   21  C   UNL     1     -10.207   7.325  72.050  1.00  0.00    -0.212 C  
BRANCH  17  22
HETATM   22  C   UNL     1     -10.919  11.666  69.250  1.00  0.00    -0.246 C  
HETATM   23  C   UNL     1     -10.944  12.622  68.301  1.00  0.00    -0.275 C  
HETATM   24  C   UNL     1     -12.146  13.555  68.270  1.00  0.00    -0.295 C  
HETATM   25  C   UNL     1     -11.739  15.026  68.315  1.00  0.00    -0.314 C  
HETATM   26  C   UNL     1     -10.754  15.347  67.192  1.00  0.00    -0.314 C  
HETATM   27  O   UNL     1     -11.181  15.367  69.579  1.00  0.00    -0.246 OA 
HETATM   28  C   UNL     1      -9.536  14.421  67.236  1.00  0.00    -0.215 C  
HETATM   29  H   UNL     1     -10.928  16.282  69.607  1.00  0.00     0.000 HD 
HETATM   30  O   UNL     1      -8.721  14.716  66.097  1.00  0.00    -0.441 OA 
HETATM   31  C   UNL     1      -9.933  12.943  67.283  1.00  0.00    -0.224 C  
HETATM   32  C   UNL     1      -9.453  12.032  66.419  1.00  0.00    -0.238 C  
HETATM   33  H   UNL     1      -7.964  14.142  66.125  1.00  0.00     0.000 HD 
ENDBRANCH  17  22
ENDBRANCH   2   7
TORSDOF 3
ENDMDL
MODEL       74
REMARK 921   NORMALIZED FREE ENERGY PREDICTED BY IDOCK:   -4.91 KCAL/MOL
REMARK 922        TOTAL FREE ENERGY PREDICTED BY IDOCK:   -7.05 KCAL/MOL
REMARK 923 INTER-LIGAND FREE ENERGY PREDICTED BY IDOCK:   -6.16 KCAL/MOL
REMARK 924 INTRA-LIGAND FREE ENERGY PREDICTED BY IDOCK:   -0.88 KCAL/MOL
REMARK 927      BINDING AFFINITY PREDICTED BY RF-SCORE:    0.00 PKD
ROOT
HETATM    1  O   UNL     1      -7.548  20.965  64.921  1.00  0.00    -0.190 OA 
HETATM    2  C   UNL     1      -6.391  20.169  64.682  1.00  0.00    -0.274 C  
HETATM    3  H   UNL     1      -7.953  21.135  64.079  1.00  0.00     0.000 HD 
ENDROOT
BRANCH   2   4
HETATM    4  C   UNL     1      -5.538  20.874  63.657  1.00  0.00    -0.293 C  
HETATM    5  C   UNL     1      -6.131  21.374  62.364  1.00  0.00    -0.363 C  
HETATM    6  C   UNL     1      -5.209  20.188  62.354  1.00  0.00    -0.247 C  
ENDBRANCH   2   4
BRANCH   2   7
HETATM    7  C   UNL     1      -5.753  19.902  66.008  1.00  0.00    -0.181 C  
HETATM    8  C   UNL     1      -6.356  19.971  67.209  1.00  0.00    -0.224 C  
HETATM    9  C   UNL     1      -5.689  19.660  68.528  1.00  0.00    -0.234 C  
HETATM   10  C   UNL     1      -5.659  20.967  69.350  1.00  0.00    -0.381 C  
HETATM   11  C   UNL     1      -6.336  18.458  69.311  1.00  0.00    -0.269 C  
HETATM   12  C   UNL     1      -7.780  18.791  69.727  1.00  0.00     0.602 C  
HETATM   13  C   UNL     1      -8.711  18.003  68.830  1.00  0.00    -0.206 C  
HETATM   14  C   UNL     1      -7.858  17.109  67.920  1.00  0.00    -0.196 C  
HETATM   15  C   UNL     1      -8.594  15.804  67.633  1.00  0.00    -0.173 C  
HETATM   16  C   UNL     1      -7.775  14.546  67.742  1.00  0.00    -0.167 C  
HETATM   17  C   UNL     1      -9.900  15.822  67.273  1.00  0.00    -0.230 C  
HETATM   18  C   UNL     1      -6.829  14.506  68.951  1.00  0.00    -0.099 C  
HETATM   19  C   UNL     1      -5.283  16.769  67.612  1.00  0.00    -0.142 C  
HETATM   20  C   UNL     1      -6.451  17.045  68.589  1.00  0.00    -0.172 C  
HETATM   21  C   UNL     1      -6.458  15.858  69.591  1.00  0.00    -0.186 C  
BRANCH  17  22
HETATM   22  C   UNL     1     -10.586  14.737  66.608  1.00  0.00    -0.299 C  
HETATM   23  C   UNL     1     -11.062  13.571  67.086  1.00  0.00    -0.308 C  
HETATM   24  C   UNL     1     -11.927  12.729  66.160  1.00  0.00    -0.476 C  
HETATM   25  C   UNL     1     -11.407  11.300  66.022  1.00  0.00     0.069 C  
HETATM   26  C   UNL     1     -11.259  10.646  67.395  1.00  0.00    -0.280 C  
HETATM   27  O   UNL     1     -10.170  11.268  65.319  1.00  0.00    -0.249 OA 
HETATM   28  C   UNL     1     -10.372  11.484  68.320  1.00  0.00    -0.197 C  
HETATM   29  H   UNL     1      -9.847  10.379  65.233  1.00  0.00     0.000 HD 
HETATM   30  O   UNL     1     -10.372  10.861  69.608  1.00  0.00    -0.415 OA 
HETATM   31  C   UNL     1     -10.830  12.944  68.395  1.00  0.00    -0.276 C  
HETATM   32  C   UNL     1     -11.070  13.573  69.559  1.00  0.00    -0.111 C  
HETATM   33  H   UNL     1      -9.820  11.380  70.182  1.00  0.00     0.000 HD 
ENDBRANCH  17  22
ENDBRANCH   2   7
TORSDOF 3
ENDMDL
MODEL       75
REMARK 921   NORMALIZED FREE ENERGY PREDICTED BY IDOCK:   -4.90 KCAL/MOL
REMARK 922        TOTAL FREE ENERGY PREDICTED BY IDOCK:   -7.04 KCAL/MOL
REMARK 923 INTER-LIGAND FREE ENERGY PREDICTED BY IDOCK:   -5.94 KCAL/MOL
REMARK 924 INTRA-LIGAND FREE ENERGY PREDICTED BY IDOCK:   -1.10 KCAL/MOL
REMARK 927      BINDING AFFINITY PREDICTED BY RF-SCORE:    0.00 PKD
ROOT
HETATM    1  O   UNL     1      -7.229   3.806  65.811  1.00  0.00    -0.068 OA 
HETATM    2  C   UNL     1      -7.694   4.793  66.729  1.00  0.00    -0.091 C  
HETATM    3  H   UNL     1      -7.195   4.212  64.953  1.00  0.00     0.000 HD 
ENDROOT
BRANCH   2   4
HETATM    4  C   UNL     1      -8.990   5.354  66.199  1.00  0.00    -0.142 C  
HETATM    5  C   UNL     1     -10.313   4.956  66.803  1.00  0.00    -0.264 C  
HETATM    6  C   UNL     1      -9.938   4.462  65.435  1.00  0.00    -0.231 C  
ENDBRANCH   2   4
BRANCH   2   7
HETATM    7  C   UNL     1      -7.748   4.153  68.079  1.00  0.00    -0.071 C  
HETATM    8  C   UNL     1      -7.142   4.599  69.195  1.00  0.00    -0.052 C  
HETATM    9  C   UNL     1      -7.247   3.946  70.553  1.00  0.00    -0.041 C  
HETATM   10  C   UNL     1      -5.837   3.447  70.936  1.00  0.00    -0.014 C  
HETATM   11  C   UNL     1      -7.896   4.858  71.659  1.00  0.00    -0.106 C  
HETATM   12  C   UNL     1      -7.015   6.089  71.938  1.00  0.00    -0.077 C  
HETATM   13  C   UNL     1      -7.694   7.290  71.315  1.00  0.00    -0.088 C  
HETATM   14  C   UNL     1      -9.037   6.834  70.731  1.00  0.00    -0.151 C  
HETATM   15  C   UNL     1     -10.065   7.956  70.850  1.00  0.00    -0.205 C  
HETATM   16  C   UNL     1     -11.427   7.554  71.347  1.00  0.00    -0.291 C  
HETATM   17  C   UNL     1      -9.740   9.220  70.488  1.00  0.00    -0.316 C  
HETATM   18  C   UNL     1     -11.408   6.563  72.520  1.00  0.00    -0.299 C  
HETATM   19  C   UNL     1     -10.252   4.523  70.569  1.00  0.00    -0.152 C  
HETATM   20  C   UNL     1      -9.345   5.461  71.403  1.00  0.00    -0.179 C  
HETATM   21  C   UNL     1     -10.119   5.743  72.720  1.00  0.00    -0.202 C  
BRANCH  17  22
HETATM   22  C   UNL     1     -10.695  10.260  70.179  1.00  0.00    -0.334 C  
HETATM   23  C   UNL     1     -10.826  11.039  69.087  1.00  0.00    -0.283 C  
HETATM   24  C   UNL     1     -12.074  11.903  68.983  1.00  0.00    -0.245 C  
HETATM   25  C   UNL     1     -11.741  13.376  68.752  1.00  0.00    -0.340 C  
HETATM   26  C   UNL     1     -10.844  13.539  67.526  1.00  0.00    -0.276 C  
HETATM   27  O   UNL     1     -11.125  13.949  69.900  1.00  0.00    -0.456 OA 
HETATM   28  C   UNL     1      -9.579  12.685  67.641  1.00  0.00    -0.188 C  
HETATM   29  H   UNL     1     -10.918  14.865  69.757  1.00  0.00     0.000 HD 
HETATM   30  O   UNL     1      -8.852  12.813  66.415  1.00  0.00    -0.413 OA 
HETATM   31  C   UNL     1      -9.897  11.221  67.962  1.00  0.00    -0.186 C  
HETATM   32  C   UNL     1      -9.424  10.196  67.232  1.00  0.00    -0.178 C  
HETATM   33  H   UNL     1      -8.067  12.283  66.487  1.00  0.00     0.000 HD 
ENDBRANCH  17  22
ENDBRANCH   2   7
TORSDOF 3
ENDMDL
MODEL       76
REMARK 921   NORMALIZED FREE ENERGY PREDICTED BY IDOCK:   -4.88 KCAL/MOL
REMARK 922        TOTAL FREE ENERGY PREDICTED BY IDOCK:   -7.02 KCAL/MOL
REMARK 923 INTER-LIGAND FREE ENERGY PREDICTED BY IDOCK:   -5.98 KCAL/MOL
REMARK 924 INTRA-LIGAND FREE ENERGY PREDICTED BY IDOCK:   -1.04 KCAL/MOL
REMARK 927      BINDING AFFINITY PREDICTED BY RF-SCORE:    0.00 PKD
ROOT
HETATM    1  O   UNL     1     -10.501   6.875  66.494  1.00  0.00    -0.474 OA 
HETATM    2  C   UNL     1      -9.530   5.930  66.935  1.00  0.00    -0.135 C  
HETATM    3  H   UNL     1     -11.352   6.558  66.772  1.00  0.00     0.000 HD 
ENDROOT
BRANCH   2   4
HETATM    4  C   UNL     1      -9.937   4.568  66.429  1.00  0.00    -0.267 C  
HETATM    5  C   UNL     1      -9.495   3.312  67.137  1.00  0.00    -0.178 C  
HETATM    6  C   UNL     1      -8.906   3.662  65.800  1.00  0.00    -0.127 C  
ENDBRANCH   2   4
BRANCH   2   7
HETATM    7  C   UNL     1      -8.190   6.429  66.497  1.00  0.00    -0.113 C  
HETATM    8  C   UNL     1      -7.941   7.199  65.422  1.00  0.00    -0.125 C  
HETATM    9  C   UNL     1      -6.577   7.716  65.028  1.00  0.00    -0.044 C  
HETATM   10  C   UNL     1      -6.216   7.077  63.670  1.00  0.00    -0.044 C  
HETATM   11  C   UNL     1      -6.459   9.284  65.020  1.00  0.00    -0.070 C  
HETATM   12  C   UNL     1      -7.380   9.895  63.947  1.00  0.00    -0.131 C  
HETATM   13  C   UNL     1      -8.557  10.528  64.658  1.00  0.00    -0.167 C  
HETATM   14  C   UNL     1      -8.331  10.399  66.170  1.00  0.00    -0.149 C  
HETATM   15  C   UNL     1      -8.921  11.608  66.890  1.00  0.00    -0.191 C  
HETATM   16  C   UNL     1      -8.057  12.229  67.954  1.00  0.00    -0.155 C  
HETATM   17  C   UNL     1     -10.166  12.045  66.583  1.00  0.00    -0.229 C  
HETATM   18  C   UNL     1      -6.575  12.359  67.573  1.00  0.00    -0.147 C  
HETATM   19  C   UNL     1      -6.458   9.311  67.636  1.00  0.00    -0.063 C  
HETATM   20  C   UNL     1      -6.813  10.088  66.346  1.00  0.00    -0.093 C  
HETATM   21  C   UNL     1      -6.062  11.444  66.444  1.00  0.00    -0.085 C  
BRANCH  17  22
HETATM   22  C   UNL     1     -10.974  12.892  67.430  1.00  0.00    -0.288 C  
HETATM   23  C   UNL     1     -11.026  14.234  67.541  1.00  0.00    -0.297 C  
HETATM   24  C   UNL     1     -12.143  14.829  68.385  1.00  0.00    -0.202 C  
HETATM   25  C   UNL     1     -11.614  15.770  69.466  1.00  0.00    -0.363 C  
HETATM   26  C   UNL     1     -10.739  16.859  68.849  1.00  0.00    -0.321 C  
HETATM   27  O   UNL     1     -10.892  15.054  70.461  1.00  0.00    -0.453 OA 
HETATM   28  C   UNL     1      -9.603  16.259  68.017  1.00  0.00    -0.224 C  
HETATM   29  H   UNL     1     -10.563  15.639  71.134  1.00  0.00     0.000 HD 
HETATM   30  O   UNL     1      -8.899  17.339  67.393  1.00  0.00    -0.214 OA 
HETATM   31  C   UNL     1     -10.112  15.245  66.988  1.00  0.00    -0.248 C  
HETATM   32  C   UNL     1      -9.809  15.317  65.681  1.00  0.00    -0.383 C  
HETATM   33  H   UNL     1      -8.194  16.966  66.877  1.00  0.00     0.000 HD 
ENDBRANCH  17  22
ENDBRANCH   2   7
TORSDOF 3
ENDMDL
MODEL       77
REMARK 921   NORMALIZED FREE ENERGY PREDICTED BY IDOCK:   -4.88 KCAL/MOL
REMARK 922        TOTAL FREE ENERGY PREDICTED BY IDOCK:   -7.02 KCAL/MOL
REMARK 923 INTER-LIGAND FREE ENERGY PREDICTED BY IDOCK:   -6.45 KCAL/MOL
REMARK 924 INTRA-LIGAND FREE ENERGY PREDICTED BY IDOCK:   -0.57 KCAL/MOL
REMARK 927      BINDING AFFINITY PREDICTED BY RF-SCORE:    0.00 PKD
ROOT
HETATM    1  O   UNL     1      -8.471  20.660  64.755  1.00  0.00     0.243 OA 
HETATM    2  C   UNL     1      -7.390  19.853  65.214  1.00  0.00    -0.040 C  
HETATM    3  H   UNL     1      -8.326  20.829  63.832  1.00  0.00     0.000 HD 
ENDROOT
BRANCH   2   4
HETATM    4  C   UNL     1      -6.099  20.545  64.852  1.00  0.00    -0.307 C  
HETATM    5  C   UNL     1      -5.926  21.215  63.513  1.00  0.00    -0.344 C  
HETATM    6  C   UNL     1      -5.189  19.940  63.811  1.00  0.00    -0.241 C  
ENDBRANCH   2   4
BRANCH   2   7
HETATM    7  C   UNL     1      -7.619  19.587  66.668  1.00  0.00    -0.271 C  
HETATM    8  C   UNL     1      -8.799  19.309  67.250  1.00  0.00    -0.329 C  
HETATM    9  C   UNL     1      -8.988  19.011  68.718  1.00  0.00    -0.358 C  
HETATM   10  C   UNL     1      -9.859  20.140  69.310  1.00  0.00    -0.053 C  
HETATM   11  C   UNL     1      -9.558  17.576  69.018  1.00  0.00    -0.151 C  
HETATM   12  C   UNL     1     -10.981  17.424  68.451  1.00  0.00    -0.118 C  
HETATM   13  C   UNL     1     -10.896  16.545  67.223  1.00  0.00    -0.173 C  
HETATM   14  C   UNL     1      -9.446  16.069  67.072  1.00  0.00    -0.230 C  
HETATM   15  C   UNL     1      -9.417  14.665  66.476  1.00  0.00    -0.319 C  
HETATM   16  C   UNL     1      -8.481  13.687  67.134  1.00  0.00    -0.186 C  
HETATM   17  C   UNL     1     -10.180  14.365  65.397  1.00  0.00    -0.408 C  
HETATM   18  C   UNL     1      -8.482  13.741  68.668  1.00  0.00    -0.056 C  
HETATM   19  C   UNL     1      -7.243  16.517  68.410  1.00  0.00    -0.169 C  
HETATM   20  C   UNL     1      -8.776  16.308  68.460  1.00  0.00    -0.211 C  
HETATM   21  C   UNL     1      -9.005  15.035  69.320  1.00  0.00    -0.158 C  
BRANCH  17  22
HETATM   22  C   UNL     1      -9.958  13.240  64.518  1.00  0.00    -0.117 C  
HETATM   23  C   UNL     1     -10.063  11.915  64.740  1.00  0.00    -0.295 C  
HETATM   24  C   UNL     1      -9.963  10.988  63.537  1.00  0.00    -0.421 C  
HETATM   25  C   UNL     1      -8.894   9.913  63.721  1.00  0.00    -0.232 C  
HETATM   26  C   UNL     1      -9.135   9.130  65.011  1.00  0.00    -0.215 C  
HETATM   27  O   UNL     1      -7.589  10.480  63.719  1.00  0.00    -0.322 OA 
HETATM   28  C   UNL     1      -9.215  10.062  66.224  1.00  0.00    -0.162 C  
HETATM   29  H   UNL     1      -6.924   9.810  63.834  1.00  0.00     0.000 HD 
HETATM   30  O   UNL     1      -9.545   9.266  67.366  1.00  0.00    -0.142 OA 
HETATM   31  C   UNL     1     -10.219  11.199  66.014  1.00  0.00    -0.300 C  
HETATM   32  C   UNL     1     -11.205  11.471  66.888  1.00  0.00    -0.363 C  
HETATM   33  H   UNL     1      -9.594   9.844  68.119  1.00  0.00     0.000 HD 
ENDBRANCH  17  22
ENDBRANCH   2   7
TORSDOF 3
ENDMDL
MODEL       78
REMARK 921   NORMALIZED FREE ENERGY PREDICTED BY IDOCK:   -4.82 KCAL/MOL
REMARK 922        TOTAL FREE ENERGY PREDICTED BY IDOCK:   -6.94 KCAL/MOL
REMARK 923 INTER-LIGAND FREE ENERGY PREDICTED BY IDOCK:   -6.17 KCAL/MOL
REMARK 924 INTRA-LIGAND FREE ENERGY PREDICTED BY IDOCK:   -0.77 KCAL/MOL
REMARK 927      BINDING AFFINITY PREDICTED BY RF-SCORE:    0.00 PKD
ROOT
HETATM    1  O   UNL     1     -11.890  11.662  67.223  1.00  0.00    -0.609 OA 
HETATM    2  C   UNL     1     -11.458  11.753  65.868  1.00  0.00    -0.207 C  
HETATM    3  H   UNL     1     -12.788  11.351  67.213  1.00  0.00     0.000 HD 
ENDROOT
BRANCH   2   4
HETATM    4  C   UNL     1     -12.453  12.598  65.113  1.00  0.00    -0.531 C  
HETATM    5  C   UNL     1     -11.995  13.665  64.150  1.00  0.00    -0.488 C  
HETATM    6  C   UNL     1     -12.615  14.058  65.461  1.00  0.00    -0.543 C  
ENDBRANCH   2   4
BRANCH   2   7
HETATM    7  C   UNL     1     -10.045  12.243  65.884  1.00  0.00    -0.272 C  
HETATM    8  C   UNL     1      -9.308  12.513  66.977  1.00  0.00    -0.210 C  
HETATM    9  C   UNL     1      -7.870  12.974  66.956  1.00  0.00     0.015 C  
HETATM   10  C   UNL     1      -7.834  14.399  67.548  1.00  0.00    -0.207 C  
HETATM   11  C   UNL     1      -6.867  11.990  67.664  1.00  0.00    -0.115 C  
HETATM   12  C   UNL     1      -7.173  11.887  69.169  1.00  0.00    -0.020 C  
HETATM   13  C   UNL     1      -7.822  10.543  69.416  1.00  0.00    -0.151 C  
HETATM   14  C   UNL     1      -7.838   9.767  68.093  1.00  0.00    -0.085 C  
HETATM   15  C   UNL     1      -7.678   8.274  68.363  1.00  0.00    -0.105 C  
HETATM   16  C   UNL     1      -6.705   7.543  67.476  1.00  0.00    -0.067 C  
HETATM   17  C   UNL     1      -8.411   7.672  69.330  1.00  0.00    -0.131 C  
HETATM   18  C   UNL     1      -5.396   8.300  67.212  1.00  0.00    -0.037 C  
HETATM   19  C   UNL     1      -7.067  10.323  65.656  1.00  0.00    -0.137 C  
HETATM   20  C   UNL     1      -6.800  10.478  67.173  1.00  0.00    -0.084 C  
HETATM   21  C   UNL     1      -5.415   9.825  67.431  1.00  0.00    -0.035 C  
BRANCH  17  22
HETATM   22  C   UNL     1      -8.648   6.249  69.420  1.00  0.00    -0.125 C  
HETATM   23  C   UNL     1      -9.557   5.551  70.129  1.00  0.00    -0.223 C  
HETATM   24  C   UNL     1      -9.682   4.062  69.843  1.00  0.00    -0.263 C  
HETATM   25  C   UNL     1      -9.537   3.215  71.105  1.00  0.00    -0.160 C  
HETATM   26  C   UNL     1     -10.535   3.664  72.171  1.00  0.00    -0.018 C  
HETATM   27  O   UNL     1      -8.209   3.270  71.611  1.00  0.00    -0.060 OA 
HETATM   28  C   UNL     1     -10.394   5.159  72.474  1.00  0.00    -0.204 C  
HETATM   29  H   UNL     1      -8.119   2.742  72.396  1.00  0.00     0.000 HD 
HETATM   30  O   UNL     1     -11.427   5.517  73.398  1.00  0.00    -0.490 OA 
HETATM   31  C   UNL     1     -10.447   6.013  71.204  1.00  0.00    -0.284 C  
HETATM   32  C   UNL     1     -11.288   7.052  71.059  1.00  0.00    -0.325 C  
HETATM   33  H   UNL     1     -11.339   6.444  73.586  1.00  0.00     0.000 HD 
ENDBRANCH  17  22
ENDBRANCH   2   7
TORSDOF 3
ENDMDL
MODEL       79
REMARK 921   NORMALIZED FREE ENERGY PREDICTED BY IDOCK:   -4.80 KCAL/MOL
REMARK 922        TOTAL FREE ENERGY PREDICTED BY IDOCK:   -6.93 KCAL/MOL
REMARK 923 INTER-LIGAND FREE ENERGY PREDICTED BY IDOCK:   -5.73 KCAL/MOL
REMARK 924 INTRA-LIGAND FREE ENERGY PREDICTED BY IDOCK:   -1.19 KCAL/MOL
REMARK 927      BINDING AFFINITY PREDICTED BY RF-SCORE:    0.00 PKD
ROOT
HETATM    1  O   UNL     1     -11.033  10.914  62.587  1.00  0.00    -0.603 OA 
HETATM    2  C   UNL     1     -10.036  11.461  63.446  1.00  0.00    -0.405 C  
HETATM    3  H   UNL     1     -11.790  11.486  62.631  1.00  0.00     0.000 HD 
ENDROOT
BRANCH   2   4
HETATM    4  C   UNL     1     -10.649  11.660  64.810  1.00  0.00    -0.358 C  
HETATM    5  C   UNL     1     -12.032  12.242  64.964  1.00  0.00    -0.413 C  
HETATM    6  C   UNL     1     -10.831  13.055  65.355  1.00  0.00    -0.304 C  
ENDBRANCH   2   4
BRANCH   2   7
HETATM    7  C   UNL     1      -8.845  10.560  63.376  1.00  0.00    -0.210 C  
HETATM    8  C   UNL     1      -7.719  10.672  64.105  1.00  0.00     0.160 C  
HETATM    9  C   UNL     1      -6.547   9.722  64.034  1.00  0.00    -0.120 C  
HETATM   10  C   UNL     1      -5.339  10.519  63.497  1.00  0.00    -0.163 C  
HETATM   11  C   UNL     1      -6.239   8.975  65.383  1.00  0.00    -0.063 C  
HETATM   12  C   UNL     1      -5.806   9.972  66.473  1.00  0.00    -0.059 C  
HETATM   13  C   UNL     1      -6.957  10.120  67.445  1.00  0.00    -0.082 C  
HETATM   14  C   UNL     1      -8.070   9.152  67.023  1.00  0.00    -0.109 C  
HETATM   15  C   UNL     1      -8.808   8.637  68.255  1.00  0.00    -0.142 C  
HETATM   16  C   UNL     1      -9.083   7.158  68.290  1.00  0.00    -0.134 C  
HETATM   17  C   UNL     1      -9.204   9.498  69.223  1.00  0.00    -0.169 C  
HETATM   18  C   UNL     1      -7.912   6.283  67.821  1.00  0.00    -0.114 C  
HETATM   19  C   UNL     1      -8.350   7.465  65.044  1.00  0.00    -0.057 C  
HETATM   20  C   UNL     1      -7.393   8.121  66.069  1.00  0.00    -0.076 C  
HETATM   21  C   UNL     1      -6.843   6.960  66.942  1.00  0.00    -0.065 C  
BRANCH  17  22
HETATM   22  C   UNL     1     -10.223   9.218  70.209  1.00  0.00    -0.270 C  
HETATM   23  C   UNL     1     -10.148   8.590  71.399  1.00  0.00    -0.302 C  
HETATM   24  C   UNL     1     -11.372   8.642  72.302  1.00  0.00    -0.411 C  
HETATM   25  C   UNL     1     -11.831   7.251  72.735  1.00  0.00    -0.018 C  
HETATM   26  C   UNL     1     -10.684   6.486  73.392  1.00  0.00    -0.295 C  
HETATM   27  O   UNL     1     -12.353   6.517  71.634  1.00  0.00    -0.343 OA 
HETATM   28  C   UNL     1      -9.460   6.417  72.474  1.00  0.00    -0.145 C  
HETATM   29  H   UNL     1     -12.640   5.652  71.904  1.00  0.00     0.000 HD 
HETATM   30  O   UNL     1      -8.404   5.781  73.202  1.00  0.00    -0.117 OA 
HETATM   31  C   UNL     1      -9.044   7.798  71.960  1.00  0.00    -0.180 C  
HETATM   32  C   UNL     1      -7.792   8.273  72.079  1.00  0.00    -0.168 C  
HETATM   33  H   UNL     1      -7.644   5.738  72.632  1.00  0.00     0.000 HD 
ENDBRANCH  17  22
ENDBRANCH   2   7
TORSDOF 3
ENDMDL
MODEL       80
REMARK 921   NORMALIZED FREE ENERGY PREDICTED BY IDOCK:   -4.77 KCAL/MOL
REMARK 922        TOTAL FREE ENERGY PREDICTED BY IDOCK:   -6.88 KCAL/MOL
REMARK 923 INTER-LIGAND FREE ENERGY PREDICTED BY IDOCK:   -6.05 KCAL/MOL
REMARK 924 INTRA-LIGAND FREE ENERGY PREDICTED BY IDOCK:   -0.83 KCAL/MOL
REMARK 927      BINDING AFFINITY PREDICTED BY RF-SCORE:    0.00 PKD
ROOT
HETATM    1  O   UNL     1      -5.152  14.939  69.354  1.00  0.00    -0.089 OA 
HETATM    2  C   UNL     1      -5.962  14.776  68.193  1.00  0.00    -0.141 C  
HETATM    3  H   UNL     1      -4.416  14.343  69.272  1.00  0.00     0.000 HD 
ENDROOT
BRANCH   2   4
HETATM    4  C   UNL     1      -6.296  13.311  68.054  1.00  0.00    -0.128 C  
HETATM    5  C   UNL     1      -7.634  12.774  68.494  1.00  0.00    -0.120 C  
HETATM    6  C   UNL     1      -6.400  12.445  69.285  1.00  0.00    -0.106 C  
ENDBRANCH   2   4
BRANCH   2   7
HETATM    7  C   UNL     1      -7.120  15.713  68.323  1.00  0.00    -0.116 C  
HETATM    8  C   UNL     1      -8.156  15.820  67.471  1.00  0.00    -0.179 C  
HETATM    9  C   UNL     1      -9.329  16.754  67.652  1.00  0.00    -0.228 C  
HETATM   10  C   UNL     1      -9.292  17.772  66.492  1.00  0.00    -0.291 C  
HETATM   11  C   UNL     1     -10.717  16.029  67.788  1.00  0.00    -0.323 C  
HETATM   12  C   UNL     1     -11.073  15.281  66.490  1.00  0.00    -0.271 C  
HETATM   13  C   UNL     1     -10.884  13.801  66.745  1.00  0.00    -0.284 C  
HETATM   14  C   UNL     1     -10.505  13.613  68.220  1.00  0.00    -0.253 C  
HETATM   15  C   UNL     1     -11.078  12.298  68.741  1.00  0.00    -0.295 C  
HETATM   16  C   UNL     1     -11.745  12.356  70.089  1.00  0.00    -0.266 C  
HETATM   17  C   UNL     1     -10.944  11.161  68.017  1.00  0.00    -0.307 C  
HETATM   18  C   UNL     1     -12.641  13.585  70.301  1.00  0.00    -0.221 C  
HETATM   19  C   UNL     1     -10.092  15.259  70.210  1.00  0.00    -0.020 C  
HETATM   20  C   UNL     1     -10.906  14.940  68.933  1.00  0.00    -0.253 C  
HETATM   21  C   UNL     1     -12.384  14.802  69.392  1.00  0.00    -0.184 C  
BRANCH  17  22
HETATM   22  C   UNL     1     -11.076   9.824  68.551  1.00  0.00    -0.138 C  
HETATM   23  C   UNL     1     -10.218   8.785  68.546  1.00  0.00    -0.220 C  
HETATM   24  C   UNL     1     -10.580   7.566  69.382  1.00  0.00    -0.225 C  
HETATM   25  C   UNL     1     -10.567   6.278  68.563  1.00  0.00    -0.262 C  
HETATM   26  C   UNL     1      -9.219   6.096  67.866  1.00  0.00    -0.115 C  
HETATM   27  O   UNL     1     -11.625   6.262  67.612  1.00  0.00    -0.558 OA 
HETATM   28  C   UNL     1      -8.865   7.315  67.009  1.00  0.00    -0.128 C  
HETATM   29  H   UNL     1     -11.617   5.460  67.103  1.00  0.00     0.000 HD 
HETATM   30  O   UNL     1      -7.551   7.110  66.480  1.00  0.00    -0.088 OA 
HETATM   31  C   UNL     1      -8.963   8.624  67.796  1.00  0.00    -0.140 C  
HETATM   32  C   UNL     1      -7.958   9.515  67.856  1.00  0.00    -0.098 C  
HETATM   33  H   UNL     1      -7.332   7.866  65.948  1.00  0.00     0.000 HD 
ENDBRANCH  17  22
ENDBRANCH   2   7
TORSDOF 3
ENDMDL
MODEL       81
REMARK 921   NORMALIZED FREE ENERGY PREDICTED BY IDOCK:   -4.71 KCAL/MOL
REMARK 922        TOTAL FREE ENERGY PREDICTED BY IDOCK:   -6.82 KCAL/MOL
REMARK 923 INTER-LIGAND FREE ENERGY PREDICTED BY IDOCK:   -5.99 KCAL/MOL
REMARK 924 INTRA-LIGAND FREE ENERGY PREDICTED BY IDOCK:   -0.84 KCAL/MOL
REMARK 927      BINDING AFFINITY PREDICTED BY RF-SCORE:    0.00 PKD
ROOT
HETATM    1  O   UNL     1      -8.735   8.620  63.760  1.00  0.00    -0.415 OA 
HETATM    2  C   UNL     1      -7.809   7.614  64.161  1.00  0.00    -0.133 C  
HETATM    3  H   UNL     1      -8.484   8.906  62.890  1.00  0.00     0.000 HD 
ENDROOT
BRANCH   2   4
HETATM    4  C   UNL     1      -6.415   8.173  64.014  1.00  0.00    -0.067 C  
HETATM    5  C   UNL     1      -6.191   9.634  63.715  1.00  0.00    -0.108 C  
HETATM    6  C   UNL     1      -5.919   8.604  62.656  1.00  0.00    -0.087 C  
ENDBRANCH   2   4
BRANCH   2   7
HETATM    7  C   UNL     1      -8.205   7.164  65.531  1.00  0.00    -0.139 C  
HETATM    8  C   UNL     1      -7.610   7.514  66.686  1.00  0.00    -0.097 C  
HETATM    9  C   UNL     1      -8.059   7.068  68.057  1.00  0.00    -0.119 C  
HETATM   10  C   UNL     1      -6.929   6.201  68.654  1.00  0.00    -0.076 C  
HETATM   11  C   UNL     1      -8.497   8.243  69.006  1.00  0.00    -0.131 C  
HETATM   12  C   UNL     1      -7.306   9.166  69.319  1.00  0.00    -0.070 C  
HETATM   13  C   UNL     1      -7.498  10.447  68.536  1.00  0.00    -0.089 C  
HETATM   14  C   UNL     1      -8.848  10.368  67.811  1.00  0.00    -0.128 C  
HETATM   15  C   UNL     1      -9.472  11.757  67.721  1.00  0.00    -0.181 C  
HETATM   16  C   UNL     1     -10.937  11.846  68.059  1.00  0.00    -0.271 C  
HETATM   17  C   UNL     1      -8.727  12.816  67.325  1.00  0.00    -0.200 C  
HETATM   18  C   UNL     1     -11.356  11.024  69.285  1.00  0.00    -0.350 C  
HETATM   19  C   UNL     1     -10.709   8.538  67.639  1.00  0.00    -0.189 C  
HETATM   20  C   UNL     1      -9.645   9.233  68.523  1.00  0.00    -0.155 C  
HETATM   21  C   UNL     1     -10.423   9.872  69.705  1.00  0.00    -0.292 C  
BRANCH  17  22
HETATM   22  C   UNL     1      -9.265  14.062  66.826  1.00  0.00    -0.280 C  
HETATM   23  C   UNL     1      -8.784  15.319  66.895  1.00  0.00    -0.288 C  
HETATM   24  C   UNL     1      -9.493  16.392  66.082  1.00  0.00    -0.363 C  
HETATM   25  C   UNL     1      -9.915  17.584  66.938  1.00  0.00    -0.313 C  
HETATM   26  C   UNL     1      -8.716  18.156  67.692  1.00  0.00    -0.249 C  
HETATM   27  O   UNL     1     -10.949  17.223  67.847  1.00  0.00    -0.336 OA 
HETATM   28  C   UNL     1      -8.015  17.080  68.526  1.00  0.00    -0.249 C  
HETATM   29  H   UNL     1     -11.212  17.965  68.379  1.00  0.00     0.000 HD 
HETATM   30  O   UNL     1      -6.851  17.671  69.112  1.00  0.00    -0.248 OA 
HETATM   31  C   UNL     1      -7.667  15.840  67.697  1.00  0.00    -0.174 C  
HETATM   32  C   UNL     1      -6.429  15.319  67.651  1.00  0.00    -0.188 C  
HETATM   33  H   UNL     1      -6.416  17.004  69.630  1.00  0.00     0.000 HD 
ENDBRANCH  17  22
ENDBRANCH   2   7
TORSDOF 3
ENDMDL
MODEL       82
REMARK 921   NORMALIZED FREE ENERGY PREDICTED BY IDOCK:   -4.71 KCAL/MOL
REMARK 922        TOTAL FREE ENERGY PREDICTED BY IDOCK:   -6.81 KCAL/MOL
REMARK 923 INTER-LIGAND FREE ENERGY PREDICTED BY IDOCK:   -5.63 KCAL/MOL
REMARK 924 INTRA-LIGAND FREE ENERGY PREDICTED BY IDOCK:   -1.19 KCAL/MOL
REMARK 927      BINDING AFFINITY PREDICTED BY RF-SCORE:    0.00 PKD
ROOT
HETATM    1  O   UNL     1      -9.589  10.739  66.769  1.00  0.00    -0.167 OA 
HETATM    2  C   UNL     1     -10.047  10.248  68.025  1.00  0.00    -0.162 C  
HETATM    3  H   UNL     1      -8.858  10.194  66.501  1.00  0.00     0.000 HD 
ENDROOT
BRANCH   2   4
HETATM    4  C   UNL     1      -8.870  10.194  68.967  1.00  0.00    -0.166 C  
HETATM    5  C   UNL     1      -7.648  11.046  68.733  1.00  0.00    -0.127 C  
HETATM    6  C   UNL     1      -7.576   9.561  68.516  1.00  0.00    -0.081 C  
ENDBRANCH   2   4
BRANCH   2   7
HETATM    7  C   UNL     1     -11.197  11.106  68.446  1.00  0.00    -0.325 C  
HETATM    8  C   UNL     1     -11.220  11.947  69.496  1.00  0.00    -0.237 C  
HETATM    9  C   UNL     1     -12.389  12.826  69.872  1.00  0.00    -0.138 C  
HETATM   10  C   UNL     1     -12.900  12.351  71.249  1.00  0.00    -0.337 C  
HETATM   11  C   UNL     1     -12.076  14.367  69.832  1.00  0.00    -0.398 C  
HETATM   12  C   UNL     1     -11.016  14.737  70.886  1.00  0.00     0.040 C  
HETATM   13  C   UNL     1      -9.717  15.004  70.157  1.00  0.00     0.265 C  
HETATM   14  C   UNL     1      -9.981  14.896  68.649  1.00  0.00    -0.224 C  
HETATM   15  C   UNL     1      -9.090  15.876  67.893  1.00  0.00    -0.190 C  
HETATM   16  C   UNL     1      -9.761  16.677  66.809  1.00  0.00    -0.271 C  
HETATM   17  C   UNL     1      -7.771  15.968  68.187  1.00  0.00    -0.136 C  
HETATM   18  C   UNL     1     -11.149  17.216  67.184  1.00  0.00     0.186 C  
HETATM   19  C   UNL     1     -12.090  14.315  67.216  1.00  0.00    -0.390 C  
HETATM   20  C   UNL     1     -11.527  15.004  68.482  1.00  0.00    -0.335 C  
HETATM   21  C   UNL     1     -11.882  16.510  68.341  1.00  0.00     0.342 C  
BRANCH  17  22
HETATM   22  C   UNL     1      -6.769  16.537  67.315  1.00  0.00    -0.216 C  
HETATM   23  C   UNL     1      -6.372  17.813  67.146  1.00  0.00    -0.187 C  
HETATM   24  C   UNL     1      -5.137  18.061  66.291  1.00  0.00    -0.200 C  
HETATM   25  C   UNL     1      -5.402  19.054  65.163  1.00  0.00    -0.177 C  
HETATM   26  C   UNL     1      -5.968  20.361  65.718  1.00  0.00    -0.233 C  
HETATM   27  O   UNL     1      -6.283  18.504  64.190  1.00  0.00    -0.089 OA 
HETATM   28  C   UNL     1      -7.222  20.113  66.560  1.00  0.00    -0.262 C  
HETATM   29  H   UNL     1      -6.447  19.122  63.488  1.00  0.00     0.000 HD 
HETATM   30  O   UNL     1      -7.624  21.365  67.125  1.00  0.00    -0.789 OA 
HETATM   31  C   UNL     1      -6.994  19.050  67.640  1.00  0.00    -0.230 C  
HETATM   32  C   UNL     1      -7.272  19.260  68.938  1.00  0.00    -0.393 C  
HETATM   33  H   UNL     1      -8.403  21.212  67.647  1.00  0.00     0.000 HD 
ENDBRANCH  17  22
ENDBRANCH   2   7
TORSDOF 3
ENDMDL
MODEL       83
REMARK 921   NORMALIZED FREE ENERGY PREDICTED BY IDOCK:   -4.68 KCAL/MOL
REMARK 922        TOTAL FREE ENERGY PREDICTED BY IDOCK:   -6.78 KCAL/MOL
REMARK 923 INTER-LIGAND FREE ENERGY PREDICTED BY IDOCK:   -5.06 KCAL/MOL
REMARK 924 INTRA-LIGAND FREE ENERGY PREDICTED BY IDOCK:   -1.72 KCAL/MOL
REMARK 927      BINDING AFFINITY PREDICTED BY RF-SCORE:    0.00 PKD
ROOT
HETATM    1  O   UNL     1     -12.237  15.889  68.797  1.00  0.00    -0.519 OA 
HETATM    2  C   UNL     1     -11.345  14.842  69.171  1.00  0.00    -0.292 C  
HETATM    3  H   UNL     1     -12.903  15.948  69.471  1.00  0.00     0.000 HD 
ENDROOT
BRANCH   2   4
HETATM    4  C   UNL     1     -12.160  13.597  69.419  1.00  0.00    -0.364 C  
HETATM    5  C   UNL     1     -11.539  12.373  70.044  1.00  0.00    -0.216 C  
HETATM    6  C   UNL     1     -11.913  12.361  68.589  1.00  0.00    -0.272 C  
ENDBRANCH   2   4
BRANCH   2   7
HETATM    7  C   UNL     1     -10.296  14.751  68.109  1.00  0.00    -0.239 C  
HETATM    8  C   UNL     1      -8.979  14.558  68.306  1.00  0.00    -0.184 C  
HETATM    9  C   UNL     1      -7.951  14.435  67.206  1.00  0.00    -0.204 C  
HETATM   10  C   UNL     1      -6.991  15.637  67.335  1.00  0.00    -0.234 C  
HETATM   11  C   UNL     1      -7.203  13.053  67.174  1.00  0.00     0.047 C  
HETATM   12  C   UNL     1      -6.364  12.855  68.450  1.00  0.00    -0.080 C  
HETATM   13  C   UNL     1      -7.076  11.838  69.316  1.00  0.00    -0.032 C  
HETATM   14  C   UNL     1      -8.303  11.328  68.548  1.00  0.00    -0.155 C  
HETATM   15  C   UNL     1      -8.561   9.864  68.891  1.00  0.00    -0.135 C  
HETATM   16  C   UNL     1      -8.862   8.956  67.728  1.00  0.00    -0.136 C  
HETATM   17  C   UNL     1      -8.544   9.452  70.181  1.00  0.00    -0.233 C  
HETATM   18  C   UNL     1      -7.976   9.189  66.496  1.00  0.00    -0.100 C  
HETATM   19  C   UNL     1      -9.348  11.898  66.219  1.00  0.00    -0.234 C  
HETATM   20  C   UNL     1      -8.060  11.718  67.057  1.00  0.00    -0.169 C  
HETATM   21  C   UNL     1      -7.275  10.557  66.388  1.00  0.00    -0.129 C  
BRANCH  17  22
HETATM   22  C   UNL     1      -9.145   8.229  70.664  1.00  0.00    -0.164 C  
HETATM   23  C   UNL     1      -8.680   6.965  70.674  1.00  0.00    -0.149 C  
HETATM   24  C   UNL     1      -9.478   5.926  71.449  1.00  0.00    -0.168 C  
HETATM   25  C   UNL     1      -9.840   4.715  70.592  1.00  0.00    -0.226 C  
HETATM   26  C   UNL     1      -8.588   4.105  69.967  1.00  0.00    -0.100 C  
HETATM   27  O   UNL     1     -10.782   5.063  69.584  1.00  0.00    -0.123 OA 
HETATM   28  C   UNL     1      -7.797   5.145  69.170  1.00  0.00    -0.081 C  
HETATM   29  H   UNL     1     -11.008   4.310  69.051  1.00  0.00     0.000 HD 
HETATM   30  O   UNL     1      -6.594   4.521  68.709  1.00  0.00    -0.043 OA 
HETATM   31  C   UNL     1      -7.505   6.404  69.991  1.00  0.00    -0.091 C  
HETATM   32  C   UNL     1      -6.267   6.909  70.135  1.00  0.00    -0.031 C  
HETATM   33  H   UNL     1      -6.103   5.167  68.214  1.00  0.00     0.000 HD 
ENDBRANCH  17  22
ENDBRANCH   2   7
TORSDOF 3
ENDMDL
MODEL       84
REMARK 921   NORMALIZED FREE ENERGY PREDICTED BY IDOCK:   -4.66 KCAL/MOL
REMARK 922        TOTAL FREE ENERGY PREDICTED BY IDOCK:   -6.76 KCAL/MOL
REMARK 923 INTER-LIGAND FREE ENERGY PREDICTED BY IDOCK:   -6.20 KCAL/MOL
REMARK 924 INTRA-LIGAND FREE ENERGY PREDICTED BY IDOCK:   -0.56 KCAL/MOL
REMARK 927      BINDING AFFINITY PREDICTED BY RF-SCORE:    0.00 PKD
ROOT
HETATM    1  O   UNL     1     -10.333  10.107  64.071  1.00  0.00    -0.438 OA 
HETATM    2  C   UNL     1     -10.414  11.519  63.899  1.00  0.00    -0.385 C  
HETATM    3  H   UNL     1     -10.575   9.707  63.244  1.00  0.00     0.000 HD 
ENDROOT
BRANCH   2   4
HETATM    4  C   UNL     1     -11.787  11.850  63.370  1.00  0.00    -0.512 C  
HETATM    5  C   UNL     1     -12.262  13.279  63.280  1.00  0.00    -0.387 C  
HETATM    6  C   UNL     1     -12.851  12.360  64.312  1.00  0.00    -0.356 C  
ENDBRANCH   2   4
BRANCH   2   7
HETATM    7  C   UNL     1     -10.032  12.149  65.201  1.00  0.00    -0.251 C  
HETATM    8  C   UNL     1     -10.725  12.079  66.352  1.00  0.00    -0.294 C  
HETATM    9  C   UNL     1     -10.292  12.699  67.659  1.00  0.00    -0.221 C  
HETATM   10  C   UNL     1     -11.327  13.785  68.021  1.00  0.00    -0.318 C  
HETATM   11  C   UNL     1     -10.059  11.662  68.819  1.00  0.00    -0.169 C  
HETATM   12  C   UNL     1     -11.376  10.958  69.194  1.00  0.00    -0.350 C  
HETATM   13  C   UNL     1     -11.313   9.547  68.650  1.00  0.00     0.176 C  
HETATM   14  C   UNL     1      -9.930   9.335  68.021  1.00  0.00    -0.216 C  
HETATM   15  C   UNL     1      -9.489   7.886  68.207  1.00  0.00    -0.149 C  
HETATM   16  C   UNL     1      -8.068   7.682  68.660  1.00  0.00    -0.127 C  
HETATM   17  C   UNL     1     -10.345   6.872  67.939  1.00  0.00    -0.239 C  
HETATM   18  C   UNL     1      -7.606   8.648  69.760  1.00  0.00    -0.079 C  
HETATM   19  C   UNL     1      -7.839  10.870  67.683  1.00  0.00    -0.113 C  
HETATM   20  C   UNL     1      -9.028  10.473  68.590  1.00  0.00    -0.162 C  
HETATM   21  C   UNL     1      -8.401   9.959  69.915  1.00  0.00    -0.200 C  
BRANCH  17  22
HETATM   22  C   UNL     1      -9.951   5.503  67.694  1.00  0.00    -0.187 C  
HETATM   23  C   UNL     1      -9.633   4.512  68.549  1.00  0.00    -0.212 C  
HETATM   24  C   UNL     1      -9.462   3.113  67.975  1.00  0.00    -0.218 C  
HETATM   25  C   UNL     1      -8.113   2.497  68.342  1.00  0.00    -0.057 C  
HETATM   26  C   UNL     1      -7.911   2.508  69.856  1.00  0.00    -0.049 C  
HETATM   27  O   UNL     1      -7.045   3.175  67.692  1.00  0.00    -0.049 OA 
HETATM   28  C   UNL     1      -8.062   3.920  70.430  1.00  0.00    -0.054 C  
HETATM   29  H   UNL     1      -6.206   2.791  67.919  1.00  0.00     0.000 HD 
HETATM   30  O   UNL     1      -7.964   3.826  71.855  1.00  0.00    -0.065 OA 
HETATM   31  C   UNL     1      -9.372   4.584  69.994  1.00  0.00    -0.223 C  
HETATM   32  C   UNL     1     -10.242   5.120  70.867  1.00  0.00    -0.299 C  
HETATM   33  H   UNL     1      -8.057   4.702  72.210  1.00  0.00     0.000 HD 
ENDBRANCH  17  22
ENDBRANCH   2   7
TORSDOF 3
ENDMDL
MODEL       85
REMARK 921   NORMALIZED FREE ENERGY PREDICTED BY IDOCK:   -4.66 KCAL/MOL
REMARK 922        TOTAL FREE ENERGY PREDICTED BY IDOCK:   -6.76 KCAL/MOL
REMARK 923 INTER-LIGAND FREE ENERGY PREDICTED BY IDOCK:   -5.93 KCAL/MOL
REMARK 924 INTRA-LIGAND FREE ENERGY PREDICTED BY IDOCK:   -0.83 KCAL/MOL
REMARK 927      BINDING AFFINITY PREDICTED BY RF-SCORE:    0.00 PKD
ROOT
HETATM    1  O   UNL     1     -10.561  14.477  64.605  1.00  0.00    -0.554 OA 
HETATM    2  C   UNL     1     -11.873  13.939  64.466  1.00  0.00    -0.426 C  
HETATM    3  H   UNL     1     -10.340  14.900  63.783  1.00  0.00     0.000 HD 
ENDROOT
BRANCH   2   4
HETATM    4  C   UNL     1     -11.896  13.067  63.235  1.00  0.00    -0.432 C  
HETATM    5  C   UNL     1     -12.775  11.843  63.165  1.00  0.00    -0.268 C  
HETATM    6  C   UNL     1     -11.285  11.688  63.281  1.00  0.00    -0.305 C  
ENDBRANCH   2   4
BRANCH   2   7
HETATM    7  C   UNL     1     -12.221  13.273  65.759  1.00  0.00    -0.510 C  
HETATM    8  C   UNL     1     -11.354  12.719  66.626  1.00  0.00    -0.364 C  
HETATM    9  C   UNL     1     -11.737  12.085  67.943  1.00  0.00    -0.393 C  
HETATM   10  C   UNL     1     -11.386  10.584  67.852  1.00  0.00    -0.297 C  
HETATM   11  C   UNL     1     -11.111  12.787  69.203  1.00  0.00    -0.245 C  
HETATM   12  C   UNL     1      -9.577  12.658  69.194  1.00  0.00     0.548 C  
HETATM   13  C   UNL     1      -9.003  14.010  68.828  1.00  0.00    -0.030 C  
HETATM   14  C   UNL     1     -10.164  15.005  68.701  1.00  0.00    -0.231 C  
HETATM   15  C   UNL     1      -9.712  16.392  69.149  1.00  0.00    -0.260 C  
HETATM   16  C   UNL     1     -10.659  17.135  70.052  1.00  0.00     0.304 C  
HETATM   17  C   UNL     1      -8.536  16.901  68.710  1.00  0.00    -0.246 C  
HETATM   18  C   UNL     1     -11.296  16.273  71.151  1.00  0.00    -0.297 C  
HETATM   19  C   UNL     1     -12.762  14.797  68.920  1.00  0.00     0.497 C  
HETATM   20  C   UNL     1     -11.373  14.340  69.427  1.00  0.00    -0.325 C  
HETATM   21  C   UNL     1     -11.309  14.749  70.924  1.00  0.00    -0.206 C  
BRANCH  17  22
HETATM   22  C   UNL     1      -8.188  18.304  68.728  1.00  0.00    -0.253 C  
HETATM   23  C   UNL     1      -7.637  19.087  67.780  1.00  0.00    -0.270 C  
HETATM   24  C   UNL     1      -7.588  20.585  68.043  1.00  0.00    -0.131 C  
HETATM   25  C   UNL     1      -6.177  21.152  67.902  1.00  0.00    -0.330 C  
HETATM   26  C   UNL     1      -5.592  20.805  66.534  1.00  0.00    -0.231 C  
HETATM   27  O   UNL     1      -5.327  20.679  68.941  1.00  0.00    -0.258 OA 
HETATM   28  C   UNL     1      -5.623  19.296  66.279  1.00  0.00    -0.156 C  
HETATM   29  H   UNL     1      -4.450  21.033  68.854  1.00  0.00     0.000 HD 
HETATM   30  O   UNL     1      -5.159  19.068  64.944  1.00  0.00    -0.145 OA 
HETATM   31  C   UNL     1      -7.015  18.699  66.505  1.00  0.00    -0.240 C  
HETATM   32  C   UNL     1      -7.643  17.947  65.586  1.00  0.00     0.129 C  
HETATM   33  H   UNL     1      -5.177  18.131  64.786  1.00  0.00     0.000 HD 
ENDBRANCH  17  22
ENDBRANCH   2   7
TORSDOF 3
ENDMDL
MODEL       86
REMARK 921   NORMALIZED FREE ENERGY PREDICTED BY IDOCK:   -4.65 KCAL/MOL
REMARK 922        TOTAL FREE ENERGY PREDICTED BY IDOCK:   -6.74 KCAL/MOL
REMARK 923 INTER-LIGAND FREE ENERGY PREDICTED BY IDOCK:   -6.32 KCAL/MOL
REMARK 924 INTRA-LIGAND FREE ENERGY PREDICTED BY IDOCK:   -0.42 KCAL/MOL
REMARK 927      BINDING AFFINITY PREDICTED BY RF-SCORE:    0.00 PKD
ROOT
HETATM    1  O   UNL     1      -9.998  20.557  65.533  1.00  0.00    -0.533 OA 
HETATM    2  C   UNL     1      -9.557  20.699  66.881  1.00  0.00    -0.281 C  
HETATM    3  H   UNL     1     -10.930  20.739  65.519  1.00  0.00     0.000 HD 
ENDROOT
BRANCH   2   4
HETATM    4  C   UNL     1     -10.424  19.825  67.753  1.00  0.00    -0.555 C  
HETATM    5  C   UNL     1      -9.843  19.083  68.930  1.00  0.00    -0.464 C  
HETATM    6  C   UNL     1     -10.268  18.325  67.704  1.00  0.00    -0.397 C  
ENDBRANCH   2   4
BRANCH   2   7
HETATM    7  C   UNL     1      -8.089  20.412  66.901  1.00  0.00    -0.318 C  
HETATM    8  C   UNL     1      -7.360  20.071  67.980  1.00  0.00    -0.326 C  
HETATM    9  C   UNL     1      -5.884  19.754  67.958  1.00  0.00    -0.236 C  
HETATM   10  C   UNL     1      -5.167  20.835  68.796  1.00  0.00    -0.334 C  
HETATM   11  C   UNL     1      -5.532  18.291  68.413  1.00  0.00    -0.167 C  
HETATM   12  C   UNL     1      -5.907  18.072  69.890  1.00  0.00    -0.237 C  
HETATM   13  C   UNL     1      -7.148  17.207  69.926  1.00  0.00     0.625 C  
HETATM   14  C   UNL     1      -7.495  16.805  68.487  1.00  0.00    -0.213 C  
HETATM   15  C   UNL     1      -8.109  15.408  68.470  1.00  0.00    -0.142 C  
HETATM   16  C   UNL     1      -7.594  14.473  67.409  1.00  0.00    -0.209 C  
HETATM   17  C   UNL     1      -9.082  15.079  69.353  1.00  0.00    -0.118 C  
HETATM   18  C   UNL     1      -6.072  14.516  67.209  1.00  0.00     0.444 C  
HETATM   19  C   UNL     1      -6.454  17.352  66.151  1.00  0.00    -0.229 C  
HETATM   20  C   UNL     1      -6.205  17.067  67.651  1.00  0.00    -0.165 C  
HETATM   21  C   UNL     1      -5.339  15.778  67.703  1.00  0.00    -0.118 C  
BRANCH  17  22
HETATM   22  C   UNL     1      -9.998  13.972  69.196  1.00  0.00     0.063 C  
HETATM   23  C   UNL     1     -11.218  13.757  69.726  1.00  0.00    -0.122 C  
HETATM   24  C   UNL     1     -12.020  12.579  69.195  1.00  0.00    -0.287 C  
HETATM   25  C   UNL     1     -12.481  11.642  70.309  1.00  0.00    -0.182 C  
HETATM   26  C   UNL     1     -13.260  12.413  71.373  1.00  0.00    -0.190 C  
HETATM   27  O   UNL     1     -11.379  10.959  70.895  1.00  0.00    -0.335 OA 
HETATM   28  C   UNL     1     -12.444  13.586  71.922  1.00  0.00    -0.004 C  
HETATM   29  H   UNL     1     -11.666  10.376  71.588  1.00  0.00     0.000 HD 
HETATM   30  O   UNL     1     -13.279  14.313  72.829  1.00  0.00    -0.477 OA 
HETATM   31  C   UNL     1     -11.899  14.484  70.807  1.00  0.00    -0.367 C  
HETATM   32  C   UNL     1     -12.092  15.814  70.784  1.00  0.00    -0.448 C  
HETATM   33  H   UNL     1     -12.772  15.041  73.170  1.00  0.00     0.000 HD 
ENDBRANCH  17  22
ENDBRANCH   2   7
TORSDOF 3
ENDMDL
MODEL       87
REMARK 921   NORMALIZED FREE ENERGY PREDICTED BY IDOCK:   -4.64 KCAL/MOL
REMARK 922        TOTAL FREE ENERGY PREDICTED BY IDOCK:   -6.74 KCAL/MOL
REMARK 923 INTER-LIGAND FREE ENERGY PREDICTED BY IDOCK:   -6.28 KCAL/MOL
REMARK 924 INTRA-LIGAND FREE ENERGY PREDICTED BY IDOCK:   -0.46 KCAL/MOL
REMARK 927      BINDING AFFINITY PREDICTED BY RF-SCORE:    0.00 PKD
ROOT
HETATM    1  O   UNL     1     -11.234  12.265  66.578  1.00  0.00    -0.289 OA 
HETATM    2  C   UNL     1     -11.049  10.971  67.144  1.00  0.00    -0.267 C  
HETATM    3  H   UNL     1     -11.273  12.159  65.635  1.00  0.00     0.000 HD 
ENDROOT
BRANCH   2   4
HETATM    4  C   UNL     1      -9.845  10.339  66.491  1.00  0.00    -0.265 C  
HETATM    5  C   UNL     1      -9.095  11.050  65.392  1.00  0.00    -0.213 C  
HETATM    6  C   UNL     1      -9.935   9.848  65.066  1.00  0.00    -0.236 C  
ENDBRANCH   2   4
BRANCH   2   7
HETATM    7  C   UNL     1     -10.989  11.138  68.629  1.00  0.00    -0.268 C  
HETATM    8  C   UNL     1     -11.781  10.531  69.531  1.00  0.00    -0.313 C  
HETATM    9  C   UNL     1     -11.668  10.697  71.028  1.00  0.00    -0.329 C  
HETATM   10  C   UNL     1     -12.968  11.374  71.516  1.00  0.00    -0.505 C  
HETATM   11  C   UNL     1     -11.341   9.368  71.802  1.00  0.00    -0.387 C  
HETATM   12  C   UNL     1     -12.489   8.353  71.655  1.00  0.00    -0.363 C  
HETATM   13  C   UNL     1     -12.029   7.273  70.700  1.00  0.00    -0.259 C  
HETATM   14  C   UNL     1     -10.569   7.555  70.323  1.00  0.00    -0.235 C  
HETATM   15  C   UNL     1      -9.824   6.242  70.103  1.00  0.00    -0.201 C  
HETATM   16  C   UNL     1      -8.461   6.143  70.734  1.00  0.00    -0.131 C  
HETATM   17  C   UNL     1     -10.377   5.261  69.351  1.00  0.00    -0.313 C  
HETATM   18  C   UNL     1      -8.378   6.706  72.160  1.00  0.00    -0.105 C  
HETATM   19  C   UNL     1      -8.875   9.453  70.931  1.00  0.00    -0.168 C  
HETATM   20  C   UNL     1     -10.038   8.547  71.402  1.00  0.00    -0.302 C  
HETATM   21  C   UNL     1      -9.473   7.706  72.579  1.00  0.00    -0.222 C  
BRANCH  17  22
HETATM   22  C   UNL     1      -9.644   4.170  68.751  1.00  0.00    -0.210 C  
HETATM   23  C   UNL     1      -8.943   3.165  69.312  1.00  0.00    -0.178 C  
HETATM   24  C   UNL     1      -8.456   2.049  68.400  1.00  0.00    -0.085 C  
HETATM   25  C   UNL     1      -6.952   1.817  68.520  1.00  0.00    -0.039 C  
HETATM   26  C   UNL     1      -6.560   1.561  69.974  1.00  0.00    -0.025 C  
HETATM   27  O   UNL     1      -6.219   2.917  67.993  1.00  0.00    -0.030 OA 
HETATM   28  C   UNL     1      -7.032   2.695  70.888  1.00  0.00    -0.033 C  
HETATM   29  H   UNL     1      -5.283   2.773  68.067  1.00  0.00     0.000 HD 
HETATM   30  O   UNL     1      -6.721   2.329  72.236  1.00  0.00    -0.014 OA 
HETATM   31  C   UNL     1      -8.523   2.998  70.711  1.00  0.00    -0.098 C  
HETATM   32  C   UNL     1      -9.386   3.035  71.741  1.00  0.00    -0.196 C  
HETATM   33  H   UNL     1      -7.014   3.033  72.803  1.00  0.00     0.000 HD 
ENDBRANCH  17  22
ENDBRANCH   2   7
TORSDOF 3
ENDMDL
MODEL       88
REMARK 921   NORMALIZED FREE ENERGY PREDICTED BY IDOCK:   -4.61 KCAL/MOL
REMARK 922        TOTAL FREE ENERGY PREDICTED BY IDOCK:   -6.69 KCAL/MOL
REMARK 923 INTER-LIGAND FREE ENERGY PREDICTED BY IDOCK:   -5.14 KCAL/MOL
REMARK 924 INTRA-LIGAND FREE ENERGY PREDICTED BY IDOCK:   -1.56 KCAL/MOL
REMARK 927      BINDING AFFINITY PREDICTED BY RF-SCORE:    0.00 PKD
ROOT
HETATM    1  O   UNL     1     -12.435  13.493  70.422  1.00  0.00    -0.321 OA 
HETATM    2  C   UNL     1     -12.407  12.254  69.719  1.00  0.00    -0.016 C  
HETATM    3  H   UNL     1     -12.781  14.148  69.827  1.00  0.00     0.000 HD 
ENDROOT
BRANCH   2   4
HETATM    4  C   UNL     1     -11.648  12.460  68.432  1.00  0.00    -0.373 C  
HETATM    5  C   UNL     1     -11.335  11.302  67.519  1.00  0.00    -0.360 C  
HETATM    6  C   UNL     1     -10.232  11.951  68.305  1.00  0.00    -0.207 C  
ENDBRANCH   2   4
BRANCH   2   7
HETATM    7  C   UNL     1     -11.862  11.223  70.655  1.00  0.00    -0.368 C  
HETATM    8  C   UNL     1     -12.067   9.895  70.583  1.00  0.00    -0.343 C  
HETATM    9  C   UNL     1     -11.471   8.878  71.527  1.00  0.00    -0.391 C  
HETATM   10  C   UNL     1     -12.638   8.219  72.294  1.00  0.00    -0.357 C  
HETATM   11  C   UNL     1     -10.525   7.830  70.833  1.00  0.00    -0.214 C  
HETATM   12  C   UNL     1     -11.312   6.956  69.840  1.00  0.00    -0.321 C  
HETATM   13  C   UNL     1     -10.947   7.405  68.441  1.00  0.00     0.020 C  
HETATM   14  C   UNL     1      -9.866   8.488  68.552  1.00  0.00    -0.186 C  
HETATM   15  C   UNL     1      -8.914   8.398  67.363  1.00  0.00    -0.143 C  
HETATM   16  C   UNL     1      -7.446   8.493  67.683  1.00  0.00    -0.094 C  
HETATM   17  C   UNL     1      -9.402   8.274  66.106  1.00  0.00    -0.254 C  
HETATM   18  C   UNL     1      -7.014   7.697  68.923  1.00  0.00    -0.070 C  
HETATM   19  C   UNL     1      -8.674   9.661  70.563  1.00  0.00    -0.158 C  
HETATM   20  C   UNL     1      -9.282   8.357  69.992  1.00  0.00    -0.158 C  
HETATM   21  C   UNL     1      -8.116   7.332  69.937  1.00  0.00    -0.127 C  
BRANCH  17  22
HETATM   22  C   UNL     1      -8.662   8.571  64.900  1.00  0.00    -0.090 C  
HETATM   23  C   UNL     1      -7.802   7.818  64.187  1.00  0.00    -0.133 C  
HETATM   24  C   UNL     1      -7.345   8.354  62.839  1.00  0.00    -0.100 C  
HETATM   25  C   UNL     1      -5.824   8.405  62.720  1.00  0.00    -0.075 C  
HETATM   26  C   UNL     1      -5.215   7.035  63.011  1.00  0.00    -0.032 C  
HETATM   27  O   UNL     1      -5.274   9.389  63.589  1.00  0.00    -0.063 OA 
HETATM   28  C   UNL     1      -5.658   6.505  64.378  1.00  0.00    -0.030 C  
HETATM   29  H   UNL     1      -4.327   9.422  63.515  1.00  0.00     0.000 HD 
HETATM   30  O   UNL     1      -5.133   5.182  64.525  1.00  0.00    -0.009 OA 
HETATM   31  C   UNL     1      -7.181   6.533  64.543  1.00  0.00    -0.064 C  
HETATM   32  C   UNL     1      -7.893   5.455  64.910  1.00  0.00    -0.102 C  
HETATM   33  H   UNL     1      -5.408   4.854  65.373  1.00  0.00     0.000 HD 
ENDBRANCH  17  22
ENDBRANCH   2   7
TORSDOF 3
ENDMDL
MODEL       89
REMARK 921   NORMALIZED FREE ENERGY PREDICTED BY IDOCK:   -4.57 KCAL/MOL
REMARK 922        TOTAL FREE ENERGY PREDICTED BY IDOCK:   -6.65 KCAL/MOL
REMARK 923 INTER-LIGAND FREE ENERGY PREDICTED BY IDOCK:   -5.64 KCAL/MOL
REMARK 924 INTRA-LIGAND FREE ENERGY PREDICTED BY IDOCK:   -1.01 KCAL/MOL
REMARK 927      BINDING AFFINITY PREDICTED BY RF-SCORE:    0.00 PKD
ROOT
HETATM    1  O   UNL     1      -8.593   5.543  67.255  1.00  0.00    -0.110 OA 
HETATM    2  C   UNL     1      -7.497   4.923  66.587  1.00  0.00    -0.087 C  
HETATM    3  H   UNL     1      -9.092   4.855  67.679  1.00  0.00     0.000 HD 
ENDROOT
BRANCH   2   4
HETATM    4  C   UNL     1      -8.045   3.841  65.690  1.00  0.00    -0.093 C  
HETATM    5  C   UNL     1      -9.218   2.996  66.118  1.00  0.00    -0.118 C  
HETATM    6  C   UNL     1      -7.844   2.390  66.055  1.00  0.00    -0.081 C  
ENDBRANCH   2   4
BRANCH   2   7
HETATM    7  C   UNL     1      -6.712   6.007  65.920  1.00  0.00    -0.052 C  
HETATM    8  C   UNL     1      -7.175   6.875  65.002  1.00  0.00    -0.074 C  
HETATM    9  C   UNL     1      -6.361   7.981  64.373  1.00  0.00    -0.057 C  
HETATM   10  C   UNL     1      -6.245   7.669  62.866  1.00  0.00    -0.063 C  
HETATM   11  C   UNL     1      -6.909   9.428  64.660  1.00  0.00    -0.096 C  
HETATM   12  C   UNL     1      -8.299   9.621  64.026  1.00  0.00    -0.171 C  
HETATM   13  C   UNL     1      -9.321   9.598  65.142  1.00  0.00    -0.322 C  
HETATM   14  C   UNL     1      -8.572   9.487  66.476  1.00  0.00    -0.142 C  
HETATM   15  C   UNL     1      -9.330  10.243  67.563  1.00  0.00    -0.164 C  
HETATM   16  C   UNL     1      -8.498  11.118  68.462  1.00  0.00    -0.156 C  
HETATM   17  C   UNL     1     -10.668  10.084  67.700  1.00  0.00    -0.340 C  
HETATM   18  C   UNL     1      -7.421  11.934  67.733  1.00  0.00    -0.121 C  
HETATM   19  C   UNL     1      -6.047   9.279  67.126  1.00  0.00    -0.057 C  
HETATM   20  C   UNL     1      -7.098   9.892  66.170  1.00  0.00    -0.103 C  
HETATM   21  C   UNL     1      -6.986  11.432  66.343  1.00  0.00     0.000 C  
BRANCH  17  22
HETATM   22  C   UNL     1     -11.420  10.411  68.890  1.00  0.00    -0.251 C  
HETATM   23  C   UNL     1     -11.423   9.844  70.113  1.00  0.00    -0.309 C  
HETATM   24  C   UNL     1     -12.183  10.560  71.220  1.00  0.00    -0.472 C  
HETATM   25  C   UNL     1     -13.202   9.653  71.904  1.00  0.00    -0.446 C  
HETATM   26  C   UNL     1     -12.530   8.381  72.420  1.00  0.00    -0.390 C  
HETATM   27  O   UNL     1     -14.273   9.328  71.025  1.00  0.00    -0.422 OA 
HETATM   28  C   UNL     1     -11.783   7.651  71.301  1.00  0.00    -0.284 C  
HETATM   29  H   UNL     1     -14.908   8.764  71.451  1.00  0.00     0.000 HD 
HETATM   30  O   UNL     1     -11.100   6.538  71.886  1.00  0.00    -0.240 OA 
HETATM   31  C   UNL     1     -10.823   8.575  70.547  1.00  0.00    -0.252 C  
HETATM   32  C   UNL     1      -9.524   8.281  70.363  1.00  0.00    -0.172 C  
HETATM   33  H   UNL     1     -10.637   6.084  71.191  1.00  0.00     0.000 HD 
ENDBRANCH  17  22
ENDBRANCH   2   7
TORSDOF 3
ENDMDL
MODEL       90
REMARK 921   NORMALIZED FREE ENERGY PREDICTED BY IDOCK:   -4.49 KCAL/MOL
REMARK 922        TOTAL FREE ENERGY PREDICTED BY IDOCK:   -6.56 KCAL/MOL
REMARK 923 INTER-LIGAND FREE ENERGY PREDICTED BY IDOCK:   -5.51 KCAL/MOL
REMARK 924 INTRA-LIGAND FREE ENERGY PREDICTED BY IDOCK:   -1.04 KCAL/MOL
REMARK 927      BINDING AFFINITY PREDICTED BY RF-SCORE:    0.00 PKD
ROOT
HETATM    1  O   UNL     1     -10.681  10.837  63.001  1.00  0.00    -0.708 OA 
HETATM    2  C   UNL     1      -9.702  10.783  64.035  1.00  0.00    -0.313 C  
HETATM    3  H   UNL     1     -11.362  11.435  63.287  1.00  0.00     0.000 HD 
ENDROOT
BRANCH   2   4
HETATM    4  C   UNL     1     -10.401  10.436  65.326  1.00  0.00    -0.267 C  
HETATM    5  C   UNL     1     -11.046  11.504  66.173  1.00  0.00    -0.302 C  
HETATM    6  C   UNL     1      -9.785  10.838  66.645  1.00  0.00    -0.227 C  
ENDBRANCH   2   4
BRANCH   2   7
HETATM    7  C   UNL     1      -8.630   9.842  63.585  1.00  0.00    -0.203 C  
HETATM    8  C   UNL     1      -7.477   9.584  64.227  1.00  0.00    -0.119 C  
HETATM    9  C   UNL     1      -6.431   8.600  63.761  1.00  0.00    -0.080 C  
HETATM   10  C   UNL     1      -5.153   9.403  63.437  1.00  0.00    -0.065 C  
HETATM   11  C   UNL     1      -6.172   7.412  64.758  1.00  0.00    -0.038 C  
HETATM   12  C   UNL     1      -5.587   7.929  66.085  1.00  0.00    -0.032 C  
HETATM   13  C   UNL     1      -6.680   7.855  67.129  1.00  0.00    -0.068 C  
HETATM   14  C   UNL     1      -7.914   7.207  66.487  1.00  0.00    -0.112 C  
HETATM   15  C   UNL     1      -8.669   6.383  67.526  1.00  0.00    -0.113 C  
HETATM   16  C   UNL     1      -9.119   5.016  67.084  1.00  0.00    -0.115 C  
HETATM   17  C   UNL     1      -8.927   6.899  68.751  1.00  0.00    -0.130 C  
HETATM   18  C   UNL     1      -8.077   4.237  66.269  1.00  0.00    -0.102 C  
HETATM   19  C   UNL     1      -8.458   6.331  64.084  1.00  0.00     0.171 C  
HETATM   20  C   UNL     1      -7.397   6.498  65.198  1.00  0.00    -0.078 C  
HETATM   21  C   UNL     1      -6.963   5.060  65.593  1.00  0.00    -0.063 C  
BRANCH  17  22
HETATM   22  C   UNL     1      -9.941   6.407  69.657  1.00  0.00    -0.193 C  
HETATM   23  C   UNL     1     -10.265   6.789  70.907  1.00  0.00    -0.215 C  
HETATM   24  C   UNL     1     -11.530   6.204  71.518  1.00  0.00    -0.325 C  
HETATM   25  C   UNL     1     -11.269   5.544  72.870  1.00  0.00    -0.305 C  
HETATM   26  C   UNL     1     -10.589   6.524  73.825  1.00  0.00    -0.285 C  
HETATM   27  O   UNL     1     -10.485   4.366  72.724  1.00  0.00    -0.178 OA 
HETATM   28  C   UNL     1      -9.305   7.096  73.218  1.00  0.00    -0.168 C  
HETATM   29  H   UNL     1     -10.323   3.955  73.565  1.00  0.00     0.000 HD 
HETATM   30  O   UNL     1      -8.792   8.076  74.125  1.00  0.00    -0.377 OA 
HETATM   31  C   UNL     1      -9.536   7.681  71.821  1.00  0.00    -0.183 C  
HETATM   32  C   UNL     1      -9.169   8.929  71.485  1.00  0.00    -0.322 C  
HETATM   33  H   UNL     1      -7.995   8.431  73.748  1.00  0.00     0.000 HD 
ENDBRANCH  17  22
ENDBRANCH   2   7
TORSDOF 3
ENDMDL
MODEL       91
REMARK 921   NORMALIZED FREE ENERGY PREDICTED BY IDOCK:   -4.34 KCAL/MOL
REMARK 922        TOTAL FREE ENERGY PREDICTED BY IDOCK:   -6.38 KCAL/MOL
REMARK 923 INTER-LIGAND FREE ENERGY PREDICTED BY IDOCK:   -5.60 KCAL/MOL
REMARK 924 INTRA-LIGAND FREE ENERGY PREDICTED BY IDOCK:   -0.78 KCAL/MOL
REMARK 927      BINDING AFFINITY PREDICTED BY RF-SCORE:    0.00 PKD
ROOT
HETATM    1  O   UNL     1      -9.314  12.124  65.552  1.00  0.00    -0.416 OA 
HETATM    2  C   UNL     1     -10.377  12.774  66.243  1.00  0.00    -0.258 C  
HETATM    3  H   UNL     1      -9.390  12.354  64.634  1.00  0.00     0.000 HD 
ENDROOT
BRANCH   2   4
HETATM    4  C   UNL     1     -11.673  12.405  65.565  1.00  0.00    -0.459 C  
HETATM    5  C   UNL     1     -11.921  12.756  64.119  1.00  0.00    -0.499 C  
HETATM    6  C   UNL     1     -12.664  13.485  65.203  1.00  0.00    -0.453 C  
ENDBRANCH   2   4
BRANCH   2   7
HETATM    7  C   UNL     1     -10.256  12.411  67.689  1.00  0.00    -0.210 C  
HETATM    8  C   UNL     1     -10.908  11.416  68.317  1.00  0.00    -0.253 C  
HETATM    9  C   UNL     1     -10.735  11.054  69.773  1.00  0.00    -0.135 C  
HETATM   10  C   UNL     1     -12.083  11.319  70.478  1.00  0.00    -0.481 C  
HETATM   11  C   UNL     1     -10.190   9.599  70.017  1.00  0.00    -0.296 C  
HETATM   12  C   UNL     1     -11.200   8.548  69.520  1.00  0.00     0.139 C  
HETATM   13  C   UNL     1     -10.654   7.956  68.239  1.00  0.00    -0.163 C  
HETATM   14  C   UNL     1      -9.268   8.561  67.981  1.00  0.00    -0.143 C  
HETATM   15  C   UNL     1      -8.369   7.533  67.302  1.00  0.00    -0.118 C  
HETATM   16  C   UNL     1      -6.971   7.415  67.848  1.00  0.00    -0.072 C  
HETATM   17  C   UNL     1      -8.828   6.814  66.250  1.00  0.00    -0.158 C  
HETATM   18  C   UNL     1      -6.885   7.441  69.381  1.00  0.00    -0.053 C  
HETATM   19  C   UNL     1      -7.811  10.344  69.222  1.00  0.00    -0.147 C  
HETATM   20  C   UNL     1      -8.814   9.172  69.343  1.00  0.00    -0.146 C  
HETATM   21  C   UNL     1      -8.077   8.059  70.137  1.00  0.00    -0.114 C  
BRANCH  17  22
HETATM   22  C   UNL     1      -7.991   6.125  65.294  1.00  0.00    -0.115 C  
HETATM   23  C   UNL     1      -8.179   4.966  64.633  1.00  0.00    -0.124 C  
HETATM   24  C   UNL     1      -7.192   4.615  63.529  1.00  0.00    -0.049 C  
HETATM   25  C   UNL     1      -6.572   3.234  63.725  1.00  0.00    -0.031 C  
HETATM   26  C   UNL     1      -7.659   2.169  63.861  1.00  0.00    -0.060 C  
HETATM   27  O   UNL     1      -5.710   3.213  64.857  1.00  0.00    -0.013 OA 
HETATM   28  C   UNL     1      -8.640   2.513  64.985  1.00  0.00    -0.102 C  
HETATM   29  H   UNL     1      -5.323   2.354  64.978  1.00  0.00     0.000 HD 
HETATM   30  O   UNL     1      -9.678   1.528  64.976  1.00  0.00    -0.327 OA 
HETATM   31  C   UNL     1      -9.201   3.931  64.850  1.00  0.00    -0.149 C  
HETATM   32  C   UNL     1     -10.519   4.197  64.856  1.00  0.00    -0.193 C  
HETATM   33  H   UNL     1     -10.286   1.741  65.674  1.00  0.00     0.000 HD 
ENDBRANCH  17  22
ENDBRANCH   2   7
TORSDOF 3
ENDMDL
MODEL       92
REMARK 921   NORMALIZED FREE ENERGY PREDICTED BY IDOCK:   -4.32 KCAL/MOL
REMARK 922        TOTAL FREE ENERGY PREDICTED BY IDOCK:   -6.36 KCAL/MOL
REMARK 923 INTER-LIGAND FREE ENERGY PREDICTED BY IDOCK:   -5.32 KCAL/MOL
REMARK 924 INTRA-LIGAND FREE ENERGY PREDICTED BY IDOCK:   -1.04 KCAL/MOL
REMARK 927      BINDING AFFINITY PREDICTED BY RF-SCORE:    0.00 PKD
ROOT
HETATM    1  O   UNL     1     -13.887  13.229  71.531  1.00  0.00    -0.104 OA 
HETATM    2  C   UNL     1     -12.655  13.743  71.031  1.00  0.00    -0.371 C  
HETATM    3  H   UNL     1     -14.425  13.972  71.776  1.00  0.00     0.000 HD 
ENDROOT
BRANCH   2   4
HETATM    4  C   UNL     1     -12.080  14.677  72.067  1.00  0.00    -0.346 C  
HETATM    5  C   UNL     1     -12.770  14.887  73.392  1.00  0.00    -0.636 C  
HETATM    6  C   UNL     1     -12.772  15.985  72.366  1.00  0.00    -0.496 C  
ENDBRANCH   2   4
BRANCH   2   7
HETATM    7  C   UNL     1     -11.807  12.573  70.646  1.00  0.00    -0.018 C  
HETATM    8  C   UNL     1     -11.765  11.985  69.437  1.00  0.00    -0.402 C  
HETATM    9  C   UNL     1     -10.869  10.825  69.072  1.00  0.00    -0.278 C  
HETATM   10  C   UNL     1     -11.781   9.621  68.751  1.00  0.00     0.553 C  
HETATM   11  C   UNL     1      -9.841  11.140  67.925  1.00  0.00    -0.187 C  
HETATM   12  C   UNL     1     -10.571  11.437  66.603  1.00  0.00    -0.302 C  
HETATM   13  C   UNL     1     -10.483  12.927  66.353  1.00  0.00    -0.278 C  
HETATM   14  C   UNL     1      -9.622  13.549  67.460  1.00  0.00    -0.221 C  
HETATM   15  C   UNL     1      -8.834  14.731  66.904  1.00  0.00    -0.274 C  
HETATM   16  C   UNL     1      -7.381  14.799  67.294  1.00  0.00    -0.147 C  
HETATM   17  C   UNL     1      -9.449  15.661  66.136  1.00  0.00    -0.376 C  
HETATM   18  C   UNL     1      -6.648  13.450  67.248  1.00  0.00     0.136 C  
HETATM   19  C   UNL     1      -8.422  12.591  69.577  1.00  0.00     1.474 C  
HETATM   20  C   UNL     1      -8.840  12.363  68.104  1.00  0.00    -0.191 C  
HETATM   21  C   UNL     1      -7.519  12.181  67.308  1.00  0.00    -0.152 C  
BRANCH  17  22
HETATM   22  C   UNL     1      -8.942  16.992  65.886  1.00  0.00    -0.049 C  
HETATM   23  C   UNL     1      -8.834  18.059  66.701  1.00  0.00    -0.280 C  
HETATM   24  C   UNL     1      -8.058  19.263  66.187  1.00  0.00    -0.294 C  
HETATM   25  C   UNL     1      -8.871  20.554  66.266  1.00  0.00     0.105 C  
HETATM   26  C   UNL     1      -9.379  20.783  67.688  1.00  0.00    -0.312 C  
HETATM   27  O   UNL     1      -9.956  20.534  65.346  1.00  0.00    -0.467 OA 
HETATM   28  C   UNL     1     -10.178  19.579  68.197  1.00  0.00    -0.444 C  
HETATM   29  H   UNL     1     -10.462  21.337  65.395  1.00  0.00     0.000 HD 
HETATM   30  O   UNL     1     -10.524  19.831  69.563  1.00  0.00    -0.575 OA 
HETATM   31  C   UNL     1      -9.407  18.265  68.039  1.00  0.00    -0.293 C  
HETATM   32  C   UNL     1      -9.210  17.410  69.057  1.00  0.00    -0.093 C  
HETATM   33  H   UNL     1     -11.020  19.084  69.878  1.00  0.00     0.000 HD 
ENDBRANCH  17  22
ENDBRANCH   2   7
TORSDOF 3
ENDMDL
MODEL       93
REMARK 921   NORMALIZED FREE ENERGY PREDICTED BY IDOCK:   -4.30 KCAL/MOL
REMARK 922        TOTAL FREE ENERGY PREDICTED BY IDOCK:   -6.34 KCAL/MOL
REMARK 923 INTER-LIGAND FREE ENERGY PREDICTED BY IDOCK:   -4.88 KCAL/MOL
REMARK 924 INTRA-LIGAND FREE ENERGY PREDICTED BY IDOCK:   -1.45 KCAL/MOL
REMARK 927      BINDING AFFINITY PREDICTED BY RF-SCORE:    0.00 PKD
ROOT
HETATM    1  O   UNL     1     -10.322   6.839  68.969  1.00  0.00    -0.176 OA 
HETATM    2  C   UNL     1      -9.935   8.126  68.494  1.00  0.00    -0.190 C  
HETATM    3  H   UNL     1     -11.254   6.748  68.812  1.00  0.00     0.000 HD 
ENDROOT
BRANCH   2   4
HETATM    4  C   UNL     1     -10.829   9.155  69.141  1.00  0.00    -0.131 C  
HETATM    5  C   UNL     1     -10.315  10.533  69.472  1.00  0.00    -0.251 C  
HETATM    6  C   UNL     1     -10.595   9.555  70.578  1.00  0.00    -0.358 C  
ENDBRANCH   2   4
BRANCH   2   7
HETATM    7  C   UNL     1      -8.468   8.270  68.741  1.00  0.00    -0.125 C  
HETATM    8  C   UNL     1      -7.544   8.657  67.843  1.00  0.00    -0.098 C  
HETATM    9  C   UNL     1      -6.072   8.826  68.138  1.00  0.00    -0.051 C  
HETATM   10  C   UNL     1      -5.310   7.782  67.293  1.00  0.00    -0.031 C  
HETATM   11  C   UNL     1      -5.536  10.290  67.933  1.00  0.00    -0.041 C  
HETATM   12  C   UNL     1      -5.640  10.708  66.455  1.00  0.00    -0.080 C  
HETATM   13  C   UNL     1      -6.787  11.688  66.333  1.00  0.00     0.135 C  
HETATM   14  C   UNL     1      -7.339  11.958  67.739  1.00  0.00    -0.109 C  
HETATM   15  C   UNL     1      -7.838  13.397  67.836  1.00  0.00    -0.152 C  
HETATM   16  C   UNL     1      -7.438  14.153  69.075  1.00  0.00    -0.082 C  
HETATM   17  C   UNL     1      -8.619  13.916  66.859  1.00  0.00    -0.138 C  
HETATM   18  C   UNL     1      -5.979  13.940  69.505  1.00  0.00    -0.105 C  
HETATM   19  C   UNL     1      -6.750  11.054  70.122  1.00  0.00    -0.031 C  
HETATM   20  C   UNL     1      -6.232  11.480  68.727  1.00  0.00    -0.051 C  
HETATM   21  C   UNL     1      -5.273  12.676  68.976  1.00  0.00    -0.067 C  
BRANCH  17  22
HETATM   22  C   UNL     1      -9.461  15.081  67.008  1.00  0.00    -0.240 C  
HETATM   23  C   UNL     1      -9.151  16.392  67.051  1.00  0.00    -0.232 C  
HETATM   24  C   UNL     1     -10.298  17.390  67.008  1.00  0.00    -0.318 C  
HETATM   25  C   UNL     1     -10.253  18.375  68.174  1.00  0.00    -0.384 C  
HETATM   26  C   UNL     1      -8.899  19.081  68.230  1.00  0.00    -0.370 C  
HETATM   27  O   UNL     1     -10.526  17.722  69.409  1.00  0.00    -0.402 OA 
HETATM   28  C   UNL     1      -7.747  18.076  68.295  1.00  0.00    -0.282 C  
HETATM   29  H   UNL     1     -10.498  18.335  70.134  1.00  0.00     0.000 HD 
HETATM   30  O   UNL     1      -6.521  18.812  68.238  1.00  0.00    -0.215 OA 
HETATM   31  C   UNL     1      -7.831  17.027  67.182  1.00  0.00    -0.203 C  
HETATM   32  C   UNL     1      -6.809  16.764  66.350  1.00  0.00    -0.105 C  
HETATM   33  H   UNL     1      -5.805  18.188  68.278  1.00  0.00     0.000 HD 
ENDBRANCH  17  22
ENDBRANCH   2   7
TORSDOF 3
ENDMDL
MODEL       94
REMARK 921   NORMALIZED FREE ENERGY PREDICTED BY IDOCK:   -4.30 KCAL/MOL
REMARK 922        TOTAL FREE ENERGY PREDICTED BY IDOCK:   -6.33 KCAL/MOL
REMARK 923 INTER-LIGAND FREE ENERGY PREDICTED BY IDOCK:   -5.41 KCAL/MOL
REMARK 924 INTRA-LIGAND FREE ENERGY PREDICTED BY IDOCK:   -0.92 KCAL/MOL
REMARK 927      BINDING AFFINITY PREDICTED BY RF-SCORE:    0.00 PKD
ROOT
HETATM    1  O   UNL     1     -12.259  12.651  67.178  1.00  0.00    -0.445 OA 
HETATM    2  C   UNL     1     -11.714  12.125  65.971  1.00  0.00    -0.321 C  
HETATM    3  H   UNL     1     -13.192  12.471  67.170  1.00  0.00     0.000 HD 
ENDROOT
BRANCH   2   4
HETATM    4  C   UNL     1     -12.498  12.693  64.814  1.00  0.00    -0.555 C  
HETATM    5  C   UNL     1     -12.611  11.946  63.509  1.00  0.00    -0.579 C  
HETATM    6  C   UNL     1     -11.772  13.189  63.587  1.00  0.00    -0.505 C  
ENDBRANCH   2   4
BRANCH   2   7
HETATM    7  C   UNL     1     -10.246  12.409  65.984  1.00  0.00    -0.267 C  
HETATM    8  C   UNL     1      -9.454  12.456  67.070  1.00  0.00    -0.211 C  
HETATM    9  C   UNL     1      -7.966  12.712  67.043  1.00  0.00    -0.063 C  
HETATM   10  C   UNL     1      -7.714  14.048  67.775  1.00  0.00    -0.178 C  
HETATM   11  C   UNL     1      -7.098  11.529  67.609  1.00  0.00    -0.098 C  
HETATM   12  C   UNL     1      -7.380  11.311  69.106  1.00  0.00    -0.104 C  
HETATM   13  C   UNL     1      -8.209  10.051  69.239  1.00  0.00    -0.147 C  
HETATM   14  C   UNL     1      -8.365   9.430  67.845  1.00  0.00    -0.115 C  
HETATM   15  C   UNL     1      -8.412   7.908  67.955  1.00  0.00    -0.126 C  
HETATM   16  C   UNL     1      -7.574   7.148  66.962  1.00  0.00    -0.099 C  
HETATM   17  C   UNL     1      -9.201   7.315  68.882  1.00  0.00    -0.141 C  
HETATM   18  C   UNL     1      -6.176   7.739  66.728  1.00  0.00    -0.049 C  
HETATM   19  C   UNL     1      -7.577  10.129  65.450  1.00  0.00    -0.144 C  
HETATM   20  C   UNL     1      -7.257  10.083  66.964  1.00  0.00    -0.090 C  
HETATM   21  C   UNL     1      -5.973   9.220  67.102  1.00  0.00    -0.049 C  
BRANCH  17  22
HETATM   22  C   UNL     1      -9.636   5.938  68.835  1.00  0.00    -0.158 C  
HETATM   23  C   UNL     1      -8.967   4.795  69.083  1.00  0.00    -0.133 C  
HETATM   24  C   UNL     1      -9.773   3.506  69.149  1.00  0.00    -0.033 C  
HETATM   25  C   UNL     1      -9.231   2.434  68.206  1.00  0.00    -0.203 C  
HETATM   26  C   UNL     1      -7.749   2.180  68.476  1.00  0.00    -0.053 C  
HETATM   27  O   UNL     1      -9.434   2.796  66.845  1.00  0.00    -0.372 OA 
HETATM   28  C   UNL     1      -6.935   3.474  68.389  1.00  0.00    -0.050 C  
HETATM   29  H   UNL     1      -9.097   2.129  66.258  1.00  0.00     0.000 HD 
HETATM   30  O   UNL     1      -5.586   3.168  68.756  1.00  0.00    -0.019 OA 
HETATM   31  C   UNL     1      -7.523   4.587  69.262  1.00  0.00    -0.055 C  
HETATM   32  C   UNL     1      -6.795   5.264  70.167  1.00  0.00    -0.048 C  
HETATM   33  H   UNL     1      -5.081   3.971  68.701  1.00  0.00     0.000 HD 
ENDBRANCH  17  22
ENDBRANCH   2   7
TORSDOF 3
ENDMDL
MODEL       95
REMARK 921   NORMALIZED FREE ENERGY PREDICTED BY IDOCK:   -4.29 KCAL/MOL
REMARK 922        TOTAL FREE ENERGY PREDICTED BY IDOCK:   -6.33 KCAL/MOL
REMARK 923 INTER-LIGAND FREE ENERGY PREDICTED BY IDOCK:   -5.48 KCAL/MOL
REMARK 924 INTRA-LIGAND FREE ENERGY PREDICTED BY IDOCK:   -0.84 KCAL/MOL
REMARK 927      BINDING AFFINITY PREDICTED BY RF-SCORE:    0.00 PKD
ROOT
HETATM    1  O   UNL     1      -5.886   9.599  69.216  1.00  0.00    -0.035 OA 
HETATM    2  C   UNL     1      -6.632   8.650  69.973  1.00  0.00    -0.038 C  
HETATM    3  H   UNL     1      -5.092   9.788  69.702  1.00  0.00     0.000 HD 
ENDROOT
BRANCH   2   4
HETATM    4  C   UNL     1      -6.813   9.197  71.367  1.00  0.00    -0.041 C  
HETATM    5  C   UNL     1      -5.853   8.838  72.473  1.00  0.00    -0.076 C  
HETATM    6  C   UNL     1      -7.247   8.279  72.484  1.00  0.00    -0.130 C  
ENDBRANCH   2   4
BRANCH   2   7
HETATM    7  C   UNL     1      -7.883   8.354  69.207  1.00  0.00    -0.104 C  
HETATM    8  C   UNL     1      -9.115   8.818  69.486  1.00  0.00    -0.146 C  
HETATM    9  C   UNL     1     -10.351   8.527  68.669  1.00  0.00    -0.224 C  
HETATM   10  C   UNL     1     -11.314   7.715  69.563  1.00  0.00     0.173 C  
HETATM   11  C   UNL     1     -11.025   9.802  68.041  1.00  0.00    -0.236 C  
HETATM   12  C   UNL     1     -11.554  10.738  69.142  1.00  0.00    -0.376 C  
HETATM   13  C   UNL     1     -10.625  11.931  69.217  1.00  0.00    -0.021 C  
HETATM   14  C   UNL     1      -9.574  11.791  68.109  1.00  0.00    -0.193 C  
HETATM   15  C   UNL     1      -9.180  13.170  67.588  1.00  0.00    -0.207 C  
HETATM   16  C   UNL     1      -9.099  13.313  66.091  1.00  0.00     0.101 C  
HETATM   17  C   UNL     1      -8.896  14.172  68.454  1.00  0.00    -0.187 C  
HETATM   18  C   UNL     1     -10.243  12.631  65.326  1.00  0.00    -0.302 C  
HETATM   19  C   UNL     1      -9.089   9.976  66.289  1.00  0.00    -0.180 C  
HETATM   20  C   UNL     1     -10.153  10.748  67.105  1.00  0.00    -0.243 C  
HETATM   21  C   UNL     1     -11.012  11.519  66.066  1.00  0.00    -0.316 C  
BRANCH  17  22
HETATM   22  C   UNL     1      -8.149  15.364  68.120  1.00  0.00    -0.136 C  
HETATM   23  C   UNL     1      -8.482  16.666  68.212  1.00  0.00    -0.203 C  
HETATM   24  C   UNL     1      -7.386  17.693  67.973  1.00  0.00    -0.214 C  
HETATM   25  C   UNL     1      -7.768  18.711  66.900  1.00  0.00    -0.230 C  
HETATM   26  C   UNL     1      -9.097  19.382  67.245  1.00  0.00    -0.356 C  
HETATM   27  O   UNL     1      -7.836  18.102  65.616  1.00  0.00    -0.520 OA 
HETATM   28  C   UNL     1     -10.205  18.348  67.464  1.00  0.00    -0.374 C  
HETATM   29  H   UNL     1      -8.073  18.735  64.948  1.00  0.00     0.000 HD 
HETATM   30  O   UNL     1     -11.380  19.049  67.883  1.00  0.00    -0.122 OA 
HETATM   31  C   UNL     1      -9.798  17.269  68.473  1.00  0.00    -0.307 C  
HETATM   32  C   UNL     1     -10.546  16.954  69.544  1.00  0.00    -0.239 C  
HETATM   33  H   UNL     1     -12.068  18.408  68.019  1.00  0.00     0.000 HD 
ENDBRANCH  17  22
ENDBRANCH   2   7
TORSDOF 3
ENDMDL
MODEL       96
REMARK 921   NORMALIZED FREE ENERGY PREDICTED BY IDOCK:   -4.24 KCAL/MOL
REMARK 922        TOTAL FREE ENERGY PREDICTED BY IDOCK:   -6.26 KCAL/MOL
REMARK 923 INTER-LIGAND FREE ENERGY PREDICTED BY IDOCK:   -5.00 KCAL/MOL
REMARK 924 INTRA-LIGAND FREE ENERGY PREDICTED BY IDOCK:   -1.26 KCAL/MOL
REMARK 927      BINDING AFFINITY PREDICTED BY RF-SCORE:    0.00 PKD
ROOT
HETATM    1  O   UNL     1     -12.034  13.554  62.751  1.00  0.00    -0.705 OA 
HETATM    2  C   UNL     1     -11.631  12.801  63.892  1.00  0.00    -0.452 C  
HETATM    3  H   UNL     1     -12.588  12.992  62.222  1.00  0.00     0.000 HD 
ENDROOT
BRANCH   2   4
HETATM    4  C   UNL     1     -11.015  11.510  63.410  1.00  0.00    -0.397 C  
HETATM    5  C   UNL     1     -10.784  10.359  64.356  1.00  0.00     0.511 C  
HETATM    6  C   UNL     1      -9.614  11.143  63.834  1.00  0.00    -0.286 C  
ENDBRANCH   2   4
BRANCH   2   7
HETATM    7  C   UNL     1     -10.757  13.685  64.723  1.00  0.00    -0.420 C  
HETATM    8  C   UNL     1     -11.001  14.086  65.985  1.00  0.00    -0.298 C  
HETATM    9  C   UNL     1     -10.078  14.952  66.808  1.00  0.00    -0.254 C  
HETATM   10  C   UNL     1     -10.815  16.281  67.083  1.00  0.00    -0.190 C  
HETATM   11  C   UNL     1      -9.545  14.264  68.118  1.00  0.00    -0.218 C  
HETATM   12  C   UNL     1     -10.701  13.972  69.092  1.00  0.00    -0.198 C  
HETATM   13  C   UNL     1     -10.964  12.482  69.062  1.00  0.00    -0.237 C  
HETATM   14  C   UNL     1      -9.918  11.829  68.148  1.00  0.00    -0.196 C  
HETATM   15  C   UNL     1      -9.573  10.435  68.665  1.00  0.00    -0.166 C  
HETATM   16  C   UNL     1      -8.109  10.088  68.701  1.00  0.00    -0.102 C  
HETATM   17  C   UNL     1     -10.557   9.579  69.029  1.00  0.00    -0.238 C  
HETATM   18  C   UNL     1      -7.202  11.215  69.216  1.00  0.00    -0.112 C  
HETATM   19  C   UNL     1      -7.953  12.754  66.691  1.00  0.00     0.297 C  
HETATM   20  C   UNL     1      -8.774  12.877  67.997  1.00  0.00    -0.191 C  
HETATM   21  C   UNL     1      -7.767  12.648  69.158  1.00  0.00     0.316 C  
BRANCH  17  22
HETATM   22  C   UNL     1     -10.401   8.147  69.149  1.00  0.00    -0.228 C  
HETATM   23  C   UNL     1      -9.732   7.407  70.054  1.00  0.00    -0.175 C  
HETATM   24  C   UNL     1      -9.937   5.899  70.023  1.00  0.00    -0.239 C  
HETATM   25  C   UNL     1      -8.618   5.137  69.920  1.00  0.00    -0.100 C  
HETATM   26  C   UNL     1      -7.669   5.549  71.045  1.00  0.00    -0.103 C  
HETATM   27  O   UNL     1      -8.005   5.340  68.652  1.00  0.00    -0.086 OA 
HETATM   28  C   UNL     1      -7.447   7.064  71.062  1.00  0.00    -0.081 C  
HETATM   29  H   UNL     1      -7.184   4.865  68.588  1.00  0.00     0.000 HD 
HETATM   30  O   UNL     1      -6.638   7.374  72.201  1.00  0.00    -0.050 OA 
HETATM   31  C   UNL     1      -8.766   7.842  71.074  1.00  0.00    -0.138 C  
HETATM   32  C   UNL     1      -9.045   8.790  71.985  1.00  0.00    -0.259 C  
HETATM   33  H   UNL     1      -6.500   8.314  72.211  1.00  0.00     0.000 HD 
ENDBRANCH  17  22
ENDBRANCH   2   7
TORSDOF 3
ENDMDL
MODEL       97
REMARK 921   NORMALIZED FREE ENERGY PREDICTED BY IDOCK:   -4.20 KCAL/MOL
REMARK 922        TOTAL FREE ENERGY PREDICTED BY IDOCK:   -6.22 KCAL/MOL
REMARK 923 INTER-LIGAND FREE ENERGY PREDICTED BY IDOCK:   -5.16 KCAL/MOL
REMARK 924 INTRA-LIGAND FREE ENERGY PREDICTED BY IDOCK:   -1.06 KCAL/MOL
REMARK 927      BINDING AFFINITY PREDICTED BY RF-SCORE:    0.00 PKD
ROOT
HETATM    1  O   UNL     1     -11.144   9.030  67.883  1.00  0.00    -0.506 OA 
HETATM    2  C   UNL     1     -10.882  10.265  67.221  1.00  0.00    -0.250 C  
HETATM    3  H   UNL     1     -11.860   9.180  68.488  1.00  0.00     0.000 HD 
ENDROOT
BRANCH   2   4
HETATM    4  C   UNL     1     -10.661  11.324  68.273  1.00  0.00    -0.228 C  
HETATM    5  C   UNL     1     -11.758  11.706  69.234  1.00  0.00    -0.396 C  
HETATM    6  C   UNL     1     -11.350  12.661  68.148  1.00  0.00    -0.334 C  
ENDBRANCH   2   4
BRANCH   2   7
HETATM    7  C   UNL     1      -9.754  10.029  66.268  1.00  0.00    -0.272 C  
HETATM    8  C   UNL     1      -8.443  10.031  66.570  1.00  0.00    -0.128 C  
HETATM    9  C   UNL     1      -7.331   9.753  65.587  1.00  0.00    -0.106 C  
HETATM   10  C   UNL     1      -6.495  11.045  65.458  1.00  0.00     0.168 C  
HETATM   11  C   UNL     1      -6.459   8.492  65.938  1.00  0.00    -0.053 C  
HETATM   12  C   UNL     1      -5.702   8.702  67.262  1.00  0.00    -0.039 C  
HETATM   13  C   UNL     1      -6.379   7.857  68.319  1.00  0.00    -0.050 C  
HETATM   14  C   UNL     1      -7.495   7.048  67.645  1.00  0.00    -0.098 C  
HETATM   15  C   UNL     1      -7.644   5.693  68.330  1.00  0.00    -0.081 C  
HETATM   16  C   UNL     1      -7.775   4.503  67.419  1.00  0.00    -0.089 C  
HETATM   17  C   UNL     1      -7.684   5.613  69.682  1.00  0.00    -0.083 C  
HETATM   18  C   UNL     1      -6.826   4.519  66.212  1.00  0.00    -0.058 C  
HETATM   19  C   UNL     1      -8.416   6.918  65.200  1.00  0.00    -0.029 C  
HETATM   20  C   UNL     1      -7.181   7.085  66.118  1.00  0.00    -0.074 C  
HETATM   21  C   UNL     1      -6.247   5.886  65.799  1.00  0.00    -0.037 C  
BRANCH  17  22
HETATM   22  C   UNL     1      -8.204   4.488  70.426  1.00  0.00    -0.072 C  
HETATM   23  C   UNL     1      -9.384   4.318  71.054  1.00  0.00    -0.221 C  
HETATM   24  C   UNL     1      -9.713   2.927  71.574  1.00  0.00    -0.224 C  
HETATM   25  C   UNL     1     -10.071   2.932  73.058  1.00  0.00    -0.136 C  
HETATM   26  C   UNL     1     -11.208   3.914  73.333  1.00  0.00    -0.297 C  
HETATM   27  O   UNL     1      -8.937   3.246  73.859  1.00  0.00    -0.083 OA 
HETATM   28  C   UNL     1     -10.868   5.319  72.828  1.00  0.00    -0.261 C  
HETATM   29  H   UNL     1      -9.160   3.249  74.783  1.00  0.00     0.000 HD 
HETATM   30  O   UNL     1     -12.019   6.146  73.028  1.00  0.00    -0.448 OA 
HETATM   31  C   UNL     1     -10.420   5.315  71.364  1.00  0.00    -0.273 C  
HETATM   32  C   UNL     1     -10.978   6.103  70.429  1.00  0.00    -0.404 C  
HETATM   33  H   UNL     1     -11.808   7.018  72.715  1.00  0.00     0.000 HD 
ENDBRANCH  17  22
ENDBRANCH   2   7
TORSDOF 3
ENDMDL
MODEL       98
REMARK 921   NORMALIZED FREE ENERGY PREDICTED BY IDOCK:   -4.16 KCAL/MOL
REMARK 922        TOTAL FREE ENERGY PREDICTED BY IDOCK:   -6.17 KCAL/MOL
REMARK 923 INTER-LIGAND FREE ENERGY PREDICTED BY IDOCK:   -4.72 KCAL/MOL
REMARK 924 INTRA-LIGAND FREE ENERGY PREDICTED BY IDOCK:   -1.45 KCAL/MOL
REMARK 927      BINDING AFFINITY PREDICTED BY RF-SCORE:    0.00 PKD
ROOT
HETATM    1  O   UNL     1     -10.428  19.397  67.040  1.00  0.00    -0.402 OA 
HETATM    2  C   UNL     1     -10.891  18.051  66.960  1.00  0.00    -0.118 C  
HETATM    3  H   UNL     1     -10.636  19.817  66.213  1.00  0.00     0.000 HD 
ENDROOT
BRANCH   2   4
HETATM    4  C   UNL     1     -10.302  17.423  65.722  1.00  0.00    -0.226 C  
HETATM    5  C   UNL     1     -10.796  16.091  65.215  1.00  0.00    -0.376 C  
HETATM    6  C   UNL     1      -9.435  16.194  65.843  1.00  0.00    -0.337 C  
ENDBRANCH   2   4
BRANCH   2   7
HETATM    7  C   UNL     1     -10.564  17.390  68.261  1.00  0.00    -0.366 C  
HETATM    8  C   UNL     1     -11.226  16.359  68.819  1.00  0.00    -0.313 C  
HETATM    9  C   UNL     1     -10.846  15.693  70.119  1.00  0.00    -0.356 C  
HETATM   10  C   UNL     1     -11.995  15.943  71.119  1.00  0.00    -0.472 C  
HETATM   11  C   UNL     1     -10.475  14.171  69.980  1.00  0.00     0.536 C  
HETATM   12  C   UNL     1     -11.694  13.351  69.518  1.00  0.00    -0.385 C  
HETATM   13  C   UNL     1     -11.476  12.981  68.067  1.00  0.00    -0.348 C  
HETATM   14  C   UNL     1     -10.088  13.482  67.646  1.00  0.00    -0.229 C  
HETATM   15  C   UNL     1      -9.478  12.528  66.624  1.00  0.00    -0.242 C  
HETATM   16  C   UNL     1      -8.035  12.159  66.844  1.00  0.00    -0.089 C  
HETATM   17  C   UNL     1     -10.214  12.089  65.575  1.00  0.00    -0.290 C  
HETATM   18  C   UNL     1      -7.672  11.863  68.306  1.00  0.00    -0.127 C  
HETATM   19  C   UNL     1      -8.196  14.815  68.866  1.00  0.00    -0.165 C  
HETATM   20  C   UNL     1      -9.316  13.752  68.974  1.00  0.00     0.228 C  
HETATM   21  C   UNL     1      -8.611  12.431  69.387  1.00  0.00     1.166 C  
BRANCH  17  22
HETATM   22  C   UNL     1      -9.667  11.528  64.360  1.00  0.00    -0.229 C  
HETATM   23  C   UNL     1      -9.087  10.335  64.125  1.00  0.00    -0.284 C  
HETATM   24  C   UNL     1      -8.802   9.963  62.677  1.00  0.00    -0.246 C  
HETATM   25  C   UNL     1      -7.340   9.583  62.454  1.00  0.00    -0.101 C  
HETATM   26  C   UNL     1      -6.922   8.467  63.410  1.00  0.00    -0.089 C  
HETATM   27  O   UNL     1      -6.487  10.712  62.603  1.00  0.00    -0.223 OA 
HETATM   28  C   UNL     1      -7.190   8.851  64.868  1.00  0.00    -0.091 C  
HETATM   29  H   UNL     1      -5.577  10.475  62.463  1.00  0.00     0.000 HD 
HETATM   30  O   UNL     1      -6.872   7.719  65.684  1.00  0.00    -0.052 OA 
HETATM   31  C   UNL     1      -8.631   9.321  65.087  1.00  0.00    -0.194 C  
HETATM   32  C   UNL     1      -9.433   8.798  66.031  1.00  0.00    -0.302 C  
HETATM   33  H   UNL     1      -7.038   7.957  66.589  1.00  0.00     0.000 HD 
ENDBRANCH  17  22
ENDBRANCH   2   7
TORSDOF 3
ENDMDL
MODEL       99
REMARK 921   NORMALIZED FREE ENERGY PREDICTED BY IDOCK:   -4.14 KCAL/MOL
REMARK 922        TOTAL FREE ENERGY PREDICTED BY IDOCK:   -6.15 KCAL/MOL
REMARK 923 INTER-LIGAND FREE ENERGY PREDICTED BY IDOCK:   -5.18 KCAL/MOL
REMARK 924 INTRA-LIGAND FREE ENERGY PREDICTED BY IDOCK:   -0.97 KCAL/MOL
REMARK 927      BINDING AFFINITY PREDICTED BY RF-SCORE:    0.00 PKD
ROOT
HETATM    1  O   UNL     1      -8.277   5.314  66.050  1.00  0.00    -0.111 OA 
HETATM    2  C   UNL     1      -7.194   5.278  65.124  1.00  0.00    -0.067 C  
HETATM    3  H   UNL     1      -8.357   4.445  66.426  1.00  0.00     0.000 HD 
ENDROOT
BRANCH   2   4
HETATM    4  C   UNL     1      -7.440   4.147  64.156  1.00  0.00    -0.070 C  
HETATM    5  C   UNL     1      -8.658   3.267  64.282  1.00  0.00    -0.093 C  
HETATM    6  C   UNL     1      -7.301   2.718  64.619  1.00  0.00    -0.066 C  
ENDBRANCH   2   4
BRANCH   2   7
HETATM    7  C   UNL     1      -7.068   6.645  64.532  1.00  0.00    -0.060 C  
HETATM    8  C   UNL     1      -8.073   7.513  64.315  1.00  0.00    -0.064 C  
HETATM    9  C   UNL     1      -7.905   8.903  63.747  1.00  0.00    -0.138 C  
HETATM   10  C   UNL     1      -8.635   8.937  62.386  1.00  0.00    -0.208 C  
HETATM   11  C   UNL     1      -8.360  10.055  64.716  1.00  0.00    -0.166 C  
HETATM   12  C   UNL     1      -9.873   9.976  64.987  1.00  0.00    -0.374 C  
HETATM   13  C   UNL     1     -10.062   9.453  66.394  1.00  0.00    -0.332 C  
HETATM   14  C   UNL     1      -8.678   9.294  67.037  1.00  0.00    -0.131 C  
HETATM   15  C   UNL     1      -8.763   9.583  68.533  1.00  0.00    -0.124 C  
HETATM   16  C   UNL     1      -7.679  10.461  69.098  1.00  0.00    -0.126 C  
HETATM   17  C   UNL     1      -9.751   9.035  69.279  1.00  0.00    -0.168 C  
HETATM   18  C   UNL     1      -7.320  11.670  68.223  1.00  0.00    -0.093 C  
HETATM   19  C   UNL     1      -6.232   9.671  66.190  1.00  0.00    -0.068 C  
HETATM   20  C   UNL     1      -7.706  10.144  66.163  1.00  0.00    -0.113 C  
HETATM   21  C   UNL     1      -7.701  11.589  66.732  1.00  0.00    -0.136 C  
BRANCH  17  22
HETATM   22  C   UNL     1      -9.721   8.901  70.718  1.00  0.00    -0.281 C  
HETATM   23  C   UNL     1      -9.510   7.823  71.497  1.00  0.00    -0.174 C  
HETATM   24  C   UNL     1      -9.333   8.055  72.991  1.00  0.00    -0.344 C  
HETATM   25  C   UNL     1     -10.297   7.215  73.826  1.00  0.00    -0.347 C  
HETATM   26  C   UNL     1     -10.166   5.734  73.472  1.00  0.00    -0.225 C  
HETATM   27  O   UNL     1     -11.640   7.651  73.654  1.00  0.00    -0.394 OA 
HETATM   28  C   UNL     1     -10.364   5.499  71.972  1.00  0.00    -0.213 C  
HETATM   29  H   UNL     1     -12.240   7.129  74.174  1.00  0.00     0.000 HD 
HETATM   30  O   UNL     1     -10.122   4.113  71.712  1.00  0.00    -0.182 OA 
HETATM   31  C   UNL     1      -9.467   6.402  71.121  1.00  0.00    -0.177 C  
HETATM   32  C   UNL     1      -8.654   5.926  70.162  1.00  0.00    -0.134 C  
HETATM   33  H   UNL     1     -10.246   3.966  70.781  1.00  0.00     0.000 HD 
ENDBRANCH  17  22
ENDBRANCH   2   7
TORSDOF 3
ENDMDL
MODEL      100
REMARK 921   NORMALIZED FREE ENERGY PREDICTED BY IDOCK:   -3.99 KCAL/MOL
REMARK 922        TOTAL FREE ENERGY PREDICTED BY IDOCK:   -5.97 KCAL/MOL
REMARK 923 INTER-LIGAND FREE ENERGY PREDICTED BY IDOCK:   -5.71 KCAL/MOL
REMARK 924 INTRA-LIGAND FREE ENERGY PREDICTED BY IDOCK:   -0.25 KCAL/MOL
REMARK 927      BINDING AFFINITY PREDICTED BY RF-SCORE:    0.00 PKD
ROOT
HETATM    1  O   UNL     1     -10.524  18.168  65.868  1.00  0.00    -0.518 OA 
HETATM    2  C   UNL     1      -9.315  17.507  66.234  1.00  0.00    -0.209 C  
HETATM    3  H   UNL     1     -10.365  18.612  65.043  1.00  0.00     0.000 HD 
ENDROOT
BRANCH   2   4
HETATM    4  C   UNL     1      -8.201  18.524  66.222  1.00  0.00    -0.248 C  
HETATM    5  C   UNL     1      -6.845  18.185  65.655  1.00  0.00    -0.241 C  
HETATM    6  C   UNL     1      -7.014  18.348  67.139  1.00  0.00    -0.212 C  
ENDBRANCH   2   4
BRANCH   2   7
HETATM    7  C   UNL     1      -9.565  16.809  67.533  1.00  0.00    -0.240 C  
HETATM    8  C   UNL     1     -10.601  15.997  67.813  1.00  0.00    -0.309 C  
HETATM    9  C   UNL     1     -10.804  15.280  69.126  1.00  0.00    -0.250 C  
HETATM   10  C   UNL     1     -12.093  15.840  69.764  1.00  0.00    -0.298 C  
HETATM   11  C   UNL     1     -10.808  13.711  69.011  1.00  0.00    -0.237 C  
HETATM   12  C   UNL     1     -12.004  13.229  68.169  1.00  0.00    -0.340 C  
HETATM   13  C   UNL     1     -11.470  12.787  66.823  1.00  0.00    -0.399 C  
HETATM   14  C   UNL     1      -9.940  12.900  66.853  1.00  0.00    -0.238 C  
HETATM   15  C   UNL     1      -9.319  11.801  65.996  1.00  0.00    -0.231 C  
HETATM   16  C   UNL     1      -8.149  11.073  66.601  1.00  0.00    -0.155 C  
HETATM   17  C   UNL     1      -9.801  11.549  64.755  1.00  0.00    -0.286 C  
HETATM   18  C   UNL     1      -8.320  10.721  68.086  1.00  0.00    -0.120 C  
HETATM   19  C   UNL     1      -8.218  13.718  68.643  1.00  0.00    -0.077 C  
HETATM   20  C   UNL     1      -9.551  12.985  68.360  1.00  0.00    -0.178 C  
HETATM   21  C   UNL     1      -9.360  11.535  68.881  1.00  0.00    -0.006 C  
BRANCH  17  22
HETATM   22  C   UNL     1      -9.082  10.842  63.720  1.00  0.00    -0.215 C  
HETATM   23  C   UNL     1      -8.605   9.582  63.682  1.00  0.00    -0.222 C  
HETATM   24  C   UNL     1      -8.071   9.069  62.353  1.00  0.00    -0.151 C  
HETATM   25  C   UNL     1      -6.648   8.529  62.470  1.00  0.00    -0.091 C  
HETATM   26  C   UNL     1      -6.567   7.457  63.555  1.00  0.00    -0.053 C  
HETATM   27  O   UNL     1      -5.721   9.576  62.733  1.00  0.00    -0.084 OA 
HETATM   28  C   UNL     1      -7.085   7.980  64.898  1.00  0.00    -0.071 C  
HETATM   29  H   UNL     1      -4.835   9.240  62.806  1.00  0.00     0.000 HD 
HETATM   30  O   UNL     1      -7.073   6.891  65.826  1.00  0.00    -0.068 OA 
HETATM   31  C   UNL     1      -8.477   8.607  64.776  1.00  0.00    -0.168 C  
HETATM   32  C   UNL     1      -9.511   8.243  65.554  1.00  0.00     0.203 C  
HETATM   33  H   UNL     1      -7.394   7.216  66.659  1.00  0.00     0.000 HD 
ENDBRANCH  17  22
ENDBRANCH   2   7
TORSDOF 3
ENDMDL
MODEL      101
REMARK 921   NORMALIZED FREE ENERGY PREDICTED BY IDOCK:   -3.99 KCAL/MOL
REMARK 922        TOTAL FREE ENERGY PREDICTED BY IDOCK:   -5.96 KCAL/MOL
REMARK 923 INTER-LIGAND FREE ENERGY PREDICTED BY IDOCK:   -5.05 KCAL/MOL
REMARK 924 INTRA-LIGAND FREE ENERGY PREDICTED BY IDOCK:   -0.91 KCAL/MOL
REMARK 927      BINDING AFFINITY PREDICTED BY RF-SCORE:    0.00 PKD
ROOT
HETATM    1  O   UNL     1      -9.391   4.871  68.279  1.00  0.00    -0.118 OA 
HETATM    2  C   UNL     1      -8.234   4.137  68.669  1.00  0.00    -0.082 C  
HETATM    3  H   UNL     1     -10.103   4.603  68.848  1.00  0.00     0.000 HD 
ENDROOT
BRANCH   2   4
HETATM    4  C   UNL     1      -8.584   2.669  68.661  1.00  0.00    -0.110 C  
HETATM    5  C   UNL     1      -7.867   1.704  67.750  1.00  0.00    -0.058 C  
HETATM    6  C   UNL     1      -9.296   2.074  67.470  1.00  0.00    -0.120 C  
ENDBRANCH   2   4
BRANCH   2   7
HETATM    7  C   UNL     1      -7.115   4.559  67.772  1.00  0.00    -0.064 C  
HETATM    8  C   UNL     1      -7.230   4.978  66.499  1.00  0.00    -0.077 C  
HETATM    9  C   UNL     1      -6.080   5.431  65.632  1.00  0.00    -0.033 C  
HETATM   10  C   UNL     1      -5.962   4.431  64.461  1.00  0.00    -0.018 C  
HETATM   11  C   UNL     1      -6.182   6.926  65.154  1.00  0.00    -0.036 C  
HETATM   12  C   UNL     1      -7.402   7.124  64.236  1.00  0.00    -0.086 C  
HETATM   13  C   UNL     1      -8.455   7.871  65.025  1.00  0.00    -0.072 C  
HETATM   14  C   UNL     1      -7.867   8.223  66.397  1.00  0.00    -0.095 C  
HETATM   15  C   UNL     1      -8.431   9.556  66.879  1.00  0.00    -0.128 C  
HETATM   16  C   UNL     1      -7.435  10.524  67.460  1.00  0.00    -0.093 C  
HETATM   17  C   UNL     1      -9.761   9.803  66.802  1.00  0.00    -0.248 C  
HETATM   18  C   UNL     1      -6.115  10.620  66.682  1.00  0.00    -0.081 C  
HETATM   19  C   UNL     1      -5.573   7.750  67.562  1.00  0.00    -0.036 C  
HETATM   20  C   UNL     1      -6.322   8.073  66.247  1.00  0.00    -0.046 C  
HETATM   21  C   UNL     1      -5.761   9.437  65.760  1.00  0.00    -0.053 C  
BRANCH  17  22
HETATM   22  C   UNL     1     -10.457  10.818  67.560  1.00  0.00    -0.260 C  
HETATM   23  C   UNL     1     -11.033  11.970  67.167  1.00  0.00    -0.320 C  
HETATM   24  C   UNL     1     -11.873  12.723  68.187  1.00  0.00    -0.372 C  
HETATM   25  C   UNL     1     -11.428  14.175  68.348  1.00  0.00    -0.302 C  
HETATM   26  C   UNL     1     -11.419  14.888  66.996  1.00  0.00    -0.333 C  
HETATM   27  O   UNL     1     -10.146  14.254  68.961  1.00  0.00    -0.332 OA 
HETATM   28  C   UNL     1     -10.556  14.141  65.976  1.00  0.00    -0.297 C  
HETATM   29  H   UNL     1      -9.869  15.158  69.061  1.00  0.00     0.000 HD 
HETATM   30  O   UNL     1     -10.687  14.811  64.718  1.00  0.00    -0.490 OA 
HETATM   31  C   UNL     1     -10.934  12.660  65.872  1.00  0.00    -0.310 C  
HETATM   32  C   UNL     1     -11.224  12.063  64.703  1.00  0.00    -0.380 C  
HETATM   33  H   UNL     1     -10.151  14.348  64.085  1.00  0.00     0.000 HD 
ENDBRANCH  17  22
ENDBRANCH   2   7
TORSDOF 3
ENDMDL
MODEL      102
REMARK 921   NORMALIZED FREE ENERGY PREDICTED BY IDOCK:   -3.98 KCAL/MOL
REMARK 922        TOTAL FREE ENERGY PREDICTED BY IDOCK:   -5.96 KCAL/MOL
REMARK 923 INTER-LIGAND FREE ENERGY PREDICTED BY IDOCK:   -6.11 KCAL/MOL
REMARK 924 INTRA-LIGAND FREE ENERGY PREDICTED BY IDOCK:    0.15 KCAL/MOL
REMARK 927      BINDING AFFINITY PREDICTED BY RF-SCORE:    0.00 PKD
ROOT
HETATM    1  O   UNL     1      -8.748   8.612  63.793  1.00  0.00    -0.415 OA 
HETATM    2  C   UNL     1      -7.743   7.607  63.897  1.00  0.00    -0.126 C  
HETATM    3  H   UNL     1      -8.608   9.068  62.971  1.00  0.00     0.000 HD 
ENDROOT
BRANCH   2   4
HETATM    4  C   UNL     1      -6.398   8.266  63.716  1.00  0.00    -0.072 C  
HETATM    5  C   UNL     1      -5.954   8.766  62.364  1.00  0.00    -0.091 C  
HETATM    6  C   UNL     1      -5.307   7.548  62.960  1.00  0.00    -0.041 C  
ENDBRANCH   2   4
BRANCH   2   7
HETATM    7  C   UNL     1      -7.964   6.890  65.191  1.00  0.00    -0.125 C  
HETATM    8  C   UNL     1      -7.224   7.017  66.307  1.00  0.00    -0.075 C  
HETATM    9  C   UNL     1      -7.497   6.303  67.610  1.00  0.00    -0.089 C  
HETATM   10  C   UNL     1      -6.306   5.357  67.876  1.00  0.00    -0.039 C  
HETATM   11  C   UNL     1      -7.802   7.260  68.819  1.00  0.00    -0.121 C  
HETATM   12  C   UNL     1      -6.573   8.126  69.154  1.00  0.00    -0.043 C  
HETATM   13  C   UNL     1      -6.855   9.532  68.670  1.00  0.00    -0.057 C  
HETATM   14  C   UNL     1      -8.287   9.572  68.121  1.00  0.00    -0.118 C  
HETATM   15  C   UNL     1      -8.908  10.941  68.386  1.00  0.00    -0.147 C  
HETATM   16  C   UNL     1     -10.316  10.935  68.917  1.00  0.00    -0.222 C  
HETATM   17  C   UNL     1      -8.212  12.070  68.114  1.00  0.00    -0.163 C  
HETATM   18  C   UNL     1     -10.582   9.880  70.001  1.00  0.00    -0.335 C  
HETATM   19  C   UNL     1     -10.168   7.778  67.829  1.00  0.00    -0.271 C  
HETATM   20  C   UNL     1      -8.995   8.305  68.690  1.00  0.00    -0.137 C  
HETATM   21  C   UNL     1      -9.611   8.685  70.064  1.00  0.00    -0.175 C  
BRANCH  17  22
HETATM   22  C   UNL     1      -8.800  13.380  67.943  1.00  0.00    -0.194 C  
HETATM   23  C   UNL     1      -9.850  13.783  67.202  1.00  0.00    -0.242 C  
HETATM   24  C   UNL     1     -10.349  15.207  67.401  1.00  0.00    -0.244 C  
HETATM   25  C   UNL     1     -10.413  15.988  66.090  1.00  0.00    -0.326 C  
HETATM   26  C   UNL     1     -11.256  15.239  65.059  1.00  0.00    -0.409 C  
HETATM   27  O   UNL     1      -9.110  16.241  65.579  1.00  0.00    -0.374 OA 
HETATM   28  C   UNL     1     -10.741  13.814  64.844  1.00  0.00    -0.399 C  
HETATM   29  H   UNL     1      -9.150  16.727  64.763  1.00  0.00     0.000 HD 
HETATM   30  O   UNL     1     -11.643  13.153  63.950  1.00  0.00    -0.407 OA 
HETATM   31  C   UNL     1     -10.586  13.049  66.162  1.00  0.00    -0.289 C  
HETATM   32  C   UNL     1     -11.139  11.842  66.373  1.00  0.00    -0.359 C  
HETATM   33  H   UNL     1     -11.322  12.269  63.816  1.00  0.00     0.000 HD 
ENDBRANCH  17  22
ENDBRANCH   2   7
TORSDOF 3
ENDMDL
MODEL      103
REMARK 921   NORMALIZED FREE ENERGY PREDICTED BY IDOCK:   -3.95 KCAL/MOL
REMARK 922        TOTAL FREE ENERGY PREDICTED BY IDOCK:   -5.92 KCAL/MOL
REMARK 923 INTER-LIGAND FREE ENERGY PREDICTED BY IDOCK:   -5.84 KCAL/MOL
REMARK 924 INTRA-LIGAND FREE ENERGY PREDICTED BY IDOCK:   -0.08 KCAL/MOL
REMARK 927      BINDING AFFINITY PREDICTED BY RF-SCORE:    0.00 PKD
ROOT
HETATM    1  O   UNL     1      -9.900  10.644  64.542  1.00  0.00    -0.272 OA 
HETATM    2  C   UNL     1     -10.023  12.062  64.600  1.00  0.00    -0.214 C  
HETATM    3  H   UNL     1     -10.049  10.383  63.641  1.00  0.00     0.000 HD 
ENDROOT
BRANCH   2   4
HETATM    4  C   UNL     1     -11.355  12.444  64.003  1.00  0.00    -0.465 C  
HETATM    5  C   UNL     1     -11.887  13.849  64.125  1.00  0.00    -0.417 C  
HETATM    6  C   UNL     1     -12.526  12.738  64.909  1.00  0.00    -0.563 C  
ENDBRANCH   2   4
BRANCH   2   7
HETATM    7  C   UNL     1      -9.787  12.472  66.019  1.00  0.00    -0.266 C  
HETATM    8  C   UNL     1     -10.616  12.257  67.057  1.00  0.00    -0.248 C  
HETATM    9  C   UNL     1     -10.330  12.654  68.486  1.00  0.00    -0.232 C  
HETATM   10  C   UNL     1     -11.377  13.714  68.889  1.00  0.00    -0.332 C  
HETATM   11  C   UNL     1     -10.262  11.446  69.490  1.00  0.00     0.212 C  
HETATM   12  C   UNL     1     -11.629  10.746  69.596  1.00  0.00    -0.388 C  
HETATM   13  C   UNL     1     -11.533   9.432  68.851  1.00  0.00     0.356 C  
HETATM   14  C   UNL     1     -10.089   9.262  68.362  1.00  0.00    -0.215 C  
HETATM   15  C   UNL     1      -9.705   7.786  68.371  1.00  0.00    -0.167 C  
HETATM   16  C   UNL     1      -8.354   7.458  68.948  1.00  0.00    -0.129 C  
HETATM   17  C   UNL     1     -10.545   6.859  67.852  1.00  0.00    -0.286 C  
HETATM   18  C   UNL     1      -8.008   8.227  70.231  1.00  0.00    -0.102 C  
HETATM   19  C   UNL     1      -7.939  10.745  68.510  1.00  0.00    -0.130 C  
HETATM   20  C   UNL     1      -9.237  10.264  69.201  1.00  0.00    -0.203 C  
HETATM   21  C   UNL     1      -8.786   9.531  70.494  1.00  0.00    -0.247 C  
BRANCH  17  22
HETATM   22  C   UNL     1     -10.154   5.528  67.445  1.00  0.00    -0.215 C  
HETATM   23  C   UNL     1      -9.252   5.116  66.533  1.00  0.00    -0.136 C  
HETATM   24  C   UNL     1      -8.923   3.630  66.488  1.00  0.00    -0.152 C  
HETATM   25  C   UNL     1      -9.104   3.039  65.092  1.00  0.00    -0.148 C  
HETATM   26  C   UNL     1      -8.287   3.824  64.066  1.00  0.00    -0.091 C  
HETATM   27  O   UNL     1     -10.477   3.011  64.719  1.00  0.00    -0.377 OA 
HETATM   28  C   UNL     1      -8.634   5.315  64.098  1.00  0.00    -0.069 C  
HETATM   29  H   UNL     1     -10.589   2.643  63.850  1.00  0.00     0.000 HD 
HETATM   30  O   UNL     1      -7.757   5.987  63.188  1.00  0.00    -0.081 OA 
HETATM   31  C   UNL     1      -8.544   5.899  65.510  1.00  0.00    -0.150 C  
HETATM   32  C   UNL     1      -7.820   6.994  65.801  1.00  0.00    -0.109 C  
HETATM   33  H   UNL     1      -7.972   6.912  63.208  1.00  0.00     0.000 HD 
ENDBRANCH  17  22
ENDBRANCH   2   7
TORSDOF 3
ENDMDL
MODEL      104
REMARK 921   NORMALIZED FREE ENERGY PREDICTED BY IDOCK:   -3.93 KCAL/MOL
REMARK 922        TOTAL FREE ENERGY PREDICTED BY IDOCK:   -5.90 KCAL/MOL
REMARK 923 INTER-LIGAND FREE ENERGY PREDICTED BY IDOCK:   -4.80 KCAL/MOL
REMARK 924 INTRA-LIGAND FREE ENERGY PREDICTED BY IDOCK:   -1.11 KCAL/MOL
REMARK 927      BINDING AFFINITY PREDICTED BY RF-SCORE:    0.00 PKD
ROOT
HETATM    1  O   UNL     1      -9.661   6.458  69.676  1.00  0.00    -0.151 OA 
HETATM    2  C   UNL     1      -8.412   6.279  70.338  1.00  0.00    -0.134 C  
HETATM    3  H   UNL     1     -10.252   6.875  70.292  1.00  0.00     0.000 HD 
ENDROOT
BRANCH   2   4
HETATM    4  C   UNL     1      -8.666   5.541  71.629  1.00  0.00    -0.137 C  
HETATM    5  C   UNL     1      -7.736   4.450  72.097  1.00  0.00    -0.085 C  
HETATM    6  C   UNL     1      -9.107   4.098  71.595  1.00  0.00    -0.172 C  
ENDBRANCH   2   4
BRANCH   2   7
HETATM    7  C   UNL     1      -7.484   5.622  69.368  1.00  0.00    -0.075 C  
HETATM    8  C   UNL     1      -7.827   5.057  68.196  1.00  0.00    -0.087 C  
HETATM    9  C   UNL     1      -6.857   4.433  67.222  1.00  0.00    -0.052 C  
HETATM   10  C   UNL     1      -7.188   2.927  67.141  1.00  0.00    -0.054 C  
HETATM   11  C   UNL     1      -6.819   5.129  65.812  1.00  0.00    -0.061 C  
HETATM   12  C   UNL     1      -8.171   4.978  65.092  1.00  0.00    -0.131 C  
HETATM   13  C   UNL     1      -8.868   6.321  65.136  1.00  0.00     0.119 C  
HETATM   14  C   UNL     1      -7.921   7.332  65.795  1.00  0.00    -0.122 C  
HETATM   15  C   UNL     1      -8.125   8.714  65.180  1.00  0.00    -0.143 C  
HETATM   16  C   UNL     1      -6.872   9.473  64.832  1.00  0.00    -0.102 C  
HETATM   17  C   UNL     1      -9.374   9.206  65.006  1.00  0.00    -0.120 C  
HETATM   18  C   UNL     1      -5.778   8.623  64.171  1.00  0.00    -0.065 C  
HETATM   19  C   UNL     1      -5.527   7.161  66.836  1.00  0.00    -0.022 C  
HETATM   20  C   UNL     1      -6.503   6.686  65.733  1.00  0.00    -0.046 C  
HETATM   21  C   UNL     1      -5.854   7.099  64.383  1.00  0.00    -0.037 C  
BRANCH  17  22
HETATM   22  C   UNL     1      -9.692  10.604  64.818  1.00  0.00    -0.350 C  
HETATM   23  C   UNL     1     -10.035  11.555  65.708  1.00  0.00    -0.271 C  
HETATM   24  C   UNL     1     -10.103  12.992  65.212  1.00  0.00    -0.247 C  
HETATM   25  C   UNL     1     -11.450  13.647  65.514  1.00  0.00    -0.305 C  
HETATM   26  C   UNL     1     -11.771  13.554  67.005  1.00  0.00    -0.424 C  
HETATM   27  O   UNL     1     -12.491  13.058  64.743  1.00  0.00    -0.476 OA 
HETATM   28  C   UNL     1     -11.723  12.105  67.498  1.00  0.00    -0.315 C  
HETATM   29  H   UNL     1     -13.329  13.466  64.930  1.00  0.00     0.000 HD 
HETATM   30  O   UNL     1     -11.929  12.119  68.914  1.00  0.00    -0.299 OA 
HETATM   31  C   UNL     1     -10.411  11.409  67.122  1.00  0.00    -0.259 C  
HETATM   32  C   UNL     1      -9.635  10.783  68.022  1.00  0.00    -0.172 C  
HETATM   33  H   UNL     1     -11.900  11.220  69.220  1.00  0.00     0.000 HD 
ENDBRANCH  17  22
ENDBRANCH   2   7
TORSDOF 3
ENDMDL
MODEL      105
REMARK 921   NORMALIZED FREE ENERGY PREDICTED BY IDOCK:   -3.91 KCAL/MOL
REMARK 922        TOTAL FREE ENERGY PREDICTED BY IDOCK:   -5.88 KCAL/MOL
REMARK 923 INTER-LIGAND FREE ENERGY PREDICTED BY IDOCK:   -5.10 KCAL/MOL
REMARK 924 INTRA-LIGAND FREE ENERGY PREDICTED BY IDOCK:   -0.78 KCAL/MOL
REMARK 927      BINDING AFFINITY PREDICTED BY RF-SCORE:    0.00 PKD
ROOT
HETATM    1  O   UNL     1      -9.226   6.875  71.734  1.00  0.00    -0.143 OA 
HETATM    2  C   UNL     1      -7.858   6.881  71.337  1.00  0.00    -0.100 C  
HETATM    3  H   UNL     1      -9.327   7.532  72.413  1.00  0.00     0.000 HD 
ENDROOT
BRANCH   2   4
HETATM    4  C   UNL     1      -7.009   6.707  72.572  1.00  0.00    -0.068 C  
HETATM    5  C   UNL     1      -6.185   7.846  73.116  1.00  0.00    -0.069 C  
HETATM    6  C   UNL     1      -5.505   6.683  72.452  1.00  0.00    -0.037 C  
ENDBRANCH   2   4
BRANCH   2   7
HETATM    7  C   UNL     1      -7.699   5.846  70.269  1.00  0.00    -0.096 C  
HETATM    8  C   UNL     1      -8.688   5.301  69.537  1.00  0.00    -0.114 C  
HETATM    9  C   UNL     1      -8.487   4.282  68.440  1.00  0.00    -0.103 C  
HETATM   10  C   UNL     1      -9.174   2.976  68.893  1.00  0.00    -0.227 C  
HETATM   11  C   UNL     1      -8.959   4.762  67.019  1.00  0.00    -0.111 C  
HETATM   12  C   UNL     1     -10.481   4.994  66.998  1.00  0.00    -0.208 C  
HETATM   13  C   UNL     1     -10.720   6.488  66.987  1.00  0.00    -0.434 C  
HETATM   14  C   UNL     1      -9.359   7.191  66.905  1.00  0.00    -0.189 C  
HETATM   15  C   UNL     1      -9.487   8.483  66.103  1.00  0.00    -0.286 C  
HETATM   16  C   UNL     1      -8.411   8.734  65.080  1.00  0.00    -0.193 C  
HETATM   17  C   UNL     1     -10.504   9.342  66.351  1.00  0.00    -0.157 C  
HETATM   18  C   UNL     1      -8.012   7.498  64.261  1.00  0.00    -0.109 C  
HETATM   19  C   UNL     1      -6.883   6.347  66.850  1.00  0.00    -0.066 C  
HETATM   20  C   UNL     1      -8.350   6.104  66.420  1.00  0.00    -0.120 C  
HETATM   21  C   UNL     1      -8.348   6.122  64.867  1.00  0.00    -0.092 C  
BRANCH  17  22
HETATM   22  C   UNL     1     -10.520  10.735  65.964  1.00  0.00    -0.273 C  
HETATM   23  C   UNL     1      -9.733  11.762  66.340  1.00  0.00    -0.234 C  
HETATM   24  C   UNL     1      -9.879  13.075  65.586  1.00  0.00    -0.181 C  
HETATM   25  C   UNL     1     -10.144  14.254  66.520  1.00  0.00    -0.278 C  
HETATM   26  C   UNL     1      -9.061  14.343  67.594  1.00  0.00    -0.194 C  
HETATM   27  O   UNL     1     -11.431  14.156  67.118  1.00  0.00    -0.319 OA 
HETATM   28  C   UNL     1      -8.930  13.028  68.366  1.00  0.00    -0.126 C  
HETATM   29  H   UNL     1     -11.596  14.890  67.698  1.00  0.00     0.000 HD 
HETATM   30  O   UNL     1      -7.831  13.162  69.274  1.00  0.00    -0.298 OA 
HETATM   31  C   UNL     1      -8.754  11.825  67.435  1.00  0.00    -0.162 C  
HETATM   32  C   UNL     1      -7.746  10.945  67.564  1.00  0.00    -0.109 C  
HETATM   33  H   UNL     1      -7.750  12.346  69.753  1.00  0.00     0.000 HD 
ENDBRANCH  17  22
ENDBRANCH   2   7
TORSDOF 3
ENDMDL
MODEL      106
REMARK 921   NORMALIZED FREE ENERGY PREDICTED BY IDOCK:   -3.86 KCAL/MOL
REMARK 922        TOTAL FREE ENERGY PREDICTED BY IDOCK:   -5.82 KCAL/MOL
REMARK 923 INTER-LIGAND FREE ENERGY PREDICTED BY IDOCK:   -5.03 KCAL/MOL
REMARK 924 INTRA-LIGAND FREE ENERGY PREDICTED BY IDOCK:   -0.79 KCAL/MOL
REMARK 927      BINDING AFFINITY PREDICTED BY RF-SCORE:    0.00 PKD
ROOT
HETATM    1  O   UNL     1      -9.791  15.826  68.628  1.00  0.00    -0.200 OA 
HETATM    2  C   UNL     1      -9.989  14.701  67.776  1.00  0.00    -0.224 C  
HETATM    3  H   UNL     1     -10.644  16.093  68.948  1.00  0.00     0.000 HD 
ENDROOT
BRANCH   2   4
HETATM    4  C   UNL     1     -11.010  15.076  66.731  1.00  0.00    -0.323 C  
HETATM    5  C   UNL     1     -11.314  14.156  65.575  1.00  0.00    -0.319 C  
HETATM    6  C   UNL     1     -10.559  15.433  65.335  1.00  0.00    -0.430 C  
ENDBRANCH   2   4
BRANCH   2   7
HETATM    7  C   UNL     1      -8.645  14.281  67.273  1.00  0.00    -0.229 C  
HETATM    8  C   UNL     1      -7.576  13.966  68.027  1.00  0.00    -0.144 C  
HETATM    9  C   UNL     1      -6.241  13.512  67.484  1.00  0.00    -0.073 C  
HETATM   10  C   UNL     1      -5.199  14.587  67.861  1.00  0.00    -0.068 C  
HETATM   11  C   UNL     1      -5.820  12.065  67.936  1.00  0.00    -0.063 C  
HETATM   12  C   UNL     1      -5.608  12.008  69.459  1.00  0.00    -0.078 C  
HETATM   13  C   UNL     1      -6.784  11.268  70.060  1.00  0.00    -0.013 C  
HETATM   14  C   UNL     1      -7.680  10.780  68.915  1.00  0.00    -0.129 C  
HETATM   15  C   UNL     1      -8.328   9.451  69.290  1.00  0.00    -0.131 C  
HETATM   16  C   UNL     1      -8.313   8.385  68.226  1.00  0.00    -0.131 C  
HETATM   17  C   UNL     1      -8.900   9.289  70.506  1.00  0.00    -0.285 C  
HETATM   18  C   UNL     1      -6.986   8.270  67.462  1.00  0.00    -0.075 C  
HETATM   19  C   UNL     1      -7.592  11.029  66.312  1.00  0.00    -0.111 C  
HETATM   20  C   UNL     1      -6.800  10.850  67.630  1.00  0.00    -0.081 C  
HETATM   21  C   UNL     1      -6.052   9.495  67.496  1.00  0.00    -0.053 C  
BRANCH  17  22
HETATM   22  C   UNL     1      -9.865   8.264  70.834  1.00  0.00    -0.215 C  
HETATM   23  C   UNL     1      -9.932   7.422  71.884  1.00  0.00    -0.196 C  
HETATM   24  C   UNL     1     -11.198   6.594  72.044  1.00  0.00    -0.301 C  
HETATM   25  C   UNL     1     -10.903   5.099  72.155  1.00  0.00    -0.151 C  
HETATM   26  C   UNL     1      -9.912   4.829  73.286  1.00  0.00    -0.184 C  
HETATM   27  O   UNL     1     -10.410   4.581  70.925  1.00  0.00    -0.148 OA 
HETATM   28  C   UNL     1      -8.630   5.647  73.112  1.00  0.00    -0.117 C  
HETATM   29  H   UNL     1     -10.227   3.651  70.994  1.00  0.00     0.000 HD 
HETATM   30  O   UNL     1      -7.806   5.417  74.260  1.00  0.00    -0.098 OA 
HETATM   31  C   UNL     1      -8.917   7.138  72.910  1.00  0.00    -0.156 C  
HETATM   32  C   UNL     1      -8.345   8.098  73.657  1.00  0.00    -0.305 C  
HETATM   33  H   UNL     1      -7.010   5.924  74.152  1.00  0.00     0.000 HD 
ENDBRANCH  17  22
ENDBRANCH   2   7
TORSDOF 3
ENDMDL
MODEL      107
REMARK 921   NORMALIZED FREE ENERGY PREDICTED BY IDOCK:   -3.80 KCAL/MOL
REMARK 922        TOTAL FREE ENERGY PREDICTED BY IDOCK:   -5.74 KCAL/MOL
REMARK 923 INTER-LIGAND FREE ENERGY PREDICTED BY IDOCK:   -4.68 KCAL/MOL
REMARK 924 INTRA-LIGAND FREE ENERGY PREDICTED BY IDOCK:   -1.06 KCAL/MOL
REMARK 927      BINDING AFFINITY PREDICTED BY RF-SCORE:    0.00 PKD
ROOT
HETATM    1  O   UNL     1      -8.015   8.825  71.212  1.00  0.00    -0.124 OA 
HETATM    2  C   UNL     1      -7.312   7.600  71.402  1.00  0.00    -0.074 C  
HETATM    3  H   UNL     1      -7.884   9.351  71.992  1.00  0.00     0.000 HD 
ENDROOT
BRANCH   2   4
HETATM    4  C   UNL     1      -7.768   6.994  72.706  1.00  0.00    -0.092 C  
HETATM    5  C   UNL     1      -9.095   6.285  72.812  1.00  0.00    -0.131 C  
HETATM    6  C   UNL     1      -8.908   7.623  73.469  1.00  0.00    -0.283 C  
ENDBRANCH   2   4
BRANCH   2   7
HETATM    7  C   UNL     1      -7.520   6.772  70.174  1.00  0.00    -0.094 C  
HETATM    8  C   UNL     1      -8.659   6.674  69.464  1.00  0.00    -0.132 C  
HETATM    9  C   UNL     1      -8.823   5.854  68.207  1.00  0.00    -0.110 C  
HETATM   10  C   UNL     1      -9.847   4.740  68.513  1.00  0.00    -0.198 C  
HETATM   11  C   UNL     1      -9.195   6.696  66.932  1.00  0.00    -0.158 C  
HETATM   12  C   UNL     1     -10.578   7.354  67.095  1.00  0.00    -0.413 C  
HETATM   13  C   UNL     1     -10.358   8.831  67.343  1.00  0.00    -0.349 C  
HETATM   14  C   UNL     1      -8.854   9.116  67.241  1.00  0.00    -0.132 C  
HETATM   15  C   UNL     1      -8.627  10.513  66.669  1.00  0.00    -0.133 C  
HETATM   16  C   UNL     1      -7.574  10.624  65.599  1.00  0.00    -0.100 C  
HETATM   17  C   UNL     1      -9.328  11.568  67.146  1.00  0.00    -0.177 C  
HETATM   18  C   UNL     1      -7.602   9.494  64.561  1.00  0.00    -0.114 C  
HETATM   19  C   UNL     1      -6.751   7.622  66.814  1.00  0.00    -0.066 C  
HETATM   20  C   UNL     1      -8.241   7.892  66.496  1.00  0.00    -0.113 C  
HETATM   21  C   UNL     1      -8.305   8.186  64.972  1.00  0.00    -0.146 C  
BRANCH  17  22
HETATM   22  C   UNL     1      -8.944  12.953  66.987  1.00  0.00    -0.225 C  
HETATM   23  C   UNL     1      -8.019  13.689  67.632  1.00  0.00    -0.180 C  
HETATM   24  C   UNL     1      -7.711  15.075  67.082  1.00  0.00    -0.202 C  
HETATM   25  C   UNL     1      -7.854  16.164  68.143  1.00  0.00    -0.146 C  
HETATM   26  C   UNL     1      -6.992  15.843  69.363  1.00  0.00    -0.211 C  
HETATM   27  O   UNL     1      -9.214  16.334  68.525  1.00  0.00    -0.197 OA 
HETATM   28  C   UNL     1      -7.317  14.458  69.928  1.00  0.00     0.185 C  
HETATM   29  H   UNL     1      -9.303  17.012  69.184  1.00  0.00     0.000 HD 
HETATM   30  O   UNL     1      -6.400  14.195  70.995  1.00  0.00    -0.409 OA 
HETATM   31  C   UNL     1      -7.266  13.368  68.853  1.00  0.00    -0.062 C  
HETATM   32  C   UNL     1      -6.535  12.248  68.986  1.00  0.00    -0.096 C  
HETATM   33  H   UNL     1      -6.602  13.335  71.346  1.00  0.00     0.000 HD 
ENDBRANCH  17  22
ENDBRANCH   2   7
TORSDOF 3
ENDMDL
MODEL      108
REMARK 921   NORMALIZED FREE ENERGY PREDICTED BY IDOCK:   -3.76 KCAL/MOL
REMARK 922        TOTAL FREE ENERGY PREDICTED BY IDOCK:   -5.70 KCAL/MOL
REMARK 923 INTER-LIGAND FREE ENERGY PREDICTED BY IDOCK:   -4.41 KCAL/MOL
REMARK 924 INTRA-LIGAND FREE ENERGY PREDICTED BY IDOCK:   -1.28 KCAL/MOL
REMARK 927      BINDING AFFINITY PREDICTED BY RF-SCORE:    0.00 PKD
ROOT
HETATM    1  O   UNL     1     -12.541  14.399  63.189  1.00  0.00    -0.914 OA 
HETATM    2  C   UNL     1     -12.676  13.827  64.487  1.00  0.00    -0.080 C  
HETATM    3  H   UNL     1     -13.054  13.869  62.591  1.00  0.00     0.000 HD 
ENDROOT
BRANCH   2   4
HETATM    4  C   UNL     1     -12.307  12.366  64.398  1.00  0.00    -0.532 C  
HETATM    5  C   UNL     1     -10.870  11.936  64.240  1.00  0.00    -0.396 C  
HETATM    6  C   UNL     1     -11.824  11.793  63.088  1.00  0.00    -0.194 C  
ENDBRANCH   2   4
BRANCH   2   7
HETATM    7  C   UNL     1     -11.867  14.661  65.428  1.00  0.00    -0.304 C  
HETATM    8  C   UNL     1     -11.763  14.485  66.758  1.00  0.00    -0.393 C  
HETATM    9  C   UNL     1     -10.907  15.327  67.675  1.00  0.00    -0.295 C  
HETATM   10  C   UNL     1     -11.857  16.066  68.643  1.00  0.00    -0.174 C  
HETATM   11  C   UNL     1      -9.776  14.526  68.417  1.00  0.00    -0.224 C  
HETATM   12  C   UNL     1     -10.382  13.485  69.375  1.00  0.00     0.306 C  
HETATM   13  C   UNL     1     -10.191  12.119  68.751  1.00  0.00    -0.133 C  
HETATM   14  C   UNL     1      -9.386  12.292  67.456  1.00  0.00    -0.183 C  
HETATM   15  C   UNL     1      -8.492  11.076  67.233  1.00  0.00    -0.130 C  
HETATM   16  C   UNL     1      -7.073  11.367  66.821  1.00  0.00    -0.132 C  
HETATM   17  C   UNL     1      -8.991   9.825  67.375  1.00  0.00    -0.144 C  
HETATM   18  C   UNL     1      -6.415  12.526  67.584  1.00  0.00    -0.138 C  
HETATM   19  C   UNL     1      -8.412  14.363  66.190  1.00  0.00     0.792 C  
HETATM   20  C   UNL     1      -8.726  13.701  67.553  1.00  0.00    -0.198 C  
HETATM   21  C   UNL     1      -7.358  13.533  68.270  1.00  0.00    -0.116 C  
BRANCH  17  22
HETATM   22  C   UNL     1      -8.392   8.631  66.824  1.00  0.00    -0.108 C  
HETATM   23  C   UNL     1      -8.170   7.422  67.376  1.00  0.00    -0.113 C  
HETATM   24  C   UNL     1      -7.706   6.301  66.458  1.00  0.00    -0.099 C  
HETATM   25  C   UNL     1      -6.420   5.643  66.952  1.00  0.00    -0.047 C  
HETATM   26  C   UNL     1      -6.583   5.155  68.391  1.00  0.00    -0.045 C  
HETATM   27  O   UNL     1      -5.315   6.534  66.851  1.00  0.00    -0.012 OA 
HETATM   28  C   UNL     1      -7.031   6.289  69.318  1.00  0.00    -0.064 C  
HETATM   29  H   UNL     1      -4.514   6.124  67.158  1.00  0.00     0.000 HD 
HETATM   30  O   UNL     1      -7.261   5.728  70.614  1.00  0.00    -0.076 OA 
HETATM   31  C   UNL     1      -8.269   7.016  68.786  1.00  0.00    -0.122 C  
HETATM   32  C   UNL     1      -9.377   7.201  69.523  1.00  0.00    -0.148 C  
HETATM   33  H   UNL     1      -7.538   6.431  71.190  1.00  0.00     0.000 HD 
ENDBRANCH  17  22
ENDBRANCH   2   7
TORSDOF 3
ENDMDL
MODEL      109
REMARK 921   NORMALIZED FREE ENERGY PREDICTED BY IDOCK:   -3.67 KCAL/MOL
REMARK 922        TOTAL FREE ENERGY PREDICTED BY IDOCK:   -5.60 KCAL/MOL
REMARK 923 INTER-LIGAND FREE ENERGY PREDICTED BY IDOCK:   -5.80 KCAL/MOL
REMARK 924 INTRA-LIGAND FREE ENERGY PREDICTED BY IDOCK:    0.20 KCAL/MOL
REMARK 927      BINDING AFFINITY PREDICTED BY RF-SCORE:    0.00 PKD
ROOT
HETATM    1  O   UNL     1     -10.821  13.660  64.176  1.00  0.00    -0.560 OA 
HETATM    2  C   UNL     1     -10.826  12.292  63.775  1.00  0.00    -0.442 C  
HETATM    3  H   UNL     1     -10.538  14.173  63.428  1.00  0.00     0.000 HD 
ENDROOT
BRANCH   2   4
HETATM    4  C   UNL     1      -9.467  11.962  63.211  1.00  0.00    -0.079 C  
HETATM    5  C   UNL     1      -9.218  10.661  62.491  1.00  0.00    -0.323 C  
HETATM    6  C   UNL     1      -8.628  10.884  63.854  1.00  0.00     0.051 C  
ENDBRANCH   2   4
BRANCH   2   7
HETATM    7  C   UNL     1     -11.272  11.485  64.952  1.00  0.00    -0.242 C  
HETATM    8  C   UNL     1     -10.485  11.008  65.934  1.00  0.00    -0.300 C  
HETATM    9  C   UNL     1     -10.975  10.224  67.128  1.00  0.00    -0.233 C  
HETATM   10  C   UNL     1     -10.368   8.808  67.032  1.00  0.00    -0.353 C  
HETATM   11  C   UNL     1     -10.697  10.918  68.513  1.00  0.00    -0.239 C  
HETATM   12  C   UNL     1      -9.184  11.030  68.774  1.00  0.00    -0.167 C  
HETATM   13  C   UNL     1      -8.790  12.479  68.580  1.00  0.00     0.045 C  
HETATM   14  C   UNL     1     -10.062  13.288  68.294  1.00  0.00    -0.250 C  
HETATM   15  C   UNL     1      -9.930  14.691  68.880  1.00  0.00    -0.228 C  
HETATM   16  C   UNL     1     -11.127  15.207  69.632  1.00  0.00    -0.283 C  
HETATM   17  C   UNL     1      -8.799  15.409  68.684  1.00  0.00    -0.186 C  
HETATM   18  C   UNL     1     -11.789  14.176  70.557  1.00  0.00    -0.352 C  
HETATM   19  C   UNL     1     -12.588  12.662  68.032  1.00  0.00     1.110 C  
HETATM   20  C   UNL     1     -11.249  12.389  68.759  1.00  0.00    -0.318 C  
HETATM   21  C   UNL     1     -11.509  12.690  70.260  1.00  0.00     0.133 C  
BRANCH  17  22
HETATM   22  C   UNL     1      -8.697  16.843  68.831  1.00  0.00    -0.212 C  
HETATM   23  C   UNL     1      -9.382  17.840  68.237  1.00  0.00    -0.288 C  
HETATM   24  C   UNL     1      -9.176  19.251  68.767  1.00  0.00    -0.421 C  
HETATM   25  C   UNL     1      -8.775  20.231  67.667  1.00  0.00    -0.267 C  
HETATM   26  C   UNL     1      -9.791  20.205  66.526  1.00  0.00    -0.574 C  
HETATM   27  O   UNL     1      -7.469  19.946  67.177  1.00  0.00    -0.239 OA 
HETATM   28  C   UNL     1      -9.982  18.788  65.980  1.00  0.00    -0.255 C  
HETATM   29  H   UNL     1      -7.219  20.556  66.493  1.00  0.00     0.000 HD 
HETATM   30  O   UNL     1     -11.019  18.835  64.994  1.00  0.00    -0.520 OA 
HETATM   31  C   UNL     1     -10.297  17.778  67.087  1.00  0.00    -0.354 C  
HETATM   32  C   UNL     1     -11.361  16.957  67.044  1.00  0.00     0.546 C  
HETATM   33  H   UNL     1     -11.137  17.956  64.655  1.00  0.00     0.000 HD 
ENDBRANCH  17  22
ENDBRANCH   2   7
TORSDOF 3
ENDMDL
MODEL      110
REMARK 921   NORMALIZED FREE ENERGY PREDICTED BY IDOCK:   -3.63 KCAL/MOL
REMARK 922        TOTAL FREE ENERGY PREDICTED BY IDOCK:   -5.55 KCAL/MOL
REMARK 923 INTER-LIGAND FREE ENERGY PREDICTED BY IDOCK:   -4.49 KCAL/MOL
REMARK 924 INTRA-LIGAND FREE ENERGY PREDICTED BY IDOCK:   -1.05 KCAL/MOL
REMARK 927      BINDING AFFINITY PREDICTED BY RF-SCORE:    0.00 PKD
ROOT
HETATM    1  O   UNL     1     -10.484  13.655  67.642  1.00  0.00    -0.235 OA 
HETATM    2  C   UNL     1      -9.582  14.237  66.705  1.00  0.00    -0.289 C  
HETATM    3  H   UNL     1     -11.365  13.813  67.322  1.00  0.00     0.000 HD 
ENDROOT
BRANCH   2   4
HETATM    4  C   UNL     1      -9.976  15.680  66.506  1.00  0.00    -0.287 C  
HETATM    5  C   UNL     1      -9.021  16.799  66.836  1.00  0.00    -0.244 C  
HETATM    6  C   UNL     1     -10.224  16.563  67.705  1.00  0.00    -0.279 C  
ENDBRANCH   2   4
BRANCH   2   7
HETATM    7  C   UNL     1      -8.196  13.990  67.208  1.00  0.00    -0.187 C  
HETATM    8  C   UNL     1      -7.865  13.357  68.349  1.00  0.00    -0.138 C  
HETATM    9  C   UNL     1      -6.451  13.093  68.810  1.00  0.00    -0.095 C  
HETATM   10  C   UNL     1      -6.236  13.887  70.117  1.00  0.00    -0.123 C  
HETATM   11  C   UNL     1      -6.093  11.568  68.953  1.00  0.00    -0.052 C  
HETATM   12  C   UNL     1      -6.942  10.908  70.054  1.00  0.00    -0.036 C  
HETATM   13  C   UNL     1      -7.984  10.045  69.377  1.00  0.00    -0.145 C  
HETATM   14  C   UNL     1      -7.733  10.086  67.864  1.00  0.00    -0.090 C  
HETATM   15  C   UNL     1      -8.106   8.746  67.237  1.00  0.00    -0.101 C  
HETATM   16  C   UNL     1      -7.122   8.185  66.245  1.00  0.00    -0.073 C  
HETATM   17  C   UNL     1      -9.277   8.146  67.556  1.00  0.00    -0.154 C  
HETATM   18  C   UNL     1      -5.651   8.319  66.664  1.00  0.00    -0.032 C  
HETATM   19  C   UNL     1      -6.004  11.333  66.348  1.00  0.00    -0.128 C  
HETATM   20  C   UNL     1      -6.276  10.615  67.692  1.00  0.00    -0.055 C  
HETATM   21  C   UNL     1      -5.322   9.390  67.722  1.00  0.00    -0.037 C  
BRANCH  17  22
HETATM   22  C   UNL     1      -9.918   7.118  66.767  1.00  0.00    -0.278 C  
HETATM   23  C   UNL     1      -9.760   5.780  66.770  1.00  0.00    -0.172 C  
HETATM   24  C   UNL     1     -10.744   4.952  65.957  1.00  0.00    -0.247 C  
HETATM   25  C   UNL     1     -10.042   4.021  64.971  1.00  0.00    -0.195 C  
HETATM   26  C   UNL     1      -9.030   3.134  65.695  1.00  0.00    -0.145 C  
HETATM   27  O   UNL     1      -9.405   4.757  63.933  1.00  0.00    -0.332 OA 
HETATM   28  C   UNL     1      -8.028   3.969  66.496  1.00  0.00    -0.097 C  
HETATM   29  H   UNL     1      -8.968   4.178  63.319  1.00  0.00     0.000 HD 
HETATM   30  O   UNL     1      -7.188   3.065  67.223  1.00  0.00    -0.056 OA 
HETATM   31  C   UNL     1      -8.721   4.971  67.424  1.00  0.00    -0.103 C  
HETATM   32  C   UNL     1      -8.453   5.052  68.739  1.00  0.00    -0.087 C  
HETATM   33  H   UNL     1      -6.566   3.584  67.720  1.00  0.00     0.000 HD 
ENDBRANCH  17  22
ENDBRANCH   2   7
TORSDOF 3
ENDMDL
MODEL      111
REMARK 921   NORMALIZED FREE ENERGY PREDICTED BY IDOCK:   -3.60 KCAL/MOL
REMARK 922        TOTAL FREE ENERGY PREDICTED BY IDOCK:   -5.51 KCAL/MOL
REMARK 923 INTER-LIGAND FREE ENERGY PREDICTED BY IDOCK:   -3.77 KCAL/MOL
REMARK 924 INTRA-LIGAND FREE ENERGY PREDICTED BY IDOCK:   -1.74 KCAL/MOL
REMARK 927      BINDING AFFINITY PREDICTED BY RF-SCORE:    0.00 PKD
ROOT
HETATM    1  O   UNL     1      -6.599  17.098  69.175  1.00  0.00    -0.209 OA 
HETATM    2  C   UNL     1      -7.291  15.898  69.509  1.00  0.00    -0.170 C  
HETATM    3  H   UNL     1      -7.253  17.774  69.043  1.00  0.00     0.000 HD 
ENDROOT
BRANCH   2   4
HETATM    4  C   UNL     1      -8.321  15.635  68.439  1.00  0.00    -0.162 C  
HETATM    5  C   UNL     1      -9.776  15.965  68.663  1.00  0.00    -0.207 C  
HETATM    6  C   UNL     1      -9.332  14.530  68.625  1.00  0.00    -0.199 C  
ENDBRANCH   2   4
BRANCH   2   7
HETATM    7  C   UNL     1      -6.261  14.834  69.716  1.00  0.00    -0.144 C  
HETATM    8  C   UNL     1      -6.462  13.631  70.285  1.00  0.00     0.081 C  
HETATM    9  C   UNL     1      -5.405  12.565  70.446  1.00  0.00    -0.134 C  
HETATM   10  C   UNL     1      -5.181  12.362  71.961  1.00  0.00     0.171 C  
HETATM   11  C   UNL     1      -5.720  11.223  69.688  1.00  0.00    -0.068 C  
HETATM   12  C   UNL     1      -6.977  10.550  70.268  1.00  0.00    -0.046 C  
HETATM   13  C   UNL     1      -8.103  10.744  69.276  1.00  0.00    -0.102 C  
HETATM   14  C   UNL     1      -7.535  11.451  68.038  1.00  0.00    -0.100 C  
HETATM   15  C   UNL     1      -8.263  10.974  66.785  1.00  0.00    -0.149 C  
HETATM   16  C   UNL     1      -7.394  10.643  65.602  1.00  0.00    -0.087 C  
HETATM   17  C   UNL     1      -9.615  10.897  66.769  1.00  0.00    -0.210 C  
HETATM   18  C   UNL     1      -6.118   9.862  65.950  1.00  0.00    -0.074 C  
HETATM   19  C   UNL     1      -5.171  12.372  67.402  1.00  0.00    -0.092 C  
HETATM   20  C   UNL     1      -5.988  11.272  68.121  1.00  0.00    -0.045 C  
HETATM   21  C   UNL     1      -5.629   9.939  67.409  1.00  0.00    -0.042 C  
BRANCH  17  22
HETATM   22  C   UNL     1     -10.424  10.850  65.572  1.00  0.00    -0.286 C  
HETATM   23  C   UNL     1     -10.771  11.821  64.705  1.00  0.00    -0.363 C  
HETATM   24  C   UNL     1     -11.467  11.402  63.418  1.00  0.00    -0.124 C  
HETATM   25  C   UNL     1     -12.789  12.138  63.209  1.00  0.00    -0.173 C  
HETATM   26  C   UNL     1     -12.578  13.650  63.263  1.00  0.00     0.257 C  
HETATM   27  O   UNL     1     -13.758  11.736  64.169  1.00  0.00    -0.181 OA 
HETATM   28  C   UNL     1     -11.896  14.073  64.567  1.00  0.00    -0.434 C  
HETATM   29  H   UNL     1     -14.581  12.193  64.039  1.00  0.00     0.000 HD 
HETATM   30  O   UNL     1     -11.641  15.479  64.491  1.00  0.00    -0.552 OA 
HETATM   31  C   UNL     1     -10.614  13.277  64.834  1.00  0.00    -0.381 C  
HETATM   32  C   UNL     1      -9.433  13.864  65.091  1.00  0.00     0.456 C  
HETATM   33  H   UNL     1     -11.218  15.741  65.301  1.00  0.00     0.000 HD 
ENDBRANCH  17  22
ENDBRANCH   2   7
TORSDOF 3
ENDMDL
MODEL      112
REMARK 921   NORMALIZED FREE ENERGY PREDICTED BY IDOCK:   -3.33 KCAL/MOL
REMARK 922        TOTAL FREE ENERGY PREDICTED BY IDOCK:   -5.20 KCAL/MOL
REMARK 923 INTER-LIGAND FREE ENERGY PREDICTED BY IDOCK:   -4.22 KCAL/MOL
REMARK 924 INTRA-LIGAND FREE ENERGY PREDICTED BY IDOCK:   -0.97 KCAL/MOL
REMARK 927      BINDING AFFINITY PREDICTED BY RF-SCORE:    0.00 PKD
ROOT
HETATM    1  O   UNL     1      -6.077   6.034  68.777  1.00  0.00    -0.028 OA 
HETATM    2  C   UNL     1      -5.790   6.459  70.106  1.00  0.00    -0.018 C  
HETATM    3  H   UNL     1      -5.638   6.634  68.186  1.00  0.00     0.000 HD 
ENDROOT
BRANCH   2   4
HETATM    4  C   UNL     1      -6.167   7.915  70.227  1.00  0.00    -0.033 C  
HETATM    5  C   UNL     1      -5.204   8.921  70.805  1.00  0.00    -0.027 C  
HETATM    6  C   UNL     1      -6.420   8.515  71.588  1.00  0.00    -0.067 C  
ENDBRANCH   2   4
BRANCH   2   7
HETATM    7  C   UNL     1      -6.482   5.513  71.036  1.00  0.00    -0.036 C  
HETATM    8  C   UNL     1      -6.869   5.778  72.297  1.00  0.00    -0.073 C  
HETATM    9  C   UNL     1      -7.598   4.809  73.197  1.00  0.00    -0.092 C  
HETATM   10  C   UNL     1      -6.667   4.493  74.387  1.00  0.00    -0.065 C  
HETATM   11  C   UNL     1      -9.025   5.295  73.646  1.00  0.00    -0.124 C  
HETATM   12  C   UNL     1      -8.922   6.560  74.517  1.00  0.00    -0.197 C  
HETATM   13  C   UNL     1      -9.379   7.734  73.679  1.00  0.00    -0.336 C  
HETATM   14  C   UNL     1      -9.856   7.199  72.322  1.00  0.00    -0.174 C  
HETATM   15  C   UNL     1     -11.005   8.056  71.799  1.00  0.00    -0.305 C  
HETATM   16  C   UNL     1     -12.185   7.307  71.238  1.00  0.00    -0.389 C  
HETATM   17  C   UNL     1     -10.916   9.407  71.825  1.00  0.00    -0.288 C  
HETATM   18  C   UNL     1     -12.610   6.083  72.061  1.00  0.00     0.218 C  
HETATM   19  C   UNL     1      -9.957   4.816  71.248  1.00  0.00    -0.270 C  
HETATM   20  C   UNL     1     -10.094   5.672  72.530  1.00  0.00    -0.208 C  
HETATM   21  C   UNL     1     -11.558   5.483  73.014  1.00  0.00    -0.233 C  
BRANCH  17  22
HETATM   22  C   UNL     1     -11.722  10.302  71.026  1.00  0.00    -0.461 C  
HETATM   23  C   UNL     1     -11.576  10.719  69.753  1.00  0.00    -0.393 C  
HETATM   24  C   UNL     1     -12.720  11.506  69.133  1.00  0.00     0.698 C  
HETATM   25  C   UNL     1     -12.260  12.845  68.561  1.00  0.00     0.037 C  
HETATM   26  C   UNL     1     -11.119  12.641  67.566  1.00  0.00    -0.313 C  
HETATM   27  O   UNL     1     -11.865  13.737  69.596  1.00  0.00    -0.293 OA 
HETATM   28  C   UNL     1      -9.959  11.867  68.197  1.00  0.00    -0.197 C  
HETATM   29  H   UNL     1     -11.578  14.571  69.240  1.00  0.00     0.000 HD 
HETATM   30  O   UNL     1      -8.985  11.628  67.175  1.00  0.00    -0.164 OA 
HETATM   31  C   UNL     1     -10.423  10.563  68.854  1.00  0.00    -0.226 C  
HETATM   32  C   UNL     1      -9.870   9.370  68.576  1.00  0.00    -0.171 C  
HETATM   33  H   UNL     1      -8.265  11.148  67.567  1.00  0.00     0.000 HD 
ENDBRANCH  17  22
ENDBRANCH   2   7
TORSDOF 3
ENDMDL
MODEL      113
REMARK 921   NORMALIZED FREE ENERGY PREDICTED BY IDOCK:   -3.23 KCAL/MOL
REMARK 922        TOTAL FREE ENERGY PREDICTED BY IDOCK:   -5.07 KCAL/MOL
REMARK 923 INTER-LIGAND FREE ENERGY PREDICTED BY IDOCK:   -4.10 KCAL/MOL
REMARK 924 INTRA-LIGAND FREE ENERGY PREDICTED BY IDOCK:   -0.98 KCAL/MOL
REMARK 927      BINDING AFFINITY PREDICTED BY RF-SCORE:    0.00 PKD
ROOT
HETATM    1  O   UNL     1      -7.749   1.982  68.242  1.00  0.00    -0.053 OA 
HETATM    2  C   UNL     1      -6.776   2.911  68.711  1.00  0.00    -0.037 C  
HETATM    3  H   UNL     1      -7.647   1.916  67.300  1.00  0.00     0.000 HD 
ENDROOT
BRANCH   2   4
HETATM    4  C   UNL     1      -6.931   4.191  67.928  1.00  0.00    -0.059 C  
HETATM    5  C   UNL     1      -8.007   5.189  68.276  1.00  0.00    -0.087 C  
HETATM    6  C   UNL     1      -8.122   4.374  67.019  1.00  0.00    -0.101 C  
ENDBRANCH   2   4
BRANCH   2   7
HETATM    7  C   UNL     1      -6.938   3.014  70.194  1.00  0.00    -0.034 C  
HETATM    8  C   UNL     1      -6.364   3.930  70.995  1.00  0.00    -0.019 C  
HETATM    9  C   UNL     1      -6.577   4.027  72.487  1.00  0.00    -0.029 C  
HETATM   10  C   UNL     1      -5.222   3.738  73.167  1.00  0.00     0.000 C  
HETATM   11  C   UNL     1      -7.225   5.380  72.960  1.00  0.00    -0.090 C  
HETATM   12  C   UNL     1      -6.286   6.566  72.671  1.00  0.00    -0.058 C  
HETATM   13  C   UNL     1      -6.858   7.328  71.495  1.00  0.00    -0.055 C  
HETATM   14  C   UNL     1      -8.195   6.684  71.108  1.00  0.00    -0.120 C  
HETATM   15  C   UNL     1      -9.157   7.749  70.591  1.00  0.00    -0.153 C  
HETATM   16  C   UNL     1     -10.565   7.680  71.118  1.00  0.00    -0.235 C  
HETATM   17  C   UNL     1      -8.738   8.666  69.686  1.00  0.00    -0.132 C  
HETATM   18  C   UNL     1     -10.666   7.388  72.622  1.00  0.00    -0.334 C  
HETATM   19  C   UNL     1      -9.538   4.623  71.998  1.00  0.00    -0.205 C  
HETATM   20  C   UNL     1      -8.620   5.823  72.336  1.00  0.00    -0.121 C  
HETATM   21  C   UNL     1      -9.442   6.733  73.289  1.00  0.00    -0.172 C  
BRANCH  17  22
HETATM   22  C   UNL     1      -9.610   9.449  68.841  1.00  0.00    -0.155 C  
HETATM   23  C   UNL     1      -9.329  10.323  67.855  1.00  0.00    -0.147 C  
HETATM   24  C   UNL     1     -10.489  10.830  67.010  1.00  0.00    -0.297 C  
HETATM   25  C   UNL     1     -10.553  12.355  66.970  1.00  0.00    -0.225 C  
HETATM   26  C   UNL     1      -9.222  12.938  66.499  1.00  0.00    -0.186 C  
HETATM   27  O   UNL     1     -10.908  12.888  68.241  1.00  0.00    -0.225 OA 
HETATM   28  C   UNL     1      -8.059  12.444  67.363  1.00  0.00    -0.177 C  
HETATM   29  H   UNL     1     -10.949  13.837  68.216  1.00  0.00     0.000 HD 
HETATM   30  O   UNL     1      -6.846  12.948  66.793  1.00  0.00    -0.388 OA 
HETATM   31  C   UNL     1      -8.036  10.917  67.484  1.00  0.00    -0.116 C  
HETATM   32  C   UNL     1      -6.948  10.180  67.205  1.00  0.00    -0.087 C  
HETATM   33  H   UNL     1      -6.124  12.642  67.329  1.00  0.00     0.000 HD 
ENDBRANCH  17  22
ENDBRANCH   2   7
TORSDOF 3
ENDMDL
MODEL      114
REMARK 921   NORMALIZED FREE ENERGY PREDICTED BY IDOCK:   -3.23 KCAL/MOL
REMARK 922        TOTAL FREE ENERGY PREDICTED BY IDOCK:   -5.07 KCAL/MOL
REMARK 923 INTER-LIGAND FREE ENERGY PREDICTED BY IDOCK:   -4.01 KCAL/MOL
REMARK 924 INTRA-LIGAND FREE ENERGY PREDICTED BY IDOCK:   -1.06 KCAL/MOL
REMARK 927      BINDING AFFINITY PREDICTED BY RF-SCORE:    0.00 PKD
ROOT
HETATM    1  O   UNL     1     -10.308  19.810  69.446  1.00  0.00    -0.638 OA 
HETATM    2  C   UNL     1      -9.977  18.974  68.340  1.00  0.00    -0.408 C  
HETATM    3  H   UNL     1     -11.253  19.909  69.454  1.00  0.00     0.000 HD 
ENDROOT
BRANCH   2   4
HETATM    4  C   UNL     1     -10.601  19.567  67.100  1.00  0.00    -0.605 C  
HETATM    5  C   UNL     1     -10.543  18.843  65.779  1.00  0.00    -0.358 C  
HETATM    6  C   UNL     1      -9.718  20.080  65.988  1.00  0.00    -0.464 C  
ENDBRANCH   2   4
BRANCH   2   7
HETATM    7  C   UNL     1      -8.490  18.819  68.328  1.00  0.00    -0.357 C  
HETATM    8  C   UNL     1      -7.743  18.238  69.284  1.00  0.00     0.074 C  
HETATM    9  C   UNL     1      -6.244  18.067  69.223  1.00  0.00    -0.244 C  
HETATM   10  C   UNL     1      -5.636  18.907  70.366  1.00  0.00    -0.231 C  
HETATM   11  C   UNL     1      -5.764  16.569  69.241  1.00  0.00    -0.147 C  
HETATM   12  C   UNL     1      -6.132  15.893  70.574  1.00  0.00     0.135 C  
HETATM   13  C   UNL     1      -7.289  14.954  70.310  1.00  0.00     0.336 C  
HETATM   14  C   UNL     1      -7.585  14.968  68.805  1.00  0.00    -0.137 C  
HETATM   15  C   UNL     1      -8.069  13.592  68.357  1.00  0.00    -0.145 C  
HETATM   16  C   UNL     1      -7.461  13.059  67.087  1.00  0.00    -0.004 C  
HETATM   17  C   UNL     1      -9.016  12.936  69.070  1.00  0.00     0.505 C  
HETATM   18  C   UNL     1      -5.948  13.287  66.964  1.00  0.00     0.765 C  
HETATM   19  C   UNL     1      -6.576  16.266  66.771  1.00  0.00    -0.010 C  
HETATM   20  C   UNL     1      -6.316  15.572  68.130  1.00  0.00    -0.133 C  
HETATM   21  C   UNL     1      -5.337  14.404  67.832  1.00  0.00    -0.076 C  
BRANCH  17  22
HETATM   22  C   UNL     1      -9.826  11.851  68.562  1.00  0.00    -0.187 C  
HETATM   23  C   UNL     1      -9.604  10.523  68.540  1.00  0.00    -0.164 C  
HETATM   24  C   UNL     1     -10.757   9.622  68.120  1.00  0.00    -0.266 C  
HETATM   25  C   UNL     1     -10.374   8.686  66.976  1.00  0.00    -0.298 C  
HETATM   26  C   UNL     1      -9.133   7.873  67.339  1.00  0.00    -0.146 C  
HETATM   27  O   UNL     1     -10.159   9.410  65.770  1.00  0.00    -0.338 OA 
HETATM   28  C   UNL     1      -7.968   8.780  67.742  1.00  0.00    -0.106 C  
HETATM   29  H   UNL     1      -9.921   8.828  65.058  1.00  0.00     0.000 HD 
HETATM   30  O   UNL     1      -6.887   7.942  68.165  1.00  0.00    -0.064 OA 
HETATM   31  C   UNL     1      -8.365   9.785  68.826  1.00  0.00    -0.113 C  
HETATM   32  C   UNL     1      -7.680   9.927  69.974  1.00  0.00    -0.188 C  
HETATM   33  H   UNL     1      -6.164   8.505  68.414  1.00  0.00     0.000 HD 
ENDBRANCH  17  22
ENDBRANCH   2   7
TORSDOF 3
ENDMDL
MODEL      115
REMARK 921   NORMALIZED FREE ENERGY PREDICTED BY IDOCK:   -2.95 KCAL/MOL
REMARK 922        TOTAL FREE ENERGY PREDICTED BY IDOCK:   -4.75 KCAL/MOL
REMARK 923 INTER-LIGAND FREE ENERGY PREDICTED BY IDOCK:   -3.91 KCAL/MOL
REMARK 924 INTRA-LIGAND FREE ENERGY PREDICTED BY IDOCK:   -0.84 KCAL/MOL
REMARK 927      BINDING AFFINITY PREDICTED BY RF-SCORE:    0.00 PKD
ROOT
HETATM    1  O   UNL     1      -5.383   8.235  68.634  1.00  0.00    -0.031 OA 
HETATM    2  C   UNL     1      -6.149   7.308  69.400  1.00  0.00    -0.030 C  
HETATM    3  H   UNL     1      -4.573   8.390  69.106  1.00  0.00     0.000 HD 
ENDROOT
BRANCH   2   4
HETATM    4  C   UNL     1      -6.281   7.852  70.801  1.00  0.00    -0.034 C  
HETATM    5  C   UNL     1      -5.385   7.364  71.912  1.00  0.00    -0.036 C  
HETATM    6  C   UNL     1      -6.836   6.975  71.897  1.00  0.00    -0.060 C  
ENDBRANCH   2   4
BRANCH   2   7
HETATM    7  C   UNL     1      -7.424   7.064  68.658  1.00  0.00    -0.102 C  
HETATM    8  C   UNL     1      -8.642   7.525  68.996  1.00  0.00    -0.136 C  
HETATM    9  C   UNL     1      -9.905   7.288  68.203  1.00  0.00    -0.165 C  
HETATM   10  C   UNL     1     -10.851   6.442  69.083  1.00  0.00    -0.382 C  
HETATM   11  C   UNL     1     -10.582   8.600  67.660  1.00  0.00    -0.272 C  
HETATM   12  C   UNL     1     -11.069   9.485  68.822  1.00  0.00    -0.044 C  
HETATM   13  C   UNL     1     -10.124  10.662  68.930  1.00  0.00    -0.215 C  
HETATM   14  C   UNL     1      -9.107  10.569  67.785  1.00  0.00    -0.140 C  
HETATM   15  C   UNL     1      -8.714  11.969  67.323  1.00  0.00    -0.175 C  
HETATM   16  C   UNL     1      -8.675  12.186  65.834  1.00  0.00     0.266 C  
HETATM   17  C   UNL     1      -8.393  12.922  68.230  1.00  0.00    -0.157 C  
HETATM   18  C   UNL     1      -9.848  11.556  65.070  1.00  0.00    -0.294 C  
HETATM   19  C   UNL     1      -8.697   8.844  65.862  1.00  0.00    -0.197 C  
HETATM   20  C   UNL     1      -9.728   9.584  66.748  1.00  0.00    -0.254 C  
HETATM   21  C   UNL     1     -10.608  10.416  65.775  1.00  0.00    -0.100 C  
BRANCH  17  22
HETATM   22  C   UNL     1      -7.643  14.122  67.935  1.00  0.00    -0.162 C  
HETATM   23  C   UNL     1      -6.603  14.690  68.576  1.00  0.00    -0.095 C  
HETATM   24  C   UNL     1      -5.897  15.849  67.888  1.00  0.00    -0.155 C  
HETATM   25  C   UNL     1      -5.820  17.090  68.775  1.00  0.00    -0.146 C  
HETATM   26  C   UNL     1      -5.166  16.754  70.114  1.00  0.00    -0.191 C  
HETATM   27  O   UNL     1      -7.109  17.657  68.979  1.00  0.00    -0.250 OA 
HETATM   28  C   UNL     1      -5.889  15.601  70.816  1.00  0.00     0.098 C  
HETATM   29  H   UNL     1      -7.061  18.429  69.530  1.00  0.00     0.000 HD 
HETATM   30  O   UNL     1      -5.155  15.282  72.002  1.00  0.00    -0.167 OA 
HETATM   31  C   UNL     1      -6.053  14.381  69.905  1.00  0.00    -0.141 C  
HETATM   32  C   UNL     1      -5.660  13.147  70.262  1.00  0.00    -0.141 C  
HETATM   33  H   UNL     1      -5.604  14.567  72.438  1.00  0.00     0.000 HD 
ENDBRANCH  17  22
ENDBRANCH   2   7
TORSDOF 3
ENDMDL
MODEL      116
REMARK 921   NORMALIZED FREE ENERGY PREDICTED BY IDOCK:   -2.94 KCAL/MOL
REMARK 922        TOTAL FREE ENERGY PREDICTED BY IDOCK:   -4.74 KCAL/MOL
REMARK 923 INTER-LIGAND FREE ENERGY PREDICTED BY IDOCK:   -3.20 KCAL/MOL
REMARK 924 INTRA-LIGAND FREE ENERGY PREDICTED BY IDOCK:   -1.54 KCAL/MOL
REMARK 927      BINDING AFFINITY PREDICTED BY RF-SCORE:    0.00 PKD
ROOT
HETATM    1  O   UNL     1     -11.505   5.690  65.839  1.00  0.00    -0.569 OA 
HETATM    2  C   UNL     1     -10.131   5.860  66.178  1.00  0.00     0.039 C  
HETATM    3  H   UNL     1     -11.943   6.515  66.013  1.00  0.00     0.000 HD 
ENDROOT
BRANCH   2   4
HETATM    4  C   UNL     1     -10.055   6.376  67.593  1.00  0.00    -0.181 C  
HETATM    5  C   UNL     1      -9.713   7.817  67.878  1.00  0.00    -0.181 C  
HETATM    6  C   UNL     1      -8.717   6.737  68.190  1.00  0.00    -0.122 C  
ENDBRANCH   2   4
BRANCH   2   7
HETATM    7  C   UNL     1      -9.442   4.561  65.905  1.00  0.00    -0.171 C  
HETATM    8  C   UNL     1      -8.130   4.393  65.655  1.00  0.00    -0.105 C  
HETATM    9  C   UNL     1      -7.461   3.060  65.419  1.00  0.00    -0.073 C  
HETATM   10  C   UNL     1      -6.930   3.061  63.969  1.00  0.00    -0.044 C  
HETATM   11  C   UNL     1      -6.355   2.697  66.477  1.00  0.00    -0.025 C  
HETATM   12  C   UNL     1      -5.180   3.688  66.402  1.00  0.00    -0.009 C  
HETATM   13  C   UNL     1      -5.269   4.599  67.607  1.00  0.00    -0.011 C  
HETATM   14  C   UNL     1      -6.435   4.123  68.484  1.00  0.00    -0.037 C  
HETATM   15  C   UNL     1      -6.115   4.370  69.955  1.00  0.00    -0.019 C  
HETATM   16  C   UNL     1      -6.424   3.237  70.897  1.00  0.00    -0.027 C  
HETATM   17  C   UNL     1      -5.615   5.563  70.354  1.00  0.00    -0.009 C  
HETATM   18  C   UNL     1      -6.031   1.849  70.371  1.00  0.00    -0.018 C  
HETATM   19  C   UNL     1      -8.206   2.211  68.262  1.00  0.00    -0.072 C  
HETATM   20  C   UNL     1      -6.747   2.668  68.018  1.00  0.00    -0.040 C  
HETATM   21  C   UNL     1      -5.854   1.705  68.847  1.00  0.00    -0.023 C  
BRANCH  17  22
HETATM   22  C   UNL     1      -5.644   6.057  71.713  1.00  0.00    -0.026 C  
HETATM   23  C   UNL     1      -6.677   6.435  72.490  1.00  0.00    -0.065 C  
HETATM   24  C   UNL     1      -6.391   6.712  73.959  1.00  0.00    -0.065 C  
HETATM   25  C   UNL     1      -6.869   8.096  74.392  1.00  0.00    -0.138 C  
HETATM   26  C   UNL     1      -8.350   8.279  74.067  1.00  0.00    -0.259 C  
HETATM   27  O   UNL     1      -6.095   9.121  73.780  1.00  0.00    -0.295 OA 
HETATM   28  C   UNL     1      -8.634   8.020  72.585  1.00  0.00    -0.179 C  
HETATM   29  H   UNL     1      -6.392   9.982  74.050  1.00  0.00     0.000 HD 
HETATM   30  O   UNL     1     -10.049   8.109  72.389  1.00  0.00    -0.232 OA 
HETATM   31  C   UNL     1      -8.079   6.672  72.116  1.00  0.00    -0.105 C  
HETATM   32  C   UNL     1      -8.831   5.756  71.483  1.00  0.00    -0.139 C  
HETATM   33  H   UNL     1     -10.225   7.949  71.469  1.00  0.00     0.000 HD 
ENDBRANCH  17  22
ENDBRANCH   2   7
TORSDOF 3
ENDMDL
MODEL      117
REMARK 921   NORMALIZED FREE ENERGY PREDICTED BY IDOCK:   -2.93 KCAL/MOL
REMARK 922        TOTAL FREE ENERGY PREDICTED BY IDOCK:   -4.72 KCAL/MOL
REMARK 923 INTER-LIGAND FREE ENERGY PREDICTED BY IDOCK:   -3.66 KCAL/MOL
REMARK 924 INTRA-LIGAND FREE ENERGY PREDICTED BY IDOCK:   -1.05 KCAL/MOL
REMARK 927      BINDING AFFINITY PREDICTED BY RF-SCORE:    0.00 PKD
ROOT
HETATM    1  O   UNL     1      -6.843   8.259  70.721  1.00  0.00    -0.037 OA 
HETATM    2  C   UNL     1      -6.261   7.668  71.880  1.00  0.00    -0.039 C  
HETATM    3  H   UNL     1      -6.417   9.098  70.588  1.00  0.00     0.000 HD 
ENDROOT
BRANCH   2   4
HETATM    4  C   UNL     1      -6.360   8.658  73.013  1.00  0.00    -0.071 C  
HETATM    5  C   UNL     1      -5.134   9.359  73.543  1.00  0.00    -0.104 C  
HETATM    6  C   UNL     1      -5.808   8.302  74.372  1.00  0.00    -0.108 C  
ENDBRANCH   2   4
BRANCH   2   7
HETATM    7  C   UNL     1      -6.931   6.347  72.090  1.00  0.00    -0.073 C  
HETATM    8  C   UNL     1      -8.249   6.099  71.990  1.00  0.00    -0.110 C  
HETATM    9  C   UNL     1      -8.888   4.743  72.174  1.00  0.00    -0.135 C  
HETATM   10  C   UNL     1      -9.801   4.828  73.416  1.00  0.00    -0.165 C  
HETATM   11  C   UNL     1      -9.635   4.203  70.900  1.00  0.00    -0.250 C  
HETATM   12  C   UNL     1     -10.834   5.102  70.547  1.00  0.00    -0.004 C  
HETATM   13  C   UNL     1     -10.460   5.908  69.322  1.00  0.00    -0.342 C  
HETATM   14  C   UNL     1      -9.073   5.451  68.851  1.00  0.00    -0.138 C  
HETATM   15  C   UNL     1      -8.982   5.542  67.331  1.00  0.00    -0.107 C  
HETATM   16  C   UNL     1      -8.365   4.360  66.634  1.00  0.00    -0.105 C  
HETATM   17  C   UNL     1      -9.412   6.654  66.687  1.00  0.00    -0.201 C  
HETATM   18  C   UNL     1      -8.816   2.996  67.177  1.00  0.00    -0.161 C  
HETATM   19  C   UNL     1      -7.338   3.711  69.747  1.00  0.00    -0.045 C  
HETATM   20  C   UNL     1      -8.828   4.071  69.535  1.00  0.00    -0.143 C  
HETATM   21  C   UNL     1      -9.404   2.972  68.601  1.00  0.00    -0.237 C  
BRANCH  17  22
HETATM   22  C   UNL     1      -9.031   7.028  65.344  1.00  0.00     0.178 C  
HETATM   23  C   UNL     1      -8.041   7.825  64.899  1.00  0.00    -0.136 C  
HETATM   24  C   UNL     1      -7.773   7.850  63.402  1.00  0.00    -0.140 C  
HETATM   25  C   UNL     1      -7.802   9.266  62.831  1.00  0.00    -0.129 C  
HETATM   26  C   UNL     1      -6.831  10.171  63.587  1.00  0.00    -0.112 C  
HETATM   27  O   UNL     1      -9.118   9.808  62.868  1.00  0.00    -0.250 OA 
HETATM   28  C   UNL     1      -7.114  10.161  65.092  1.00  0.00    -0.137 C  
HETATM   29  H   UNL     1      -9.136  10.689  62.512  1.00  0.00     0.000 HD 
HETATM   30  O   UNL     1      -6.100  10.944  65.732  1.00  0.00    -0.224 OA 
HETATM   31  C   UNL     1      -7.177   8.740  65.660  1.00  0.00    -0.084 C  
HETATM   32  C   UNL     1      -6.448   8.345  66.718  1.00  0.00    -0.056 C  
HETATM   33  H   UNL     1      -6.276  10.938  66.666  1.00  0.00     0.000 HD 
ENDBRANCH  17  22
ENDBRANCH   2   7
TORSDOF 3
ENDMDL
MODEL      118
REMARK 921   NORMALIZED FREE ENERGY PREDICTED BY IDOCK:   -2.74 KCAL/MOL
REMARK 922        TOTAL FREE ENERGY PREDICTED BY IDOCK:   -4.50 KCAL/MOL
REMARK 923 INTER-LIGAND FREE ENERGY PREDICTED BY IDOCK:   -3.38 KCAL/MOL
REMARK 924 INTRA-LIGAND FREE ENERGY PREDICTED BY IDOCK:   -1.12 KCAL/MOL
REMARK 927      BINDING AFFINITY PREDICTED BY RF-SCORE:    0.00 PKD
ROOT
HETATM    1  O   UNL     1     -11.071  13.560  69.937  1.00  0.00    -0.468 OA 
HETATM    2  C   UNL     1     -11.844  14.613  69.368  1.00  0.00    -0.329 C  
HETATM    3  H   UNL     1     -11.668  12.998  70.416  1.00  0.00     0.000 HD 
ENDROOT
BRANCH   2   4
HETATM    4  C   UNL     1     -12.636  15.265  70.474  1.00  0.00    -0.450 C  
HETATM    5  C   UNL     1     -12.046  15.450  71.849  1.00  0.00    -0.463 C  
HETATM    6  C   UNL     1     -13.131  14.434  71.632  1.00  0.00    -0.421 C  
ENDBRANCH   2   4
BRANCH   2   7
HETATM    7  C   UNL     1     -10.903  15.498  68.613  1.00  0.00    -0.267 C  
HETATM    8  C   UNL     1      -9.854  16.166  69.127  1.00  0.00    -0.250 C  
HETATM    9  C   UNL     1      -8.903  17.024  68.327  1.00  0.00    -0.242 C  
HETATM   10  C   UNL     1      -9.063  18.477  68.824  1.00  0.00    -0.283 C  
HETATM   11  C   UNL     1      -7.410  16.528  68.351  1.00  0.00    -0.179 C  
HETATM   12  C   UNL     1      -6.831  16.609  69.775  1.00  0.00     0.083 C  
HETATM   13  C   UNL     1      -6.742  15.198  70.317  1.00  0.00    -0.000 C  
HETATM   14  C   UNL     1      -7.172  14.230  69.207  1.00  0.00    -0.083 C  
HETATM   15  C   UNL     1      -6.388  12.926  69.321  1.00  0.00    -0.108 C  
HETATM   16  C   UNL     1      -5.835  12.374  68.034  1.00  0.00    -0.073 C  
HETATM   17  C   UNL     1      -6.248  12.316  70.522  1.00  0.00     0.234 C  
HETATM   18  C   UNL     1      -5.214  13.428  67.106  1.00  0.00     0.554 C  
HETATM   19  C   UNL     1      -8.030  14.547  66.757  1.00  0.00     0.225 C  
HETATM   20  C   UNL     1      -7.087  15.043  67.880  1.00  0.00    -0.165 C  
HETATM   21  C   UNL     1      -5.645  14.891  67.324  1.00  0.00     0.498 C  
BRANCH  17  22
HETATM   22  C   UNL     1      -5.891  10.927  70.704  1.00  0.00    -0.107 C  
HETATM   23  C   UNL     1      -6.596   9.801  70.482  1.00  0.00    -0.117 C  
HETATM   24  C   UNL     1      -5.856   8.475  70.578  1.00  0.00    -0.027 C  
HETATM   25  C   UNL     1      -6.530   7.504  71.545  1.00  0.00    -0.039 C  
HETATM   26  C   UNL     1      -7.996   7.299  71.168  1.00  0.00    -0.101 C  
HETATM   27  O   UNL     1      -6.420   7.958  72.889  1.00  0.00    -0.063 OA 
HETATM   28  C   UNL     1      -8.745   8.632  71.092  1.00  0.00    -0.197 C  
HETATM   29  H   UNL     1      -6.839   7.354  73.491  1.00  0.00     0.000 HD 
HETATM   30  O   UNL     1     -10.073   8.361  70.633  1.00  0.00    -0.188 OA 
HETATM   31  C   UNL     1      -8.030   9.647  70.195  1.00  0.00    -0.189 C  
HETATM   32  C   UNL     1      -8.645  10.286  69.185  1.00  0.00    -0.167 C  
HETATM   33  H   UNL     1     -10.538   9.189  70.586  1.00  0.00     0.000 HD 
ENDBRANCH  17  22
ENDBRANCH   2   7
TORSDOF 3
ENDMDL
MODEL      119
REMARK 921   NORMALIZED FREE ENERGY PREDICTED BY IDOCK:   -2.72 KCAL/MOL
REMARK 922        TOTAL FREE ENERGY PREDICTED BY IDOCK:   -4.48 KCAL/MOL
REMARK 923 INTER-LIGAND FREE ENERGY PREDICTED BY IDOCK:   -3.55 KCAL/MOL
REMARK 924 INTRA-LIGAND FREE ENERGY PREDICTED BY IDOCK:   -0.93 KCAL/MOL
REMARK 927      BINDING AFFINITY PREDICTED BY RF-SCORE:    0.00 PKD
ROOT
HETATM    1  O   UNL     1      -9.777  15.238  69.441  1.00  0.00    -0.237 OA 
HETATM    2  C   UNL     1      -9.950  15.052  68.038  1.00  0.00    -0.219 C  
HETATM    3  H   UNL     1     -10.627  15.455  69.804  1.00  0.00     0.000 HD 
ENDROOT
BRANCH   2   4
HETATM    4  C   UNL     1     -10.624  16.281  67.481  1.00  0.00    -0.310 C  
HETATM    5  C   UNL     1      -9.853  17.290  66.668  1.00  0.00    -0.299 C  
HETATM    6  C   UNL     1     -10.306  17.639  68.057  1.00  0.00    -0.375 C  
ENDBRANCH   2   4
BRANCH   2   7
HETATM    7  C   UNL     1      -8.611  14.711  67.466  1.00  0.00    -0.196 C  
HETATM    8  C   UNL     1      -7.526  14.319  68.159  1.00  0.00    -0.131 C  
HETATM    9  C   UNL     1      -6.198  13.948  67.544  1.00  0.00    -0.016 C  
HETATM   10  C   UNL     1      -5.159  14.982  68.029  1.00  0.00    -0.115 C  
HETATM   11  C   UNL     1      -5.756  12.463  67.812  1.00  0.00    -0.105 C  
HETATM   12  C   UNL     1      -5.516  12.226  69.314  1.00  0.00    -0.071 C  
HETATM   13  C   UNL     1      -6.674  11.407  69.841  1.00  0.00    -0.032 C  
HETATM   14  C   UNL     1      -7.586  11.050  68.661  1.00  0.00    -0.124 C  
HETATM   15  C   UNL     1      -8.215   9.677  68.885  1.00  0.00    -0.110 C  
HETATM   16  C   UNL     1      -8.209   8.747  67.701  1.00  0.00    -0.110 C  
HETATM   17  C   UNL     1      -8.764   9.366  70.083  1.00  0.00    -0.245 C  
HETATM   18  C   UNL     1      -6.895   8.738  66.907  1.00  0.00    -0.070 C  
HETATM   19  C   UNL     1      -7.547  11.609  66.106  1.00  0.00     0.281 C  
HETATM   20  C   UNL     1      -6.729  11.282  67.379  1.00  0.00    -0.085 C  
HETATM   21  C   UNL     1      -5.972   9.961  67.072  1.00  0.00    -0.051 C  
BRANCH  17  22
HETATM   22  C   UNL     1      -9.713   8.297  70.302  1.00  0.00    -0.177 C  
HETATM   23  C   UNL     1      -9.545   7.061  70.810  1.00  0.00    -0.164 C  
HETATM   24  C   UNL     1     -10.794   6.243  71.104  1.00  0.00    -0.320 C  
HETATM   25  C   UNL     1     -10.763   4.874  70.428  1.00  0.00     0.211 C  
HETATM   26  C   UNL     1      -9.495   4.114  70.811  1.00  0.00    -0.242 C  
HETATM   27  O   UNL     1     -10.862   4.997  69.013  1.00  0.00     0.106 OA 
HETATM   28  C   UNL     1      -8.238   4.929  70.495  1.00  0.00    -0.096 C  
HETATM   29  H   UNL     1     -10.843   4.146  68.593  1.00  0.00     0.000 HD 
HETATM   30  O   UNL     1      -7.108   4.195  70.978  1.00  0.00    -0.035 OA 
HETATM   31  C   UNL     1      -8.297   6.338  71.093  1.00  0.00    -0.124 C  
HETATM   32  C   UNL     1      -7.322   6.841  71.871  1.00  0.00    -0.085 C  
HETATM   33  H   UNL     1      -6.328   4.700  70.782  1.00  0.00     0.000 HD 
ENDBRANCH  17  22
ENDBRANCH   2   7
TORSDOF 3
ENDMDL
MODEL      120
REMARK 921   NORMALIZED FREE ENERGY PREDICTED BY IDOCK:   -2.69 KCAL/MOL
REMARK 922        TOTAL FREE ENERGY PREDICTED BY IDOCK:   -4.45 KCAL/MOL
REMARK 923 INTER-LIGAND FREE ENERGY PREDICTED BY IDOCK:   -3.42 KCAL/MOL
REMARK 924 INTRA-LIGAND FREE ENERGY PREDICTED BY IDOCK:   -1.03 KCAL/MOL
REMARK 927      BINDING AFFINITY PREDICTED BY RF-SCORE:    0.00 PKD
ROOT
HETATM    1  O   UNL     1      -5.951  13.749  68.615  1.00  0.00    -0.079 OA 
HETATM    2  C   UNL     1      -6.020  12.729  69.607  1.00  0.00    -0.121 C  
HETATM    3  H   UNL     1      -5.409  14.447  68.963  1.00  0.00     0.000 HD 
ENDROOT
BRANCH   2   4
HETATM    4  C   UNL     1      -6.482  13.358  70.898  1.00  0.00     0.759 C  
HETATM    5  C   UNL     1      -7.278  14.639  70.897  1.00  0.00     1.147 C  
HETATM    6  C   UNL     1      -5.853  14.646  71.372  1.00  0.00     0.003 C  
ENDBRANCH   2   4
BRANCH   2   7
HETATM    7  C   UNL     1      -6.875  11.631  69.059  1.00  0.00    -0.105 C  
HETATM    8  C   UNL     1      -8.121  11.318  69.459  1.00  0.00     0.378 C  
HETATM    9  C   UNL     1      -8.971  10.224  68.858  1.00  0.00    -0.164 C  
HETATM   10  C   UNL     1      -9.201   9.163  69.955  1.00  0.00    -0.209 C  
HETATM   11  C   UNL     1     -10.308  10.731  68.203  1.00  0.00    -0.197 C  
HETATM   12  C   UNL     1     -11.239  11.342  69.267  1.00  0.00    -0.336 C  
HETATM   13  C   UNL     1     -11.215  12.845  69.089  1.00  0.00    -0.293 C  
HETATM   14  C   UNL     1     -10.351  13.170  67.864  1.00  0.00    -0.232 C  
HETATM   15  C   UNL     1     -10.897  14.406  67.155  1.00  0.00    -0.292 C  
HETATM   16  C   UNL     1     -10.995  14.318  65.655  1.00  0.00    -0.309 C  
HETATM   17  C   UNL     1     -11.232  15.509  67.866  1.00  0.00    -0.325 C  
HETATM   18  C   UNL     1     -11.532  12.979  65.132  1.00  0.00    -0.338 C  
HETATM   19  C   UNL     1      -8.963  11.719  66.188  1.00  0.00    -0.145 C  
HETATM   20  C   UNL     1     -10.234  11.837  67.063  1.00  0.00    -0.240 C  
HETATM   21  C   UNL     1     -11.435  11.769  66.081  1.00  0.00    -0.288 C  
BRANCH  17  22
HETATM   22  C   UNL     1     -11.374  16.836  67.311  1.00  0.00     0.361 C  
HETATM   23  C   UNL     1     -10.471  17.647  66.725  1.00  0.00    -0.289 C  
HETATM   24  C   UNL     1     -10.989  18.910  66.054  1.00  0.00    -0.019 C  
HETATM   25  C   UNL     1     -10.286  20.167  66.563  1.00  0.00    -0.433 C  
HETATM   26  C   UNL     1      -8.771  20.034  66.411  1.00  0.00    -0.364 C  
HETATM   27  O   UNL     1     -10.629  20.435  67.917  1.00  0.00    -0.186 OA 
HETATM   28  C   UNL     1      -8.249  18.773  67.105  1.00  0.00    -0.265 C  
HETATM   29  H   UNL     1     -10.192  21.216  68.234  1.00  0.00     0.000 HD 
HETATM   30  O   UNL     1      -6.848  18.670  66.827  1.00  0.00    -0.189 OA 
HETATM   31  C   UNL     1      -9.008  17.516  66.669  1.00  0.00    -0.283 C  
HETATM   32  C   UNL     1      -8.390  16.416  66.206  1.00  0.00    -0.362 C  
HETATM   33  H   UNL     1      -6.524  17.887  67.257  1.00  0.00     0.000 HD 
ENDBRANCH  17  22
ENDBRANCH   2   7
TORSDOF 3
ENDMDL
MODEL      121
REMARK 921   NORMALIZED FREE ENERGY PREDICTED BY IDOCK:   -2.63 KCAL/MOL
REMARK 922        TOTAL FREE ENERGY PREDICTED BY IDOCK:   -4.37 KCAL/MOL
REMARK 923 INTER-LIGAND FREE ENERGY PREDICTED BY IDOCK:   -3.80 KCAL/MOL
REMARK 924 INTRA-LIGAND FREE ENERGY PREDICTED BY IDOCK:   -0.57 KCAL/MOL
REMARK 927      BINDING AFFINITY PREDICTED BY RF-SCORE:    0.00 PKD
ROOT
HETATM    1  O   UNL     1     -13.771  13.922  65.460  1.00  0.00    -0.469 OA 
HETATM    2  C   UNL     1     -12.432  13.654  65.053  1.00  0.00    -0.414 C  
HETATM    3  H   UNL     1     -14.116  14.589  64.877  1.00  0.00     0.000 HD 
ENDROOT
BRANCH   2   4
HETATM    4  C   UNL     1     -11.682  14.963  65.011  1.00  0.00    -0.329 C  
HETATM    5  C   UNL     1     -10.177  15.000  65.097  1.00  0.00    -0.399 C  
HETATM    6  C   UNL     1     -11.004  15.480  66.256  1.00  0.00    -0.242 C  
ENDBRANCH   2   4
BRANCH   2   7
HETATM    7  C   UNL     1     -11.889  12.606  65.971  1.00  0.00    -0.492 C  
HETATM    8  C   UNL     1     -10.696  11.994  65.863  1.00  0.00    -0.314 C  
HETATM    9  C   UNL     1     -10.164  10.963  66.830  1.00  0.00    -0.272 C  
HETATM   10  C   UNL     1     -10.028   9.633  66.058  1.00  0.00    -0.344 C  
HETATM   11  C   UNL     1      -8.837  11.387  67.560  1.00  0.00    -0.146 C  
HETATM   12  C   UNL     1      -7.683  11.538  66.552  1.00  0.00    -0.052 C  
HETATM   13  C   UNL     1      -7.420  13.018  66.373  1.00  0.00     1.484 C  
HETATM   14  C   UNL     1      -8.336  13.788  67.333  1.00  0.00    -0.201 C  
HETATM   15  C   UNL     1      -7.635  15.054  67.818  1.00  0.00    -0.175 C  
HETATM   16  C   UNL     1      -7.733  15.339  69.293  1.00  0.00    -0.214 C  
HETATM   17  C   UNL     1      -7.002  15.864  66.937  1.00  0.00    -0.077 C  
HETATM   18  C   UNL     1      -7.546  14.107  70.191  1.00  0.00     0.851 C  
HETATM   19  C   UNL     1     -10.178  13.073  69.046  1.00  0.00     0.097 C  
HETATM   20  C   UNL     1      -8.816  12.745  68.388  1.00  0.00    -0.117 C  
HETATM   21  C   UNL     1      -7.777  12.729  69.542  1.00  0.00     0.842 C  
BRANCH  17  22
HETATM   22  C   UNL     1      -6.657  17.246  67.188  1.00  0.00    -0.203 C  
HETATM   23  C   UNL     1      -7.434  18.310  67.470  1.00  0.00    -0.216 C  
HETATM   24  C   UNL     1      -6.741  19.598  67.890  1.00  0.00    -0.275 C  
HETATM   25  C   UNL     1      -7.164  20.789  67.033  1.00  0.00    -0.310 C  
HETATM   26  C   UNL     1      -8.684  20.944  67.040  1.00  0.00    -0.071 C  
HETATM   27  O   UNL     1      -6.682  20.660  65.700  1.00  0.00    -0.356 OA 
HETATM   28  C   UNL     1      -9.379  19.654  66.597  1.00  0.00    -0.376 C  
HETATM   29  H   UNL     1      -6.945  21.401  65.167  1.00  0.00     0.000 HD 
HETATM   30  O   UNL     1     -10.791  19.850  66.732  1.00  0.00    -0.442 OA 
HETATM   31  C   UNL     1      -8.897  18.436  67.390  1.00  0.00    -0.262 C  
HETATM   32  C   UNL     1      -9.738  17.596  68.018  1.00  0.00    -0.301 C  
HETATM   33  H   UNL     1     -11.222  19.050  66.457  1.00  0.00     0.000 HD 
ENDBRANCH  17  22
ENDBRANCH   2   7
TORSDOF 3
ENDMDL
MODEL      122
REMARK 921   NORMALIZED FREE ENERGY PREDICTED BY IDOCK:   -2.55 KCAL/MOL
REMARK 922        TOTAL FREE ENERGY PREDICTED BY IDOCK:   -4.28 KCAL/MOL
REMARK 923 INTER-LIGAND FREE ENERGY PREDICTED BY IDOCK:   -3.88 KCAL/MOL
REMARK 924 INTRA-LIGAND FREE ENERGY PREDICTED BY IDOCK:   -0.41 KCAL/MOL
REMARK 927      BINDING AFFINITY PREDICTED BY RF-SCORE:    0.00 PKD
ROOT
HETATM    1  O   UNL     1     -10.060   8.969  65.379  1.00  0.00    -0.315 OA 
HETATM    2  C   UNL     1      -9.802   9.994  66.335  1.00  0.00    -0.224 C  
HETATM    3  H   UNL     1     -10.994   8.972  65.206  1.00  0.00     0.000 HD 
ENDROOT
BRANCH   2   4
HETATM    4  C   UNL     1     -10.705   9.768  67.522  1.00  0.00    -0.327 C  
HETATM    5  C   UNL     1     -11.229  10.926  68.333  1.00  0.00    -0.347 C  
HETATM    6  C   UNL     1     -10.187  10.016  68.918  1.00  0.00    -0.206 C  
ENDBRANCH   2   4
BRANCH   2   7
HETATM    7  C   UNL     1      -8.332   9.989  66.607  1.00  0.00    -0.125 C  
HETATM    8  C   UNL     1      -7.730  10.408  67.735  1.00  0.00    -0.089 C  
HETATM    9  C   UNL     1      -6.242  10.356  67.990  1.00  0.00    -0.055 C  
HETATM   10  C   UNL     1      -5.746  11.812  68.123  1.00  0.00    -0.047 C  
HETATM   11  C   UNL     1      -5.828   9.452  69.208  1.00  0.00    -0.035 C  
HETATM   12  C   UNL     1      -6.381  10.024  70.526  1.00  0.00    -0.116 C  
HETATM   13  C   UNL     1      -7.533   9.145  70.961  1.00  0.00    -0.120 C  
HETATM   14  C   UNL     1      -7.643   7.975  69.976  1.00  0.00    -0.082 C  
HETATM   15  C   UNL     1      -8.123   6.723  70.704  1.00  0.00    -0.119 C  
HETATM   16  C   UNL     1      -7.387   5.449  70.385  1.00  0.00    -0.070 C  
HETATM   17  C   UNL     1      -9.174   6.789  71.556  1.00  0.00    -0.149 C  
HETATM   18  C   UNL     1      -5.862   5.604  70.294  1.00  0.00    -0.024 C  
HETATM   19  C   UNL     1      -6.344   7.303  67.807  1.00  0.00    -0.048 C  
HETATM   20  C   UNL     1      -6.279   7.927  69.222  1.00  0.00    -0.035 C  
HETATM   21  C   UNL     1      -5.318   7.024  70.042  1.00  0.00    -0.019 C  
BRANCH  17  22
HETATM   22  C   UNL     1      -9.959   5.655  71.987  1.00  0.00    -0.217 C  
HETATM   23  C   UNL     1      -9.690   4.691  72.889  1.00  0.00    -0.168 C  
HETATM   24  C   UNL     1     -10.821   3.746  73.270  1.00  0.00    -0.293 C  
HETATM   25  C   UNL     1     -10.437   2.279  73.089  1.00  0.00    -0.143 C  
HETATM   26  C   UNL     1      -9.157   1.959  73.861  1.00  0.00    -0.067 C  
HETATM   27  O   UNL     1     -10.282   1.955  71.713  1.00  0.00    -0.152 OA 
HETATM   28  C   UNL     1      -8.015   2.897  73.462  1.00  0.00    -0.064 C  
HETATM   29  H   UNL     1     -10.044   1.042  71.600  1.00  0.00     0.000 HD 
HETATM   30  O   UNL     1      -6.893   2.600  74.300  1.00  0.00    -0.029 OA 
HETATM   31  C   UNL     1      -8.418   4.371  73.553  1.00  0.00    -0.097 C  
HETATM   32  C   UNL     1      -7.706   5.280  74.242  1.00  0.00    -0.093 C  
HETATM   33  H   UNL     1      -6.184   3.182  74.052  1.00  0.00     0.000 HD 
ENDBRANCH  17  22
ENDBRANCH   2   7
TORSDOF 3
ENDMDL
MODEL      123
REMARK 921   NORMALIZED FREE ENERGY PREDICTED BY IDOCK:   -2.35 KCAL/MOL
REMARK 922        TOTAL FREE ENERGY PREDICTED BY IDOCK:   -4.04 KCAL/MOL
REMARK 923 INTER-LIGAND FREE ENERGY PREDICTED BY IDOCK:   -2.77 KCAL/MOL
REMARK 924 INTRA-LIGAND FREE ENERGY PREDICTED BY IDOCK:   -1.27 KCAL/MOL
REMARK 927      BINDING AFFINITY PREDICTED BY RF-SCORE:    0.00 PKD
ROOT
HETATM    1  O   UNL     1      -5.131  10.879  67.445  1.00  0.00    -0.037 OA 
HETATM    2  C   UNL     1      -6.136  10.193  66.703  1.00  0.00    -0.065 C  
HETATM    3  H   UNL     1      -4.410  10.274  67.572  1.00  0.00     0.000 HD 
ENDROOT
BRANCH   2   4
HETATM    4  C   UNL     1      -6.457   8.907  67.424  1.00  0.00    -0.057 C  
HETATM    5  C   UNL     1      -5.396   8.162  68.194  1.00  0.00    -0.033 C  
HETATM    6  C   UNL     1      -5.916   7.599  66.901  1.00  0.00    -0.047 C  
ENDBRANCH   2   4
BRANCH   2   7
HETATM    7  C   UNL     1      -7.271  11.146  66.505  1.00  0.00    -0.124 C  
HETATM    8  C   UNL     1      -8.487  10.844  66.012  1.00  0.00    -0.167 C  
HETATM    9  C   UNL     1      -9.623  11.827  65.858  1.00  0.00    -0.249 C  
HETATM   10  C   UNL     1      -9.915  11.962  64.348  1.00  0.00    -0.260 C  
HETATM   11  C   UNL     1     -10.902  11.471  66.701  1.00  0.00    -0.335 C  
HETATM   12  C   UNL     1     -11.525  10.148  66.218  1.00  0.00     1.373 C  
HETATM   13  C   UNL     1     -11.211   9.088  67.251  1.00  0.00     0.637 C  
HETATM   14  C   UNL     1     -10.479   9.758  68.420  1.00  0.00    -0.250 C  
HETATM   15  C   UNL     1     -10.846   9.067  69.730  1.00  0.00    -0.215 C  
HETATM   16  C   UNL     1     -11.170   9.974  70.887  1.00  0.00    -0.415 C  
HETATM   17  C   UNL     1     -10.838   7.715  69.814  1.00  0.00    -0.222 C  
HETATM   18  C   UNL     1     -12.045  11.181  70.522  1.00  0.00    -0.474 C  
HETATM   19  C   UNL     1      -9.676  12.202  68.894  1.00  0.00     0.102 C  
HETATM   20  C   UNL     1     -10.758  11.285  68.274  1.00  0.00    -0.231 C  
HETATM   21  C   UNL     1     -12.073  11.600  69.039  1.00  0.00    -0.288 C  
BRANCH  17  22
HETATM   22  C   UNL     1     -10.774   6.966  71.049  1.00  0.00    -0.258 C  
HETATM   23  C   UNL     1      -9.791   6.859  71.964  1.00  0.00    -0.172 C  
HETATM   24  C   UNL     1     -10.117   6.150  73.270  1.00  0.00    -0.205 C  
HETATM   25  C   UNL     1      -9.143   5.013  73.571  1.00  0.00    -0.123 C  
HETATM   26  C   UNL     1      -7.702   5.520  73.555  1.00  0.00    -0.099 C  
HETATM   27  O   UNL     1      -9.304   3.942  72.648  1.00  0.00    -0.113 OA 
HETATM   28  C   UNL     1      -7.369   6.215  72.232  1.00  0.00    -0.093 C  
HETATM   29  H   UNL     1      -8.698   3.234  72.836  1.00  0.00     0.000 HD 
HETATM   30  O   UNL     1      -6.045   6.749  72.340  1.00  0.00    -0.042 OA 
HETATM   31  C   UNL     1      -8.391   7.299  71.874  1.00  0.00    -0.112 C  
HETATM   32  C   UNL     1      -8.039   8.561  71.576  1.00  0.00    -0.191 C  
HETATM   33  H   UNL     1      -5.838   7.180  71.519  1.00  0.00     0.000 HD 
ENDBRANCH  17  22
ENDBRANCH   2   7
TORSDOF 3
ENDMDL
MODEL      124
REMARK 921   NORMALIZED FREE ENERGY PREDICTED BY IDOCK:   -2.29 KCAL/MOL
REMARK 922        TOTAL FREE ENERGY PREDICTED BY IDOCK:   -3.97 KCAL/MOL
REMARK 923 INTER-LIGAND FREE ENERGY PREDICTED BY IDOCK:   -3.46 KCAL/MOL
REMARK 924 INTRA-LIGAND FREE ENERGY PREDICTED BY IDOCK:   -0.51 KCAL/MOL
REMARK 927      BINDING AFFINITY PREDICTED BY RF-SCORE:    0.00 PKD
ROOT
HETATM    1  O   UNL     1      -5.820   8.105  71.130  1.00  0.00    -0.033 OA 
HETATM    2  C   UNL     1      -5.765   6.683  71.041  1.00  0.00    -0.027 C  
HETATM    3  H   UNL     1      -5.619   8.340  72.028  1.00  0.00     0.000 HD 
ENDROOT
BRANCH   2   4
HETATM    4  C   UNL     1      -6.670   6.110  72.103  1.00  0.00    -0.068 C  
HETATM    5  C   UNL     1      -8.170   6.234  71.995  1.00  0.00    -0.110 C  
HETATM    6  C   UNL     1      -7.425   7.036  73.025  1.00  0.00    -0.075 C  
ENDBRANCH   2   4
BRANCH   2   7
HETATM    7  C   UNL     1      -6.081   6.314  69.627  1.00  0.00    -0.026 C  
HETATM    8  C   UNL     1      -7.261   6.485  69.004  1.00  0.00    -0.091 C  
HETATM    9  C   UNL     1      -7.535   6.132  67.561  1.00  0.00    -0.082 C  
HETATM   10  C   UNL     1      -8.592   5.006  67.554  1.00  0.00    -0.104 C  
HETATM   11  C   UNL     1      -7.937   7.357  66.662  1.00  0.00    -0.121 C  
HETATM   12  C   UNL     1      -9.275   7.960  67.127  1.00  0.00    -0.175 C  
HETATM   13  C   UNL     1      -8.972   9.266  67.829  1.00  0.00    -0.131 C  
HETATM   14  C   UNL     1      -7.465   9.530  67.724  1.00  0.00    -0.084 C  
HETATM   15  C   UNL     1      -7.204  11.030  67.627  1.00  0.00    -0.093 C  
HETATM   16  C   UNL     1      -6.209  11.461  66.583  1.00  0.00    -0.137 C  
HETATM   17  C   UNL     1      -7.826  11.887  68.472  1.00  0.00    -0.136 C  
HETATM   18  C   UNL     1      -6.348  10.738  65.236  1.00  0.00     0.047 C  
HETATM   19  C   UNL     1      -5.462   8.205  66.687  1.00  0.00    -0.032 C  
HETATM   20  C   UNL     1      -6.953   8.604  66.577  1.00  0.00    -0.079 C  
HETATM   21  C   UNL     1      -7.089   9.387  65.243  1.00  0.00    -0.092 C  
BRANCH  17  22
HETATM   22  C   UNL     1      -7.386  13.235  68.750  1.00  0.00    -0.070 C  
HETATM   23  C   UNL     1      -8.088  14.373  68.915  1.00  0.00    -0.095 C  
HETATM   24  C   UNL     1      -7.336  15.601  69.407  1.00  0.00    -0.216 C  
HETATM   25  C   UNL     1      -7.527  16.806  68.488  1.00  0.00    -0.213 C  
HETATM   26  C   UNL     1      -9.013  17.102  68.293  1.00  0.00    -0.248 C  
HETATM   27  O   UNL     1      -6.892  16.600  67.232  1.00  0.00    -0.143 OA 
HETATM   28  C   UNL     1      -9.766  15.872  67.778  1.00  0.00    -0.220 C  
HETATM   29  H   UNL     1      -7.010  17.350  66.660  1.00  0.00     0.000 HD 
HETATM   30  O   UNL     1     -11.158  16.203  67.724  1.00  0.00    -0.323 OA 
HETATM   31  C   UNL     1      -9.509  14.633  68.641  1.00  0.00    -0.211 C  
HETATM   32  C   UNL     1     -10.501  13.891  69.163  1.00  0.00    -0.074 C  
HETATM   33  H   UNL     1     -11.624  15.439  67.404  1.00  0.00     0.000 HD 
ENDBRANCH  17  22
ENDBRANCH   2   7
TORSDOF 3
ENDMDL
MODEL      125
REMARK 921   NORMALIZED FREE ENERGY PREDICTED BY IDOCK:   -1.57 KCAL/MOL
REMARK 922        TOTAL FREE ENERGY PREDICTED BY IDOCK:   -3.13 KCAL/MOL
REMARK 923 INTER-LIGAND FREE ENERGY PREDICTED BY IDOCK:   -2.98 KCAL/MOL
REMARK 924 INTRA-LIGAND FREE ENERGY PREDICTED BY IDOCK:   -0.14 KCAL/MOL
REMARK 927      BINDING AFFINITY PREDICTED BY RF-SCORE:    0.00 PKD
ROOT
HETATM    1  O   UNL     1      -8.362  20.451  65.771  1.00  0.00    -0.545 OA 
HETATM    2  C   UNL     1      -8.381  20.574  67.191  1.00  0.00    -0.276 C  
HETATM    3  H   UNL     1      -9.191  20.783  65.447  1.00  0.00     0.000 HD 
ENDROOT
BRANCH   2   4
HETATM    4  C   UNL     1      -9.624  19.893  67.706  1.00  0.00    -0.496 C  
HETATM    5  C   UNL     1      -9.638  19.214  69.052  1.00  0.00    -0.387 C  
HETATM    6  C   UNL     1      -9.671  18.387  67.798  1.00  0.00    -0.316 C  
ENDBRANCH   2   4
BRANCH   2   7
HETATM    7  C   UNL     1      -7.076  20.051  67.700  1.00  0.00    -0.301 C  
HETATM    8  C   UNL     1      -6.882  19.380  68.851  1.00  0.00    -0.370 C  
HETATM    9  C   UNL     1      -5.554  18.835  69.318  1.00  0.00    -0.216 C  
HETATM   10  C   UNL     1      -5.175  19.587  70.612  1.00  0.00    -0.233 C  
HETATM   11  C   UNL     1      -5.521  17.271  69.485  1.00  0.00    -0.188 C  
HETATM   12  C   UNL     1      -6.487  16.820  70.596  1.00  0.00     1.172 C  
HETATM   13  C   UNL     1      -7.688  16.183  69.931  1.00  0.00     0.540 C  
HETATM   14  C   UNL     1      -7.436  16.147  68.418  1.00  0.00    -0.153 C  
HETATM   15  C   UNL     1      -8.082  14.905  67.812  1.00  0.00    -0.162 C  
HETATM   16  C   UNL     1      -7.239  14.135  66.830  1.00  0.00     0.778 C  
HETATM   17  C   UNL     1      -9.352  14.567  68.138  1.00  0.00    -0.197 C  
HETATM   18  C   UNL     1      -5.772  13.966  67.249  1.00  0.00     0.512 C  
HETATM   19  C   UNL     1      -5.488  16.981  66.884  1.00  0.00    -0.204 C  
HETATM   20  C   UNL     1      -5.901  16.358  68.239  1.00  0.00    -0.108 C  
HETATM   21  C   UNL     1      -5.224  14.961  68.290  1.00  0.00    -0.115 C  
BRANCH  17  22
HETATM   22  C   UNL     1     -10.195  13.683  67.365  1.00  0.00    -0.241 C  
HETATM   23  C   UNL     1     -10.635  13.774  66.095  1.00  0.00    -0.291 C  
HETATM   24  C   UNL     1     -11.344  12.563  65.506  1.00  0.00    -0.368 C  
HETATM   25  C   UNL     1     -12.719  12.914  64.941  1.00  0.00    -0.403 C  
HETATM   26  C   UNL     1     -12.609  14.048  63.923  1.00  0.00    -0.006 C  
HETATM   27  O   UNL     1     -13.626  13.264  65.980  1.00  0.00     0.459 OA 
HETATM   28  C   UNL     1     -11.914  15.273  64.523  1.00  0.00    -0.271 C  
HETATM   29  H   UNL     1     -14.482  13.482  65.629  1.00  0.00     0.000 HD 
HETATM   30  O   UNL     1     -11.759  16.241  63.481  1.00  0.00    -1.247 OA 
HETATM   31  C   UNL     1     -10.574  14.918  65.173  1.00  0.00    -0.450 C  
HETATM   32  C   UNL     1      -9.427  15.550  64.870  1.00  0.00     1.099 C  
HETATM   33  H   UNL     1     -11.328  17.002  63.854  1.00  0.00     0.000 HD 
ENDBRANCH  17  22
ENDBRANCH   2   7
TORSDOF 3
ENDMDL
MODEL      126
REMARK 921   NORMALIZED FREE ENERGY PREDICTED BY IDOCK:   -1.02 KCAL/MOL
REMARK 922        TOTAL FREE ENERGY PREDICTED BY IDOCK:   -2.48 KCAL/MOL
REMARK 923 INTER-LIGAND FREE ENERGY PREDICTED BY IDOCK:   -1.63 KCAL/MOL
REMARK 924 INTRA-LIGAND FREE ENERGY PREDICTED BY IDOCK:   -0.85 KCAL/MOL
REMARK 927      BINDING AFFINITY PREDICTED BY RF-SCORE:    0.00 PKD
ROOT
HETATM    1  O   UNL     1      -7.862   3.458  64.671  1.00  0.00    -0.077 OA 
HETATM    2  C   UNL     1      -8.185   4.097  65.903  1.00  0.00    -0.109 C  
HETATM    3  H   UNL     1      -8.066   4.068  63.973  1.00  0.00     0.000 HD 
ENDROOT
BRANCH   2   4
HETATM    4  C   UNL     1      -9.614   4.575  65.824  1.00  0.00    -0.192 C  
HETATM    5  C   UNL     1     -10.082   5.444  64.685  1.00  0.00     1.134 C  
HETATM    6  C   UNL     1      -9.933   6.031  66.060  1.00  0.00     0.091 C  
ENDBRANCH   2   4
BRANCH   2   7
HETATM    7  C   UNL     1      -7.865   3.135  67.002  1.00  0.00    -0.079 C  
HETATM    8  C   UNL     1      -7.042   3.361  68.042  1.00  0.00    -0.051 C  
HETATM    9  C   UNL     1      -6.768   2.377  69.155  1.00  0.00    -0.033 C  
HETATM   10  C   UNL     1      -5.275   1.993  69.074  1.00  0.00    -0.012 C  
HETATM   11  C   UNL     1      -7.196   2.881  70.582  1.00  0.00    -0.033 C  
HETATM   12  C   UNL     1      -6.367   4.109  70.999  1.00  0.00    -0.018 C  
HETATM   13  C   UNL     1      -7.261   5.326  70.894  1.00  0.00    -0.069 C  
HETATM   14  C   UNL     1      -8.669   4.854  70.506  1.00  0.00    -0.131 C  
HETATM   15  C   UNL     1      -9.717   5.759  71.148  1.00  0.00    -0.210 C  
HETATM   16  C   UNL     1     -10.886   5.062  71.791  1.00  0.00    -0.094 C  
HETATM   17  C   UNL     1      -9.583   7.106  71.092  1.00  0.00    -0.164 C  
HETATM   18  C   UNL     1     -10.512   3.819  72.610  1.00  0.00    -0.194 C  
HETATM   19  C   UNL     1      -9.714   2.517  69.969  1.00  0.00     0.030 C  
HETATM   20  C   UNL     1      -8.705   3.327  70.818  1.00  0.00    -0.128 C  
HETATM   21  C   UNL     1      -9.156   3.157  72.295  1.00  0.00    -0.142 C  
BRANCH  17  22
HETATM   22  C   UNL     1     -10.658   8.050  71.294  1.00  0.00    -0.245 C  
HETATM   23  C   UNL     1     -11.259   8.897  70.436  1.00  0.00    -0.259 C  
HETATM   24  C   UNL     1     -12.511   9.617  70.917  1.00  0.00    -0.320 C  
HETATM   25  C   UNL     1     -12.404  11.132  70.759  1.00  0.00    -0.406 C  
HETATM   26  C   UNL     1     -12.067  11.500  69.314  1.00  0.00    -0.344 C  
HETATM   27  O   UNL     1     -11.436  11.675  71.649  1.00  0.00     1.168 OA 
HETATM   28  C   UNL     1     -10.796  10.791  68.839  1.00  0.00    -0.227 C  
HETATM   29  H   UNL     1     -11.370  12.618  71.551  1.00  0.00     0.000 HD 
HETATM   30  O   UNL     1     -10.613  11.105  67.454  1.00  0.00    -0.208 OA 
HETATM   31  C   UNL     1     -10.854   9.279  69.075  1.00  0.00    -0.136 C  
HETATM   32  C   UNL     1     -10.627   8.380  68.102  1.00  0.00    -0.175 C  
HETATM   33  H   UNL     1      -9.824  10.665  67.160  1.00  0.00     0.000 HD 
ENDBRANCH  17  22
ENDBRANCH   2   7
TORSDOF 3
ENDMDL
MODEL      127
REMARK 921   NORMALIZED FREE ENERGY PREDICTED BY IDOCK:   -0.15 KCAL/MOL
REMARK 922        TOTAL FREE ENERGY PREDICTED BY IDOCK:   -1.45 KCAL/MOL
REMARK 923 INTER-LIGAND FREE ENERGY PREDICTED BY IDOCK:   -1.90 KCAL/MOL
REMARK 924 INTRA-LIGAND FREE ENERGY PREDICTED BY IDOCK:    0.45 KCAL/MOL
REMARK 927      BINDING AFFINITY PREDICTED BY RF-SCORE:    0.00 PKD
ROOT
HETATM    1  O   UNL     1      -8.850  10.797  64.526  1.00  0.00    -0.227 OA 
HETATM    2  C   UNL     1      -9.195   9.743  65.420  1.00  0.00    -0.227 C  
HETATM    3  H   UNL     1      -8.573  10.397  63.710  1.00  0.00     0.000 HD 
ENDROOT
BRANCH   2   4
HETATM    4  C   UNL     1      -8.026   8.793  65.501  1.00  0.00    -0.102 C  
HETATM    5  C   UNL     1      -6.956   8.965  66.550  1.00  0.00    -0.080 C  
HETATM    6  C   UNL     1      -6.647   9.266  65.111  1.00  0.00    -0.074 C  
ENDBRANCH   2   4
BRANCH   2   7
HETATM    7  C   UNL     1      -9.631  10.373  66.704  1.00  0.00    -0.219 C  
HETATM    8  C   UNL     1     -10.711  10.032  67.431  1.00  0.00    -0.336 C  
HETATM    9  C   UNL     1     -11.103  10.668  68.744  1.00  0.00    -0.316 C  
HETATM   10  C   UNL     1     -12.454  11.382  68.526  1.00  0.00     0.639 C  
HETATM   11  C   UNL     1     -11.124   9.673  69.961  1.00  0.00    -0.293 C  
HETATM   12  C   UNL     1     -12.206   8.594  69.767  1.00  0.00     1.265 C  
HETATM   13  C   UNL     1     -11.506   7.299  69.415  1.00  0.00     0.168 C  
HETATM   14  C   UNL     1      -9.992   7.538  69.482  1.00  0.00    -0.180 C  
HETATM   15  C   UNL     1      -9.285   6.271  69.953  1.00  0.00    -0.155 C  
HETATM   16  C   UNL     1      -8.221   6.459  71.002  1.00  0.00    -0.122 C  
HETATM   17  C   UNL     1      -9.601   5.071  69.411  1.00  0.00    -0.236 C  
HETATM   18  C   UNL     1      -8.597   7.447  72.117  1.00  0.00    -0.129 C  
HETATM   19  C   UNL     1      -8.508   9.631  69.989  1.00  0.00    -0.223 C  
HETATM   20  C   UNL     1      -9.806   8.850  70.304  1.00  0.00    -0.211 C  
HETATM   21  C   UNL     1      -9.716   8.458  71.804  1.00  0.00    -0.306 C  
BRANCH  17  22
HETATM   22  C   UNL     1      -8.764   3.893  69.470  1.00  0.00    -0.127 C  
HETATM   23  C   UNL     1      -8.196   3.269  70.520  1.00  0.00    -0.072 C  
HETATM   24  C   UNL     1      -7.538   1.920  70.267  1.00  0.00    -0.039 C  
HETATM   25  C   UNL     1      -6.090   1.882  70.750  1.00  0.00    -0.018 C  
HETATM   26  C   UNL     1      -6.003   2.278  72.223  1.00  0.00    -0.009 C  
HETATM   27  O   UNL     1      -5.262   2.725  69.958  1.00  0.00    -0.007 OA 
HETATM   28  C   UNL     1      -6.647   3.645  72.473  1.00  0.00    -0.021 C  
HETATM   29  H   UNL     1      -4.360   2.701  70.258  1.00  0.00     0.000 HD 
HETATM   30  O   UNL     1      -6.617   3.891  73.882  1.00  0.00    -0.043 OA 
HETATM   31  C   UNL     1      -8.070   3.726  71.912  1.00  0.00    -0.071 C  
HETATM   32  C   UNL     1      -9.123   4.111  72.652  1.00  0.00    -0.129 C  
HETATM   33  H   UNL     1      -7.016   4.739  74.037  1.00  0.00     0.000 HD 
ENDBRANCH  17  22
ENDBRANCH   2   7
TORSDOF 3
ENDMDL
MODEL      128
REMARK 921   NORMALIZED FREE ENERGY PREDICTED BY IDOCK:    0.34 KCAL/MOL
REMARK 922        TOTAL FREE ENERGY PREDICTED BY IDOCK:   -0.88 KCAL/MOL
REMARK 923 INTER-LIGAND FREE ENERGY PREDICTED BY IDOCK:    0.76 KCAL/MOL
REMARK 924 INTRA-LIGAND FREE ENERGY PREDICTED BY IDOCK:   -1.64 KCAL/MOL
REMARK 927      BINDING AFFINITY PREDICTED BY RF-SCORE:    0.00 PKD
ROOT
HETATM    1  O   UNL     1     -10.734   5.571  63.374  1.00  0.00     2.022 OA 
HETATM    2  C   UNL     1      -9.406   5.783  63.846  1.00  0.00     1.073 C  
HETATM    3  H   UNL     1     -11.161   6.418  63.339  1.00  0.00     0.000 HD 
ENDROOT
BRANCH   2   4
HETATM    4  C   UNL     1      -9.485   6.550  65.143  1.00  0.00     0.906 C  
HETATM    5  C   UNL     1      -9.111   8.010  65.208  1.00  0.00     0.190 C  
HETATM    6  C   UNL     1      -8.217   6.981  65.839  1.00  0.00    -0.133 C  
ENDBRANCH   2   4
BRANCH   2   7
HETATM    7  C   UNL     1      -8.734   4.449  63.902  1.00  0.00    -0.133 C  
HETATM    8  C   UNL     1      -7.459   4.214  64.263  1.00  0.00    -0.071 C  
HETATM    9  C   UNL     1      -6.823   2.847  64.342  1.00  0.00    -0.040 C  
HETATM   10  C   UNL     1      -5.701   2.797  63.282  1.00  0.00    -0.009 C  
HETATM   11  C   UNL     1      -6.325   2.449  65.780  1.00  0.00    -0.024 C  
HETATM   12  C   UNL     1      -5.191   3.382  66.244  1.00  0.00    -0.009 C  
HETATM   13  C   UNL     1      -5.763   4.316  67.288  1.00  0.00    -0.022 C  
HETATM   14  C   UNL     1      -7.219   3.912  67.549  1.00  0.00    -0.067 C  
HETATM   15  C   UNL     1      -7.578   4.168  69.010  1.00  0.00    -0.054 C  
HETATM   16  C   UNL     1      -8.331   3.068  69.708  1.00  0.00    -0.083 C  
HETATM   17  C   UNL     1      -7.249   5.343  69.597  1.00  0.00    -0.064 C  
HETATM   18  C   UNL     1      -7.815   1.654  69.404  1.00  0.00    -0.048 C  
HETATM   19  C   UNL     1      -8.799   2.083  66.549  1.00  0.00    -0.130 C  
HETATM   20  C   UNL     1      -7.364   2.466  66.984  1.00  0.00    -0.061 C  
HETATM   21  C   UNL     1      -6.984   1.475  68.119  1.00  0.00    -0.032 C  
BRANCH  17  22
HETATM   22  C   UNL     1      -7.855   5.861  70.803  1.00  0.00    -0.102 C  
HETATM   23  C   UNL     1      -8.979   6.582  70.984  1.00  0.00    -0.146 C  
HETATM   24  C   UNL     1      -9.459   6.795  72.412  1.00  0.00    -0.153 C  
HETATM   25  C   UNL     1      -9.663   8.272  72.741  1.00  0.00    -0.266 C  
HETATM   26  C   UNL     1     -10.607   8.923  71.731  1.00  0.00    -0.432 C  
HETATM   27  O   UNL     1      -8.421   8.966  72.780  1.00  0.00    -0.380 OA 
HETATM   28  C   UNL     1     -10.112   8.726  70.296  1.00  0.00    -0.191 C  
HETATM   29  H   UNL     1      -8.548   9.885  72.985  1.00  0.00     0.000 HD 
HETATM   30  O   UNL     1     -11.100   9.270  69.414  1.00  0.00    -0.397 OA 
HETATM   31  C   UNL     1      -9.817   7.257  69.982  1.00  0.00    -0.175 C  
HETATM   32  C   UNL     1     -10.341   6.619  68.920  1.00  0.00    -0.216 C  
HETATM   33  H   UNL     1     -10.793   9.148  68.524  1.00  0.00     0.000 HD 
ENDBRANCH  17  22
ENDBRANCH   2   7
TORSDOF 3
ENDMDL
MODEL      129
REMARK 921   NORMALIZED FREE ENERGY PREDICTED BY IDOCK:    1.27 KCAL/MOL
REMARK 922        TOTAL FREE ENERGY PREDICTED BY IDOCK:    0.21 KCAL/MOL
REMARK 923 INTER-LIGAND FREE ENERGY PREDICTED BY IDOCK:    0.69 KCAL/MOL
REMARK 924 INTRA-LIGAND FREE ENERGY PREDICTED BY IDOCK:   -0.47 KCAL/MOL
REMARK 927      BINDING AFFINITY PREDICTED BY RF-SCORE:    0.00 PKD
ROOT
HETATM    1  O   UNL     1     -12.091  19.150  68.233  1.00  0.00     1.827 OA 
HETATM    2  C   UNL     1     -10.673  19.187  68.375  1.00  0.00     0.094 C  
HETATM    3  H   UNL     1     -12.463  19.555  69.007  1.00  0.00     0.000 HD 
ENDROOT
BRANCH   2   4
HETATM    4  C   UNL     1     -10.317  18.558  69.699  1.00  0.00     0.643 C  
HETATM    5  C   UNL     1      -9.394  17.368  69.772  1.00  0.00     0.962 C  
HETATM    6  C   UNL     1     -10.860  17.195  70.054  1.00  0.00     0.395 C  
ENDBRANCH   2   4
BRANCH   2   7
HETATM    7  C   UNL     1     -10.087  18.548  67.156  1.00  0.00    -0.378 C  
HETATM    8  C   UNL     1      -9.030  17.716  67.124  1.00  0.00    -0.249 C  
HETATM    9  C   UNL     1      -8.486  17.061  65.877  1.00  0.00    -0.023 C  
HETATM   10  C   UNL     1      -7.060  17.608  65.653  1.00  0.00     0.035 C  
HETATM   11  C   UNL     1      -8.544  15.489  65.896  1.00  0.00     0.365 C  
HETATM   12  C   UNL     1      -7.638  14.922  67.005  1.00  0.00    -0.027 C  
HETATM   13  C   UNL     1      -8.532  14.430  68.123  1.00  0.00    -0.160 C  
HETATM   14  C   UNL     1      -9.991  14.599  67.681  1.00  0.00    -0.227 C  
HETATM   15  C   UNL     1     -10.846  13.480  68.267  1.00  0.00    -0.277 C  
HETATM   16  C   UNL     1     -11.817  12.825  67.321  1.00  0.00    -0.414 C  
HETATM   17  C   UNL     1     -10.732  13.147  69.575  1.00  0.00     0.230 C  
HETATM   18  C   UNL     1     -11.248  12.544  65.922  1.00  0.00    -0.356 C  
HETATM   19  C   UNL     1     -11.135  15.568  65.537  1.00  0.00    -0.265 C  
HETATM   20  C   UNL     1      -9.946  14.775  66.132  1.00  0.00    -0.324 C  
HETATM   21  C   UNL     1     -10.014  13.361  65.494  1.00  0.00    -0.226 C  
BRANCH  17  22
HETATM   22  C   UNL     1     -11.723  12.413  70.329  1.00  0.00    -0.207 C  
HETATM   23  C   UNL     1     -11.730  11.139  70.767  1.00  0.00    -0.215 C  
HETATM   24  C   UNL     1     -12.841  10.727  71.721  1.00  0.00    -0.528 C  
HETATM   25  C   UNL     1     -13.602   9.498  71.228  1.00  0.00    -0.232 C  
HETATM   26  C   UNL     1     -12.641   8.342  70.958  1.00  0.00    -0.058 C  
HETATM   27  O   UNL     1     -14.361   9.798  70.062  1.00  0.00     0.467 OA 
HETATM   28  C   UNL     1     -11.535   8.751  69.982  1.00  0.00     0.055 C  
HETATM   29  H   UNL     1     -14.835   9.033  69.755  1.00  0.00     0.000 HD 
HETATM   30  O   UNL     1     -10.625   7.653  69.867  1.00  0.00    -0.227 OA 
HETATM   31  C   UNL     1     -10.823  10.035  70.420  1.00  0.00    -0.380 C  
HETATM   32  C   UNL     1      -9.487  10.120  70.545  1.00  0.00     0.385 C  
HETATM   33  H   UNL     1      -9.938   7.907  69.261  1.00  0.00     0.000 HD 
ENDBRANCH  17  22
ENDBRANCH   2   7
TORSDOF 3
ENDMDL
MODEL      130
REMARK 921   NORMALIZED FREE ENERGY PREDICTED BY IDOCK:    2.20 KCAL/MOL
REMARK 922        TOTAL FREE ENERGY PREDICTED BY IDOCK:    1.30 KCAL/MOL
REMARK 923 INTER-LIGAND FREE ENERGY PREDICTED BY IDOCK:    1.46 KCAL/MOL
REMARK 924 INTRA-LIGAND FREE ENERGY PREDICTED BY IDOCK:   -0.15 KCAL/MOL
REMARK 927      BINDING AFFINITY PREDICTED BY RF-SCORE:    0.00 PKD
ROOT
HETATM    1  O   UNL     1     -10.072  20.908  66.606  1.00  0.00    -0.420 OA 
HETATM    2  C   UNL     1      -9.657  21.346  67.898  1.00  0.00     0.556 C  
HETATM    3  H   UNL     1     -11.009  21.049  66.547  1.00  0.00     0.000 HD 
ENDROOT
BRANCH   2   4
HETATM    4  C   UNL     1     -10.508  20.645  68.927  1.00  0.00     0.318 C  
HETATM    5  C   UNL     1      -9.911  20.147  70.220  1.00  0.00     0.813 C  
HETATM    6  C   UNL     1     -10.332  19.165  69.164  1.00  0.00     0.006 C  
ENDBRANCH   2   4
BRANCH   2   7
HETATM    7  C   UNL     1      -8.181  21.124  67.990  1.00  0.00     0.536 C  
HETATM    8  C   UNL     1      -7.531  20.507  68.994  1.00  0.00     0.436 C  
HETATM    9  C   UNL     1      -6.040  20.268  69.038  1.00  0.00    -0.365 C  
HETATM   10  C   UNL     1      -5.479  21.078  70.227  1.00  0.00    -0.102 C  
HETATM   11  C   UNL     1      -5.631  18.750  69.081  1.00  0.00    -0.213 C  
HETATM   12  C   UNL     1      -6.123  18.088  70.381  1.00  0.00     0.173 C  
HETATM   13  C   UNL     1      -7.299  17.203  70.030  1.00  0.00     1.192 C  
HETATM   14  C   UNL     1      -7.486  17.234  68.508  1.00  0.00    -0.241 C  
HETATM   15  C   UNL     1      -7.998  15.883  68.018  1.00  0.00    -0.141 C  
HETATM   16  C   UNL     1      -7.326  15.326  66.792  1.00  0.00     0.307 C  
HETATM   17  C   UNL     1      -9.022  15.268  68.658  1.00  0.00    -0.193 C  
HETATM   18  C   UNL     1      -5.799  15.487  66.777  1.00  0.00     1.133 C  
HETATM   19  C   UNL     1      -6.277  18.491  66.559  1.00  0.00    -0.200 C  
HETATM   20  C   UNL     1      -6.146  17.783  67.929  1.00  0.00    -0.159 C  
HETATM   21  C   UNL     1      -5.202  16.572  67.694  1.00  0.00    -0.150 C  
BRANCH  17  22
HETATM   22  C   UNL     1      -9.842  14.223  68.088  1.00  0.00    -0.226 C  
HETATM   23  C   UNL     1      -9.568  12.928  67.837  1.00  0.00    -0.215 C  
HETATM   24  C   UNL     1     -10.724  12.031  67.420  1.00  0.00    -0.266 C  
HETATM   25  C   UNL     1     -10.446  11.299  66.109  1.00  0.00    -0.254 C  
HETATM   26  C   UNL     1      -9.136  10.517  66.197  1.00  0.00    -0.184 C  
HETATM   27  O   UNL     1     -10.413  12.204  65.012  1.00  0.00    -0.271 OA 
HETATM   28  C   UNL     1      -7.970  11.425  66.596  1.00  0.00    -0.148 C  
HETATM   29  H   UNL     1     -10.241  11.748  64.196  1.00  0.00     0.000 HD 
HETATM   30  O   UNL     1      -6.811  10.601  66.758  1.00  0.00    -0.094 OA 
HETATM   31  C   UNL     1      -8.273  12.234  67.861  1.00  0.00    -0.161 C  
HETATM   32  C   UNL     1      -7.457  12.247  68.930  1.00  0.00    -0.012 C  
HETATM   33  H   UNL     1      -6.087  11.164  67.006  1.00  0.00     0.000 HD 
ENDBRANCH  17  22
ENDBRANCH   2   7
TORSDOF 3
ENDMDL
MODEL      131
REMARK 921   NORMALIZED FREE ENERGY PREDICTED BY IDOCK:    2.97 KCAL/MOL
REMARK 922        TOTAL FREE ENERGY PREDICTED BY IDOCK:    2.21 KCAL/MOL
REMARK 923 INTER-LIGAND FREE ENERGY PREDICTED BY IDOCK:    1.51 KCAL/MOL
REMARK 924 INTRA-LIGAND FREE ENERGY PREDICTED BY IDOCK:    0.70 KCAL/MOL
REMARK 927      BINDING AFFINITY PREDICTED BY RF-SCORE:    0.00 PKD
ROOT
HETATM    1  O   UNL     1     -10.728   5.560  63.378  1.00  0.00     2.022 OA 
HETATM    2  C   UNL     1      -9.401   5.741  63.863  1.00  0.00     1.073 C  
HETATM    3  H   UNL     1     -11.122   6.422  63.302  1.00  0.00     0.000 HD 
ENDROOT
BRANCH   2   4
HETATM    4  C   UNL     1      -9.470   6.560  65.128  1.00  0.00     0.906 C  
HETATM    5  C   UNL     1      -8.218   6.937  65.880  1.00  0.00    -0.129 C  
HETATM    6  C   UNL     1      -9.158   5.917  66.457  1.00  0.00    -0.149 C  
ENDBRANCH   2   4
BRANCH   2   7
HETATM    7  C   UNL     1      -8.782   4.385  63.981  1.00  0.00    -0.136 C  
HETATM    8  C   UNL     1      -7.527   4.115  64.386  1.00  0.00    -0.071 C  
HETATM    9  C   UNL     1      -6.945   2.729  64.528  1.00  0.00    -0.048 C  
HETATM   10  C   UNL     1      -5.798   2.603  63.502  1.00  0.00    -0.010 C  
HETATM   11  C   UNL     1      -6.503   2.361  65.992  1.00  0.00    -0.028 C  
HETATM   12  C   UNL     1      -5.348   3.267  66.457  1.00  0.00    -0.013 C  
HETATM   13  C   UNL     1      -5.913   4.256  67.455  1.00  0.00    -0.024 C  
HETATM   14  C   UNL     1      -7.390   3.914  67.686  1.00  0.00    -0.067 C  
HETATM   15  C   UNL     1      -7.779   4.232  69.127  1.00  0.00    -0.054 C  
HETATM   16  C   UNL     1      -8.592   3.184  69.838  1.00  0.00    -0.109 C  
HETATM   17  C   UNL     1      -7.422   5.413  69.685  1.00  0.00    -0.066 C  
HETATM   18  C   UNL     1      -8.123   1.742  69.595  1.00  0.00    -0.060 C  
HETATM   19  C   UNL     1      -9.010   2.112  66.700  1.00  0.00    -0.122 C  
HETATM   20  C   UNL     1      -7.574   2.456  67.164  1.00  0.00    -0.065 C  
HETATM   21  C   UNL     1      -7.264   1.491  68.340  1.00  0.00    -0.039 C  
BRANCH  17  22
HETATM   22  C   UNL     1      -8.042   5.992  70.856  1.00  0.00    -0.121 C  
HETATM   23  C   UNL     1      -8.231   5.490  72.091  1.00  0.00    -0.112 C  
HETATM   24  C   UNL     1      -8.735   6.439  73.169  1.00  0.00    -0.125 C  
HETATM   25  C   UNL     1      -9.992   5.916  73.860  1.00  0.00    -0.212 C  
HETATM   26  C   UNL     1      -9.756   4.513  74.417  1.00  0.00    -0.168 C  
HETATM   27  O   UNL     1     -11.105   5.918  72.973  1.00  0.00    -0.264 OA 
HETATM   28  C   UNL     1      -9.268   3.554  73.328  1.00  0.00    -0.101 C  
HETATM   29  H   UNL     1     -11.887   5.592  73.403  1.00  0.00     0.000 HD 
HETATM   30  O   UNL     1      -8.971   2.300  73.951  1.00  0.00    -0.072 OA 
HETATM   31  C   UNL     1      -8.061   4.109  72.566  1.00  0.00    -0.095 C  
HETATM   32  C   UNL     1      -6.918   3.419  72.410  1.00  0.00    -0.038 C  
HETATM   33  H   UNL     1      -8.669   1.704  73.274  1.00  0.00     0.000 HD 
ENDBRANCH  17  22
ENDBRANCH   2   7
TORSDOF 3
ENDMDL
MODEL      132
REMARK 921   NORMALIZED FREE ENERGY PREDICTED BY IDOCK:    3.09 KCAL/MOL
REMARK 922        TOTAL FREE ENERGY PREDICTED BY IDOCK:    2.35 KCAL/MOL
REMARK 923 INTER-LIGAND FREE ENERGY PREDICTED BY IDOCK:    1.33 KCAL/MOL
REMARK 924 INTRA-LIGAND FREE ENERGY PREDICTED BY IDOCK:    1.02 KCAL/MOL
REMARK 927      BINDING AFFINITY PREDICTED BY RF-SCORE:    0.00 PKD
ROOT
HETATM    1  O   UNL     1      -6.254   6.233  68.824  1.00  0.00    -0.033 OA 
HETATM    2  C   UNL     1      -6.371   6.819  70.117  1.00  0.00    -0.039 C  
HETATM    3  H   UNL     1      -5.503   6.630  68.399  1.00  0.00     0.000 HD 
ENDROOT
BRANCH   2   4
HETATM    4  C   UNL     1      -6.408   8.319  69.952  1.00  0.00    -0.032 C  
HETATM    5  C   UNL     1      -5.422   9.027  69.058  1.00  0.00    -0.037 C  
HETATM    6  C   UNL     1      -5.312   9.167  70.550  1.00  0.00    -0.030 C  
ENDBRANCH   2   4
BRANCH   2   7
HETATM    7  C   UNL     1      -7.553   6.194  70.785  1.00  0.00    -0.096 C  
HETATM    8  C   UNL     1      -8.208   6.675  71.858  1.00  0.00    -0.103 C  
HETATM    9  C   UNL     1      -9.423   6.034  72.486  1.00  0.00    -0.153 C  
HETATM   10  C   UNL     1      -9.027   5.594  73.912  1.00  0.00    -0.126 C  
HETATM   11  C   UNL     1     -10.714   6.931  72.457  1.00  0.00    -0.263 C  
HETATM   12  C   UNL     1     -10.517   8.199  73.308  1.00  0.00     0.061 C  
HETATM   13  C   UNL     1     -10.340   9.366  72.360  1.00  0.00     1.154 C  
HETATM   14  C   UNL     1     -10.519   8.852  70.926  1.00  0.00    -0.299 C  
HETATM   15  C   UNL     1     -11.157   9.934  70.060  1.00  0.00    -0.335 C  
HETATM   16  C   UNL     1     -12.276   9.484  69.159  1.00  0.00     1.401 C  
HETATM   17  C   UNL     1     -10.693  11.205  70.105  1.00  0.00     0.310 C  
HETATM   18  C   UNL     1     -13.265   8.508  69.813  1.00  0.00     3.267 C  
HETATM   19  C   UNL     1     -10.976   6.494  69.891  1.00  0.00    -0.393 C  
HETATM   20  C   UNL     1     -11.240   7.475  71.058  1.00  0.00    -0.281 C  
HETATM   21  C   UNL     1     -12.770   7.741  71.054  1.00  0.00    -0.118 C  
BRANCH  17  22
HETATM   22  C   UNL     1     -10.926  12.204  69.086  1.00  0.00    -0.215 C  
HETATM   23  C   UNL     1     -10.943  12.104  67.743  1.00  0.00    -0.278 C  
HETATM   24  C   UNL     1     -11.428  13.309  66.951  1.00  0.00    -0.376 C  
HETATM   25  C   UNL     1     -10.417  13.755  65.897  1.00  0.00    -0.297 C  
HETATM   26  C   UNL     1     -10.052  12.592  64.976  1.00  0.00    -0.252 C  
HETATM   27  O   UNL     1      -9.249  14.297  66.502  1.00  0.00    -0.318 OA 
HETATM   28  C   UNL     1      -9.545  11.387  65.772  1.00  0.00    -0.233 C  
HETATM   29  H   UNL     1      -8.620  14.575  65.846  1.00  0.00     0.000 HD 
HETATM   30  O   UNL     1      -9.328  10.314  64.849  1.00  0.00    -0.207 OA 
HETATM   31  C   UNL     1     -10.509  10.986  66.892  1.00  0.00    -0.293 C  
HETATM   32  C   UNL     1     -10.975   9.733  67.038  1.00  0.00    -0.059 C  
HETATM   33  H   UNL     1      -9.012   9.566  65.343  1.00  0.00     0.000 HD 
ENDBRANCH  17  22
ENDBRANCH   2   7
TORSDOF 3
ENDMDL
MODEL      133
REMARK 921   NORMALIZED FREE ENERGY PREDICTED BY IDOCK:    3.52 KCAL/MOL
REMARK 922        TOTAL FREE ENERGY PREDICTED BY IDOCK:    2.86 KCAL/MOL
REMARK 923 INTER-LIGAND FREE ENERGY PREDICTED BY IDOCK:    3.01 KCAL/MOL
REMARK 924 INTRA-LIGAND FREE ENERGY PREDICTED BY IDOCK:   -0.16 KCAL/MOL
REMARK 927      BINDING AFFINITY PREDICTED BY RF-SCORE:    0.00 PKD
ROOT
HETATM    1  O   UNL     1      -5.935  17.402  65.186  1.00  0.00     0.354 OA 
HETATM    2  C   UNL     1      -6.788  18.005  66.155  1.00  0.00    -0.277 C  
HETATM    3  H   UNL     1      -6.165  17.766  64.340  1.00  0.00     0.000 HD 
ENDROOT
BRANCH   2   4
HETATM    4  C   UNL     1      -8.216  17.814  65.708  1.00  0.00     0.177 C  
HETATM    5  C   UNL     1      -9.327  18.667  66.268  1.00  0.00    -0.251 C  
HETATM    6  C   UNL     1      -9.227  17.219  66.657  1.00  0.00    -0.275 C  
ENDBRANCH   2   4
BRANCH   2   7
HETATM    7  C   UNL     1      -6.426  17.431  67.487  1.00  0.00    -0.159 C  
HETATM    8  C   UNL     1      -7.269  16.846  68.357  1.00  0.00    -0.195 C  
HETATM    9  C   UNL     1      -6.862  16.244  69.681  1.00  0.00    -0.125 C  
HETATM   10  C   UNL     1      -7.542  17.071  70.793  1.00  0.00     4.176 C  
HETATM   11  C   UNL     1      -7.145  14.702  69.803  1.00  0.00    -0.096 C  
HETATM   12  C   UNL     1      -8.657  14.418  69.748  1.00  0.00     0.702 C  
HETATM   13  C   UNL     1      -8.963  13.818  68.393  1.00  0.00    -0.166 C  
HETATM   14  C   UNL     1      -7.641  13.638  67.637  1.00  0.00    -0.186 C  
HETATM   15  C   UNL     1      -7.713  12.401  66.747  1.00  0.00     0.115 C  
HETATM   16  C   UNL     1      -6.514  11.492  66.781  1.00  0.00    -0.128 C  
HETATM   17  C   UNL     1      -8.797  12.187  65.963  1.00  0.00     0.095 C  
HETATM   18  C   UNL     1      -5.940  11.250  68.184  1.00  0.00    -0.045 C  
HETATM   19  C   UNL     1      -5.146  14.195  68.192  1.00  0.00    -0.116 C  
HETATM   20  C   UNL     1      -6.521  13.719  68.719  1.00  0.00    -0.096 C  
HETATM   21  C   UNL     1      -6.293  12.284  69.270  1.00  0.00    -0.103 C  
BRANCH  17  22
HETATM   22  C   UNL     1      -8.824  11.307  64.817  1.00  0.00     0.128 C  
HETATM   23  C   UNL     1      -9.153  10.004  64.715  1.00  0.00    -0.268 C  
HETATM   24  C   UNL     1      -9.279   9.416  63.317  1.00  0.00     0.093 C  
HETATM   25  C   UNL     1      -8.413   8.172  63.131  1.00  0.00     0.074 C  
HETATM   26  C   UNL     1      -8.727   7.132  64.206  1.00  0.00     0.574 C  
HETATM   27  O   UNL     1      -7.029   8.503  63.147  1.00  0.00    -0.089 OA 
HETATM   28  C   UNL     1      -8.579   7.719  65.612  1.00  0.00    -0.127 C  
HETATM   29  H   UNL     1      -6.490   7.729  63.031  1.00  0.00     0.000 HD 
HETATM   30  O   UNL     1      -8.990   6.718  66.549  1.00  0.00    -0.139 OA 
HETATM   31  C   UNL     1      -9.372   9.018  65.783  1.00  0.00    -0.302 C  
HETATM   32  C   UNL     1     -10.249   9.209  66.784  1.00  0.00    -0.331 C  
HETATM   33  H   UNL     1      -8.898   7.083  67.421  1.00  0.00     0.000 HD 
ENDBRANCH  17  22
ENDBRANCH   2   7
TORSDOF 3
ENDMDL
MODEL      134
REMARK 921   NORMALIZED FREE ENERGY PREDICTED BY IDOCK:    3.54 KCAL/MOL
REMARK 922        TOTAL FREE ENERGY PREDICTED BY IDOCK:    2.88 KCAL/MOL
REMARK 923 INTER-LIGAND FREE ENERGY PREDICTED BY IDOCK:    3.52 KCAL/MOL
REMARK 924 INTRA-LIGAND FREE ENERGY PREDICTED BY IDOCK:   -0.64 KCAL/MOL
REMARK 927      BINDING AFFINITY PREDICTED BY RF-SCORE:    0.00 PKD
ROOT
HETATM    1  O   UNL     1     -11.136  16.628  65.163  1.00  0.00    -0.349 OA 
HETATM    2  C   UNL     1     -11.582  15.442  65.816  1.00  0.00     0.073 C  
HETATM    3  H   UNL     1     -11.431  16.583  64.261  1.00  0.00     0.000 HD 
ENDROOT
BRANCH   2   4
HETATM    4  C   UNL     1     -11.107  14.257  65.012  1.00  0.00    -0.377 C  
HETATM    5  C   UNL     1     -11.917  13.727  63.856  1.00  0.00    -0.414 C  
HETATM    6  C   UNL     1     -11.825  12.934  65.129  1.00  0.00    -0.415 C  
ENDBRANCH   2   4
BRANCH   2   7
HETATM    7  C   UNL     1     -11.116  15.513  67.235  1.00  0.00    -0.271 C  
HETATM    8  C   UNL     1     -11.593  14.792  68.266  1.00  0.00    -0.348 C  
HETATM    9  C   UNL     1     -11.075  14.864  69.682  1.00  0.00    -0.298 C  
HETATM   10  C   UNL     1     -12.217  15.413  70.565  1.00  0.00    -0.436 C  
HETATM   11  C   UNL     1     -10.479  13.512  70.221  1.00  0.00     1.729 C  
HETATM   12  C   UNL     1     -11.571  12.430  70.311  1.00  0.00    -0.060 C  
HETATM   13  C   UNL     1     -11.345  11.453  69.178  1.00  0.00    -0.353 C  
HETATM   14  C   UNL     1     -10.064  11.862  68.438  1.00  0.00    -0.206 C  
HETATM   15  C   UNL     1      -9.347  10.623  67.912  1.00  0.00    -0.154 C  
HETATM   16  C   UNL     1      -7.859  10.577  68.133  1.00  0.00    -0.109 C  
HETATM   17  C   UNL     1     -10.040   9.658  67.262  1.00  0.00    -0.267 C  
HETATM   18  C   UNL     1      -7.408  11.047  69.523  1.00  0.00    -0.064 C  
HETATM   19  C   UNL     1      -8.363  13.830  68.715  1.00  0.00     0.014 C  
HETATM   20  C   UNL     1      -9.301  12.814  69.410  1.00  0.00     1.199 C  
HETATM   21  C   UNL     1      -8.389  11.937  70.310  1.00  0.00     3.834 C  
BRANCH  17  22
HETATM   22  C   UNL     1      -9.452   8.664  66.392  1.00  0.00    -0.295 C  
HETATM   23  C   UNL     1      -8.626   8.797  65.336  1.00  0.00    -0.203 C  
HETATM   24  C   UNL     1      -8.014   7.530  64.755  1.00  0.00    -0.132 C  
HETATM   25  C   UNL     1      -8.270   7.397  63.256  1.00  0.00     0.060 C  
HETATM   26  C   UNL     1      -7.785   8.642  62.515  1.00  0.00    -0.122 C  
HETATM   27  O   UNL     1      -9.648   7.164  62.989  1.00  0.00     1.766 OA 
HETATM   28  C   UNL     1      -8.417   9.914  63.086  1.00  0.00    -0.178 C  
HETATM   29  H   UNL     1      -9.808   7.081  62.056  1.00  0.00     0.000 HD 
HETATM   30  O   UNL     1      -7.833  11.034  62.412  1.00  0.00    -0.354 OA 
HETATM   31  C   UNL     1      -8.245  10.014  64.605  1.00  0.00    -0.163 C  
HETATM   32  C   UNL     1      -7.722  11.095  65.209  1.00  0.00     0.414 C  
HETATM   33  H   UNL     1      -8.226  11.823  62.766  1.00  0.00     0.000 HD 
ENDBRANCH  17  22
ENDBRANCH   2   7
TORSDOF 3
ENDMDL
MODEL      135
REMARK 921   NORMALIZED FREE ENERGY PREDICTED BY IDOCK:    3.84 KCAL/MOL
REMARK 922        TOTAL FREE ENERGY PREDICTED BY IDOCK:    3.23 KCAL/MOL
REMARK 923 INTER-LIGAND FREE ENERGY PREDICTED BY IDOCK:    1.45 KCAL/MOL
REMARK 924 INTRA-LIGAND FREE ENERGY PREDICTED BY IDOCK:    1.78 KCAL/MOL
REMARK 927      BINDING AFFINITY PREDICTED BY RF-SCORE:    0.00 PKD
ROOT
HETATM    1  O   UNL     1      -8.663  13.115  64.648  1.00  0.00     1.570 OA 
HETATM    2  C   UNL     1      -8.780  11.792  65.164  1.00  0.00     0.516 C  
HETATM    3  H   UNL     1      -9.249  13.181  63.903  1.00  0.00     0.000 HD 
ENDROOT
BRANCH   2   4
HETATM    4  C   UNL     1      -8.540  10.823  64.032  1.00  0.00    -0.028 C  
HETATM    5  C   UNL     1      -7.226  10.096  63.895  1.00  0.00    -0.103 C  
HETATM    6  C   UNL     1      -7.583  11.185  62.924  1.00  0.00     0.386 C  
ENDBRANCH   2   4
BRANCH   2   7
HETATM    7  C   UNL     1      -7.856  11.688  66.335  1.00  0.00     0.035 C  
HETATM    8  C   UNL     1      -8.206  11.391  67.600  1.00  0.00    -0.128 C  
HETATM    9  C   UNL     1      -7.240  11.259  68.754  1.00  0.00    -0.104 C  
HETATM   10  C   UNL     1      -7.571  12.381  69.763  1.00  0.00     1.168 C  
HETATM   11  C   UNL     1      -7.211   9.831  69.412  1.00  0.00    -0.076 C  
HETATM   12  C   UNL     1      -8.568   9.501  70.061  1.00  0.00    -0.234 C  
HETATM   13  C   UNL     1      -9.265   8.488  69.179  1.00  0.00    -0.150 C  
HETATM   14  C   UNL     1      -8.315   8.112  68.035  1.00  0.00    -0.129 C  
HETATM   15  C   UNL     1      -8.524   6.653  67.642  1.00  0.00    -0.121 C  
HETATM   16  C   UNL     1      -7.274   5.838  67.441  1.00  0.00    -0.076 C  
HETATM   17  C   UNL     1      -9.775   6.166  67.463  1.00  0.00    -0.126 C  
HETATM   18  C   UNL     1      -6.183   6.078  68.494  1.00  0.00    -0.032 C  
HETATM   19  C   UNL     1      -5.916   8.890  67.342  1.00  0.00    -0.047 C  
HETATM   20  C   UNL     1      -6.897   8.570  68.495  1.00  0.00    -0.064 C  
HETATM   21  C   UNL     1      -6.257   7.397  69.287  1.00  0.00    -0.031 C  
BRANCH  17  22
HETATM   22  C   UNL     1     -10.095   4.963  66.729  1.00  0.00    -0.269 C  
HETATM   23  C   UNL     1      -9.521   4.419  65.638  1.00  0.00    -0.175 C  
HETATM   24  C   UNL     1      -9.968   3.023  65.228  1.00  0.00     0.256 C  
HETATM   25  C   UNL     1     -10.428   2.966  63.773  1.00  0.00    -0.178 C  
HETATM   26  C   UNL     1      -9.339   3.500  62.843  1.00  0.00    -0.097 C  
HETATM   27  O   UNL     1     -11.639   3.689  63.589  1.00  0.00     0.048 OA 
HETATM   28  C   UNL     1      -8.906   4.913  63.244  1.00  0.00    -0.078 C  
HETATM   29  H   UNL     1     -11.926   3.653  62.683  1.00  0.00     0.000 HD 
HETATM   30  O   UNL     1      -7.818   5.294  62.395  1.00  0.00    -0.064 OA 
HETATM   31  C   UNL     1      -8.527   5.003  64.726  1.00  0.00    -0.148 C  
HETATM   32  C   UNL     1      -7.355   5.507  65.148  1.00  0.00    -0.068 C  
HETATM   33  H   UNL     1      -7.549   6.170  62.643  1.00  0.00     0.000 HD 
ENDBRANCH  17  22
ENDBRANCH   2   7
TORSDOF 3
ENDMDL
MODEL      136
REMARK 921   NORMALIZED FREE ENERGY PREDICTED BY IDOCK:    4.08 KCAL/MOL
REMARK 922        TOTAL FREE ENERGY PREDICTED BY IDOCK:    3.51 KCAL/MOL
REMARK 923 INTER-LIGAND FREE ENERGY PREDICTED BY IDOCK:   -0.88 KCAL/MOL
REMARK 924 INTRA-LIGAND FREE ENERGY PREDICTED BY IDOCK:    4.40 KCAL/MOL
REMARK 927      BINDING AFFINITY PREDICTED BY RF-SCORE:    0.00 PKD
ROOT
HETATM    1  O   UNL     1     -13.257   8.557  71.288  1.00  0.00    -0.483 OA 
HETATM    2  C   UNL     1     -12.088   7.926  70.771  1.00  0.00    -0.084 C  
HETATM    3  H   UNL     1     -13.642   9.061  70.582  1.00  0.00     0.000 HD 
ENDROOT
BRANCH   2   4
HETATM    4  C   UNL     1     -11.215   8.989  70.151  1.00  0.00    -0.191 C  
HETATM    5  C   UNL     1     -11.814  10.245  69.569  1.00  0.00    -0.148 C  
HETATM    6  C   UNL     1     -11.236   9.200  68.657  1.00  0.00     0.246 C  
ENDBRANCH   2   4
BRANCH   2   7
HETATM    7  C   UNL     1     -11.482   7.132  71.883  1.00  0.00    -0.305 C  
HETATM    8  C   UNL     1     -11.529   5.795  72.024  1.00  0.00    -0.260 C  
HETATM    9  C   UNL     1     -10.874   5.021  73.144  1.00  0.00    -0.347 C  
HETATM   10  C   UNL     1     -12.000   4.356  73.966  1.00  0.00     1.551 C  
HETATM   11  C   UNL     1      -9.777   4.000  72.667  1.00  0.00    -0.199 C  
HETATM   12  C   UNL     1     -10.404   2.889  71.804  1.00  0.00     0.159 C  
HETATM   13  C   UNL     1     -10.014   3.150  70.365  1.00  0.00     0.245 C  
HETATM   14  C   UNL     1      -9.073   4.361  70.334  1.00  0.00    -0.168 C  
HETATM   15  C   UNL     1      -8.052   4.199  69.211  1.00  0.00    -0.063 C  
HETATM   16  C   UNL     1      -6.625   4.522  69.564  1.00  0.00    -0.036 C  
HETATM   17  C   UNL     1      -8.452   3.817  67.975  1.00  0.00    -0.107 C  
HETATM   18  C   UNL     1      -6.174   3.992  70.933  1.00  0.00    -0.018 C  
HETATM   19  C   UNL     1      -8.137   5.976  72.166  1.00  0.00    -0.107 C  
HETATM   20  C   UNL     1      -8.558   4.533  71.796  1.00  0.00    -0.125 C  
HETATM   21  C   UNL     1      -7.282   3.662  71.953  1.00  0.00    -0.050 C  
BRANCH  17  22
HETATM   22  C   UNL     1      -7.684   4.006  66.765  1.00  0.00    -0.089 C  
HETATM   23  C   UNL     1      -6.673   4.851  66.487  1.00  0.00    -0.054 C  
HETATM   24  C   UNL     1      -5.932   4.657  65.172  1.00  0.00    -0.022 C  
HETATM   25  C   UNL     1      -5.890   5.935  64.337  1.00  0.00    -0.025 C  
HETATM   26  C   UNL     1      -5.299   7.088  65.146  1.00  0.00    -0.028 C  
HETATM   27  O   UNL     1      -7.185   6.277  63.856  1.00  0.00    -0.053 OA 
HETATM   28  C   UNL     1      -6.058   7.295  66.459  1.00  0.00    -0.039 C  
HETATM   29  H   UNL     1      -7.159   7.071  63.335  1.00  0.00     0.000 HD 
HETATM   30  O   UNL     1      -5.380   8.316  67.199  1.00  0.00    -0.035 OA 
HETATM   31  C   UNL     1      -6.185   5.999  67.265  1.00  0.00    -0.033 C  
HETATM   32  C   UNL     1      -5.813   5.903  68.553  1.00  0.00    -0.016 C  
HETATM   33  H   UNL     1      -5.851   8.445  68.014  1.00  0.00     0.000 HD 
ENDBRANCH  17  22
ENDBRANCH   2   7
TORSDOF 3
ENDMDL
MODEL      137
REMARK 921   NORMALIZED FREE ENERGY PREDICTED BY IDOCK:    4.56 KCAL/MOL
REMARK 922        TOTAL FREE ENERGY PREDICTED BY IDOCK:    4.08 KCAL/MOL
REMARK 923 INTER-LIGAND FREE ENERGY PREDICTED BY IDOCK:    5.26 KCAL/MOL
REMARK 924 INTRA-LIGAND FREE ENERGY PREDICTED BY IDOCK:   -1.18 KCAL/MOL
REMARK 927      BINDING AFFINITY PREDICTED BY RF-SCORE:    0.00 PKD
ROOT
HETATM    1  O   UNL     1      -6.224  21.014  63.968  1.00  0.00    -0.312 OA 
HETATM    2  C   UNL     1      -7.197  20.028  64.302  1.00  0.00     1.142 C  
HETATM    3  H   UNL     1      -6.016  20.906  63.048  1.00  0.00     0.000 HD 
ENDROOT
BRANCH   2   4
HETATM    4  C   UNL     1      -6.661  18.680  63.890  1.00  0.00     2.672 C  
HETATM    5  C   UNL     1      -6.144  17.702  64.915  1.00  0.00     1.146 C  
HETATM    6  C   UNL     1      -5.182  18.396  63.993  1.00  0.00     0.040 C  
ENDBRANCH   2   4
BRANCH   2   7
HETATM    7  C   UNL     1      -7.524  20.199  65.751  1.00  0.00    -0.271 C  
HETATM    8  C   UNL     1      -8.642  19.776  66.370  1.00  0.00    -0.398 C  
HETATM    9  C   UNL     1      -8.925  19.935  67.845  1.00  0.00    -0.381 C  
HETATM   10  C   UNL     1     -10.148  20.867  67.983  1.00  0.00     0.117 C  
HETATM   11  C   UNL     1      -9.098  18.577  68.618  1.00  0.00    -0.325 C  
HETATM   12  C   UNL     1     -10.336  17.814  68.113  1.00  0.00    -0.393 C  
HETATM   13  C   UNL     1      -9.849  16.651  67.275  1.00  0.00    -0.255 C  
HETATM   14  C   UNL     1      -8.316  16.627  67.331  1.00  0.00    -0.190 C  
HETATM   15  C   UNL     1      -7.815  15.187  67.268  1.00  0.00    -0.241 C  
HETATM   16  C   UNL     1      -6.732  14.821  68.248  1.00  0.00    -0.114 C  
HETATM   17  C   UNL     1      -8.318  14.329  66.349  1.00  0.00     0.562 C  
HETATM   18  C   UNL     1      -6.945  15.374  69.665  1.00  0.00    -0.184 C  
HETATM   19  C   UNL     1      -6.521  18.149  68.471  1.00  0.00    -0.214 C  
HETATM   20  C   UNL     1      -7.925  17.504  68.560  1.00  0.00    -0.271 C  
HETATM   21  C   UNL     1      -7.892  16.581  69.808  1.00  0.00     0.620 C  
BRANCH  17  22
HETATM   22  C   UNL     1      -7.676  13.104  65.927  1.00  0.00     2.962 C  
HETATM   23  C   UNL     1      -8.144  11.843  65.863  1.00  0.00     0.543 C  
HETATM   24  C   UNL     1      -7.275  10.802  65.172  1.00  0.00     0.165 C  
HETATM   25  C   UNL     1      -7.011   9.586  66.057  1.00  0.00    -0.091 C  
HETATM   26  C   UNL     1      -8.326   8.981  66.545  1.00  0.00    -0.115 C  
HETATM   27  O   UNL     1      -6.179   9.925  67.160  1.00  0.00    -0.061 OA 
HETATM   28  C   UNL     1      -9.191  10.023  67.259  1.00  0.00    -0.141 C  
HETATM   29  H   UNL     1      -6.015   9.169  67.711  1.00  0.00     0.000 HD 
HETATM   30  O   UNL     1     -10.439   9.404  67.588  1.00  0.00    -0.238 OA 
HETATM   31  C   UNL     1      -9.388  11.287  66.416  1.00  0.00    -0.210 C  
HETATM   32  C   UNL     1     -10.600  11.799  66.145  1.00  0.00    -0.301 C  
HETATM   33  H   UNL     1     -10.975  10.051  68.031  1.00  0.00     0.000 HD 
ENDBRANCH  17  22
ENDBRANCH   2   7
TORSDOF 3
ENDMDL
MODEL      138
REMARK 921   NORMALIZED FREE ENERGY PREDICTED BY IDOCK:    5.39 KCAL/MOL
REMARK 922        TOTAL FREE ENERGY PREDICTED BY IDOCK:    5.06 KCAL/MOL
REMARK 923 INTER-LIGAND FREE ENERGY PREDICTED BY IDOCK:    6.13 KCAL/MOL
REMARK 924 INTRA-LIGAND FREE ENERGY PREDICTED BY IDOCK:   -1.08 KCAL/MOL
REMARK 927      BINDING AFFINITY PREDICTED BY RF-SCORE:    0.00 PKD
ROOT
HETATM    1  O   UNL     1     -10.320  17.272  71.371  1.00  0.00     2.305 OA 
HETATM    2  C   UNL     1      -9.948  16.432  70.281  1.00  0.00     0.716 C  
HETATM    3  H   UNL     1     -10.057  16.832  72.170  1.00  0.00     0.000 HD 
ENDROOT
BRANCH   2   4
HETATM    4  C   UNL     1     -10.537  15.064  70.521  1.00  0.00    -0.040 C  
HETATM    5  C   UNL     1     -10.877  14.151  69.369  1.00  0.00    -0.169 C  
HETATM    6  C   UNL     1     -11.979  14.794  70.162  1.00  0.00    -0.367 C  
ENDBRANCH   2   4
BRANCH   2   7
HETATM    7  C   UNL     1     -10.364  17.124  69.023  1.00  0.00    -0.331 C  
HETATM    8  C   UNL     1      -9.592  17.341  67.942  1.00  0.00    -0.269 C  
HETATM    9  C   UNL     1     -10.055  18.014  66.672  1.00  0.00    -0.372 C  
HETATM   10  C   UNL     1      -9.256  19.327  66.527  1.00  0.00    -0.388 C  
HETATM   11  C   UNL     1      -9.976  17.103  65.393  1.00  0.00     0.268 C  
HETATM   12  C   UNL     1      -8.515  16.736  65.073  1.00  0.00     3.482 C  
HETATM   13  C   UNL     1      -8.310  15.287  65.457  1.00  0.00     2.431 C  
HETATM   14  C   UNL     1      -9.656  14.719  65.925  1.00  0.00    -0.320 C  
HETATM   15  C   UNL     1      -9.759  13.245  65.546  1.00  0.00    -0.063 C  
HETATM   16  C   UNL     1     -11.067  12.809  64.941  1.00  0.00    -0.324 C  
HETATM   17  C   UNL     1      -8.725  12.404  65.787  1.00  0.00     0.543 C  
HETATM   18  C   UNL     1     -11.647  13.787  63.910  1.00  0.00    -0.229 C  
HETATM   19  C   UNL     1     -12.047  15.736  66.222  1.00  0.00     1.139 C  
HETATM   20  C   UNL     1     -10.739  15.707  65.395  1.00  0.00    -0.424 C  
HETATM   21  C   UNL     1     -11.145  15.243  63.970  1.00  0.00     0.569 C  
BRANCH  17  22
HETATM   22  C   UNL     1      -8.831  10.963  65.848  1.00  0.00    -0.197 C  
HETATM   23  C   UNL     1      -9.481  10.165  66.717  1.00  0.00    -0.205 C  
HETATM   24  C   UNL     1      -9.568   8.683  66.383  1.00  0.00    -0.316 C  
HETATM   25  C   UNL     1      -9.052   7.801  67.517  1.00  0.00    -0.129 C  
HETATM   26  C   UNL     1      -9.777   8.123  68.823  1.00  0.00    -0.155 C  
HETATM   27  O   UNL     1      -7.645   7.946  67.680  1.00  0.00    -0.104 OA 
HETATM   28  C   UNL     1      -9.670   9.611  69.169  1.00  0.00    -0.178 C  
HETATM   29  H   UNL     1      -7.324   7.397  68.386  1.00  0.00     0.000 HD 
HETATM   30  O   UNL     1     -10.460   9.845  70.340  1.00  0.00    -0.274 OA 
HETATM   31  C   UNL     1     -10.101  10.508  68.005  1.00  0.00    -0.190 C  
HETATM   32  C   UNL     1     -11.023  11.478  68.135  1.00  0.00    -0.279 C  
HETATM   33  H   UNL     1     -10.393  10.768  70.555  1.00  0.00     0.000 HD 
ENDBRANCH  17  22
ENDBRANCH   2   7
TORSDOF 3
ENDMDL
MODEL      139
REMARK 921   NORMALIZED FREE ENERGY PREDICTED BY IDOCK:    5.41 KCAL/MOL
REMARK 922        TOTAL FREE ENERGY PREDICTED BY IDOCK:    5.08 KCAL/MOL
REMARK 923 INTER-LIGAND FREE ENERGY PREDICTED BY IDOCK:   -1.08 KCAL/MOL
REMARK 924 INTRA-LIGAND FREE ENERGY PREDICTED BY IDOCK:    6.15 KCAL/MOL
REMARK 927      BINDING AFFINITY PREDICTED BY RF-SCORE:    0.00 PKD
ROOT
HETATM    1  O   UNL     1     -11.896  12.230  62.677  1.00  0.00    -0.175 OA 
HETATM    2  C   UNL     1     -12.105  12.970  63.877  1.00  0.00    -0.471 C  
HETATM    3  H   UNL     1     -12.694  11.746  62.500  1.00  0.00     0.000 HD 
ENDROOT
BRANCH   2   4
HETATM    4  C   UNL     1     -12.560  12.010  64.948  1.00  0.00     0.112 C  
HETATM    5  C   UNL     1     -12.435  12.361  66.409  1.00  0.00     0.570 C  
HETATM    6  C   UNL     1     -11.539  11.313  65.813  1.00  0.00     0.329 C  
ENDBRANCH   2   4
BRANCH   2   7
HETATM    7  C   UNL     1     -10.849  13.731  64.155  1.00  0.00    -0.105 C  
HETATM    8  C   UNL     1     -10.669  14.642  65.130  1.00  0.00    -0.430 C  
HETATM    9  C   UNL     1      -9.373  15.367  65.405  1.00  0.00     0.140 C  
HETATM   10  C   UNL     1      -9.617  16.867  65.134  1.00  0.00     1.247 C  
HETATM   11  C   UNL     1      -8.769  15.091  66.830  1.00  0.00    -0.285 C  
HETATM   12  C   UNL     1      -9.702  15.626  67.932  1.00  0.00    -0.211 C  
HETATM   13  C   UNL     1     -10.376  14.437  68.581  1.00  0.00    -0.245 C  
HETATM   14  C   UNL     1      -9.801  13.159  67.957  1.00  0.00    -0.231 C  
HETATM   15  C   UNL     1      -9.757  12.045  68.999  1.00  0.00     0.197 C  
HETATM   16  C   UNL     1      -8.484  11.242  69.053  1.00  0.00     0.002 C  
HETATM   17  C   UNL     1     -10.831  11.804  69.788  1.00  0.00     0.170 C  
HETATM   18  C   UNL     1      -7.201  12.077  68.939  1.00  0.00    -0.089 C  
HETATM   19  C   UNL     1      -8.048  12.691  66.074  1.00  0.00     1.192 C  
HETATM   20  C   UNL     1      -8.474  13.588  67.261  1.00  0.00    -0.200 C  
HETATM   21  C   UNL     1      -7.334  13.477  68.310  1.00  0.00    -0.116 C  
BRANCH  17  22
HETATM   22  C   UNL     1     -11.066  10.573  70.508  1.00  0.00    -0.267 C  
HETATM   23  C   UNL     1     -10.423   9.389  70.461  1.00  0.00    -0.335 C  
HETATM   24  C   UNL     1     -10.789   8.347  71.507  1.00  0.00    -0.323 C  
HETATM   25  C   UNL     1     -11.186   7.012  70.881  1.00  0.00    -0.282 C  
HETATM   26  C   UNL     1     -10.086   6.506  69.949  1.00  0.00    -0.202 C  
HETATM   27  O   UNL     1     -12.421   7.119  70.182  1.00  0.00    -0.497 OA 
HETATM   28  C   UNL     1      -9.734   7.548  68.884  1.00  0.00    -0.151 C  
HETATM   29  H   UNL     1     -12.668   6.289  69.793  1.00  0.00     0.000 HD 
HETATM   30  O   UNL     1      -8.631   7.041  68.125  1.00  0.00    -0.127 OA 
HETATM   31  C   UNL     1      -9.421   8.917  69.495  1.00  0.00    -0.159 C  
HETATM   32  C   UNL     1      -8.291   9.594  69.226  1.00  0.00    -0.137 C  
HETATM   33  H   UNL     1      -8.413   7.688  67.464  1.00  0.00     0.000 HD 
ENDBRANCH  17  22
ENDBRANCH   2   7
TORSDOF 3
ENDMDL
MODEL      140
REMARK 921   NORMALIZED FREE ENERGY PREDICTED BY IDOCK:    6.52 KCAL/MOL
REMARK 922        TOTAL FREE ENERGY PREDICTED BY IDOCK:    6.38 KCAL/MOL
REMARK 923 INTER-LIGAND FREE ENERGY PREDICTED BY IDOCK:    4.06 KCAL/MOL
REMARK 924 INTRA-LIGAND FREE ENERGY PREDICTED BY IDOCK:    2.32 KCAL/MOL
REMARK 927      BINDING AFFINITY PREDICTED BY RF-SCORE:    0.00 PKD
ROOT
HETATM    1  O   UNL     1     -10.719  15.280  73.560  1.00  0.00     1.669 OA 
HETATM    2  C   UNL     1     -11.796  14.798  72.762  1.00  0.00    -0.086 C  
HETATM    3  H   UNL     1     -10.695  14.754  74.351  1.00  0.00     0.000 HD 
ENDROOT
BRANCH   2   4
HETATM    4  C   UNL     1     -13.046  14.800  73.608  1.00  0.00    -0.104 C  
HETATM    5  C   UNL     1     -14.280  15.548  73.170  1.00  0.00     0.538 C  
HETATM    6  C   UNL     1     -13.465  16.061  74.323  1.00  0.00     0.947 C  
ENDBRANCH   2   4
BRANCH   2   7
HETATM    7  C   UNL     1     -11.834  15.626  71.518  1.00  0.00    -0.493 C  
HETATM    8  C   UNL     1     -10.831  16.382  71.034  1.00  0.00     0.346 C  
HETATM    9  C   UNL     1     -10.892  17.180  69.753  1.00  0.00     0.237 C  
HETATM   10  C   UNL     1     -10.779  18.672  70.133  1.00  0.00     1.958 C  
HETATM   11  C   UNL     1      -9.840  16.741  68.670  1.00  0.00    -0.261 C  
HETATM   12  C   UNL     1      -8.405  16.998  69.165  1.00  0.00    -0.026 C  
HETATM   13  C   UNL     1      -7.795  15.659  69.519  1.00  0.00    -0.180 C  
HETATM   14  C   UNL     1      -8.803  14.561  69.159  1.00  0.00     0.037 C  
HETATM   15  C   UNL     1      -8.066  13.305  68.704  1.00  0.00    -0.028 C  
HETATM   16  C   UNL     1      -8.604  12.635  67.468  1.00  0.00    -0.185 C  
HETATM   17  C   UNL     1      -7.014  12.835  69.415  1.00  0.00     0.110 C  
HETATM   18  C   UNL     1      -8.999  13.601  66.342  1.00  0.00     0.009 C  
HETATM   19  C   UNL     1     -11.229  14.578  68.180  1.00  0.00    -0.301 C  
HETATM   20  C   UNL     1      -9.823  15.226  68.185  1.00  0.00    -0.217 C  
HETATM   21  C   UNL     1      -9.273  15.063  66.742  1.00  0.00    -0.280 C  
BRANCH  17  22
HETATM   22  C   UNL     1      -6.497  11.488  69.331  1.00  0.00    -0.111 C  
HETATM   23  C   UNL     1      -6.264  10.700  68.264  1.00  0.00    -0.050 C  
HETATM   24  C   UNL     1      -5.515   9.396  68.499  1.00  0.00    -0.037 C  
HETATM   25  C   UNL     1      -6.273   8.186  67.960  1.00  0.00    -0.047 C  
HETATM   26  C   UNL     1      -6.610   8.377  66.482  1.00  0.00    -0.056 C  
HETATM   27  O   UNL     1      -7.456   7.943  68.712  1.00  0.00    -0.091 OA 
HETATM   28  C   UNL     1      -7.382   9.678  66.248  1.00  0.00    -0.094 C  
HETATM   29  H   UNL     1      -7.927   7.189  68.377  1.00  0.00     0.000 HD 
HETATM   30  O   UNL     1      -7.564   9.832  64.837  1.00  0.00    -0.116 OA 
HETATM   31  C   UNL     1      -6.675  10.889  66.865  1.00  0.00    -0.106 C  
HETATM   32  C   UNL     1      -6.390  12.001  66.165  1.00  0.00     1.081 C  
HETATM   33  H   UNL     1      -8.043  10.639  64.692  1.00  0.00     0.000 HD 
ENDBRANCH  17  22
ENDBRANCH   2   7
TORSDOF 3
ENDMDL
MODEL      141
REMARK 921   NORMALIZED FREE ENERGY PREDICTED BY IDOCK:    8.08 KCAL/MOL
REMARK 922        TOTAL FREE ENERGY PREDICTED BY IDOCK:    8.22 KCAL/MOL
REMARK 923 INTER-LIGAND FREE ENERGY PREDICTED BY IDOCK:    9.44 KCAL/MOL
REMARK 924 INTRA-LIGAND FREE ENERGY PREDICTED BY IDOCK:   -1.22 KCAL/MOL
REMARK 927      BINDING AFFINITY PREDICTED BY RF-SCORE:    0.00 PKD
ROOT
HETATM    1  O   UNL     1      -9.369   9.286  65.096  1.00  0.00    -0.354 OA 
HETATM    2  C   UNL     1      -9.261  10.583  65.676  1.00  0.00    -0.186 C  
HETATM    3  H   UNL     1      -9.828   9.382  64.270  1.00  0.00     0.000 HD 
ENDROOT
BRANCH   2   4
HETATM    4  C   UNL     1     -10.643  11.184  65.743  1.00  0.00    -0.289 C  
HETATM    5  C   UNL     1     -10.884  12.624  65.367  1.00  0.00    -0.318 C  
HETATM    6  C   UNL     1     -10.968  12.204  66.807  1.00  0.00    -0.325 C  
ENDBRANCH   2   4
BRANCH   2   7
HETATM    7  C   UNL     1      -8.539  10.431  66.977  1.00  0.00    -0.130 C  
HETATM    8  C   UNL     1      -7.289  10.851  67.247  1.00  0.00    -0.103 C  
HETATM    9  C   UNL     1      -6.602  10.711  68.584  1.00  0.00    -0.056 C  
HETATM   10  C   UNL     1      -5.395   9.769  68.387  1.00  0.00    -0.032 C  
HETATM   11  C   UNL     1      -6.209  12.079  69.254  1.00  0.00    -0.096 C  
HETATM   12  C   UNL     1      -5.160  12.821  68.405  1.00  0.00    -0.066 C  
HETATM   13  C   UNL     1      -5.857  13.976  67.719  1.00  0.00    -0.091 C  
HETATM   14  C   UNL     1      -7.312  14.017  68.206  1.00  0.00    -0.115 C  
HETATM   15  C   UNL     1      -7.801  15.461  68.262  1.00  0.00    -0.123 C  
HETATM   16  C   UNL     1      -8.561  15.854  69.501  1.00  0.00    -0.095 C  
HETATM   17  C   UNL     1      -7.574  16.300  67.223  1.00  0.00    -0.203 C  
HETATM   18  C   UNL     1      -7.961  15.320  70.809  1.00  0.00     1.840 C  
HETATM   19  C   UNL     1      -8.721  12.532  69.833  1.00  0.00     2.940 C  
HETATM   20  C   UNL     1      -7.345  13.163  69.510  1.00  0.00     0.456 C  
HETATM   21  C   UNL     1      -7.018  14.106  70.700  1.00  0.00     0.670 C  
BRANCH  17  22
HETATM   22  C   UNL     1      -8.302  17.525  66.978  1.00  0.00    -0.239 C  
HETATM   23  C   UNL     1      -9.556  17.729  66.531  1.00  0.00    -0.315 C  
HETATM   24  C   UNL     1     -10.100  19.150  66.580  1.00  0.00    -0.476 C  
HETATM   25  C   UNL     1     -10.620  19.619  65.223  1.00  0.00     0.192 C  
HETATM   26  C   UNL     1     -11.660  18.641  64.678  1.00  0.00     4.274 C  
HETATM   27  O   UNL     1      -9.555  19.782  64.293  1.00  0.00     3.430 OA 
HETATM   28  C   UNL     1     -11.105  17.216  64.610  1.00  0.00     0.578 C  
HETATM   29  H   UNL     1      -9.878  20.074  63.449  1.00  0.00     0.000 HD 
HETATM   30  O   UNL     1     -12.168  16.353  64.192  1.00  0.00    -0.759 OA 
HETATM   31  C   UNL     1     -10.498  16.766  65.942  1.00  0.00    -0.311 C  
HETATM   32  C   UNL     1     -10.853  15.624  66.556  1.00  0.00    -0.260 C  
HETATM   33  H   UNL     1     -11.823  15.468  64.150  1.00  0.00     0.000 HD 
ENDBRANCH  17  22
ENDBRANCH   2   7
TORSDOF 3
ENDMDL
MODEL      142
REMARK 921   NORMALIZED FREE ENERGY PREDICTED BY IDOCK:   10.05 KCAL/MOL
REMARK 922        TOTAL FREE ENERGY PREDICTED BY IDOCK:   10.53 KCAL/MOL
REMARK 923 INTER-LIGAND FREE ENERGY PREDICTED BY IDOCK:    8.92 KCAL/MOL
REMARK 924 INTRA-LIGAND FREE ENERGY PREDICTED BY IDOCK:    1.61 KCAL/MOL
REMARK 927      BINDING AFFINITY PREDICTED BY RF-SCORE:    0.00 PKD
ROOT
HETATM    1  O   UNL     1      -9.351  10.084  69.529  1.00  0.00    -0.207 OA 
HETATM    2  C   UNL     1      -9.314   8.662  69.608  1.00  0.00    -0.161 C  
HETATM    3  H   UNL     1      -9.853  10.396  70.273  1.00  0.00     0.000 HD 
ENDROOT
BRANCH   2   4
HETATM    4  C   UNL     1     -10.732   8.160  69.719  1.00  0.00    -0.229 C  
HETATM    5  C   UNL     1     -11.248   7.566  71.006  1.00  0.00    -0.281 C  
HETATM    6  C   UNL     1     -10.998   6.677  69.821  1.00  0.00    -0.367 C  
ENDBRANCH   2   4
BRANCH   2   7
HETATM    7  C   UNL     1      -8.524   8.171  68.437  1.00  0.00    -0.126 C  
HETATM    8  C   UNL     1      -8.869   8.283  67.142  1.00  0.00    -0.145 C  
HETATM    9  C   UNL     1      -8.028   7.806  65.981  1.00  0.00    -0.108 C  
HETATM   10  C   UNL     1      -8.813   6.679  65.275  1.00  0.00     0.132 C  
HETATM   11  C   UNL     1      -7.578   8.949  64.998  1.00  0.00    -0.100 C  
HETATM   12  C   UNL     1      -8.796   9.582  64.302  1.00  0.00    -0.247 C  
HETATM   13  C   UNL     1      -9.023  10.945  64.921  1.00  0.00    -0.167 C  
HETATM   14  C   UNL     1      -7.899  11.206  65.931  1.00  0.00     0.036 C  
HETATM   15  C   UNL     1      -7.562  12.694  65.963  1.00  0.00     1.908 C  
HETATM   16  C   UNL     1      -6.097  13.039  65.950  1.00  0.00     5.132 C  
HETATM   17  C   UNL     1      -8.551  13.616  66.032  1.00  0.00     0.964 C  
HETATM   18  C   UNL     1      -5.255  12.203  64.975  1.00  0.00     3.583 C  
HETATM   19  C   UNL     1      -5.852   9.808  66.767  1.00  0.00    -0.054 C  
HETATM   20  C   UNL     1      -6.770  10.189  65.581  1.00  0.00    -0.116 C  
HETATM   21  C   UNL     1      -5.847  10.854  64.524  1.00  0.00     0.237 C  
BRANCH  17  22
HETATM   22  C   UNL     1      -8.373  14.986  66.458  1.00  0.00    -0.002 C  
HETATM   23  C   UNL     1      -7.581  15.515  67.410  1.00  0.00    -0.231 C  
HETATM   24  C   UNL     1      -7.469  17.032  67.473  1.00  0.00    -0.181 C  
HETATM   25  C   UNL     1      -7.795  17.580  68.860  1.00  0.00    -0.197 C  
HETATM   26  C   UNL     1      -6.922  16.912  69.921  1.00  0.00     0.444 C  
HETATM   27  O   UNL     1      -9.173  17.410  69.169  1.00  0.00    -0.143 OA 
HETATM   28  C   UNL     1      -7.051  15.387  69.871  1.00  0.00    -0.073 C  
HETATM   29  H   UNL     1      -9.376  17.752  70.032  1.00  0.00     0.000 HD 
HETATM   30  O   UNL     1      -6.129  14.839  70.819  1.00  0.00    -0.148 OA 
HETATM   31  C   UNL     1      -6.815  14.832  68.464  1.00  0.00    -0.107 C  
HETATM   32  C   UNL     1      -5.930  13.855  68.205  1.00  0.00    -0.125 C  
HETATM   33  H   UNL     1      -6.209  13.893  70.788  1.00  0.00     0.000 HD 
ENDBRANCH  17  22
ENDBRANCH   2   7
TORSDOF 3
ENDMDL
MODEL      143
REMARK 921   NORMALIZED FREE ENERGY PREDICTED BY IDOCK:   10.31 KCAL/MOL
REMARK 922        TOTAL FREE ENERGY PREDICTED BY IDOCK:   10.84 KCAL/MOL
REMARK 923 INTER-LIGAND FREE ENERGY PREDICTED BY IDOCK:   11.50 KCAL/MOL
REMARK 924 INTRA-LIGAND FREE ENERGY PREDICTED BY IDOCK:   -0.67 KCAL/MOL
REMARK 927      BINDING AFFINITY PREDICTED BY RF-SCORE:    0.00 PKD
ROOT
HETATM    1  O   UNL     1      -8.975  14.178  66.344  1.00  0.00    -0.455 OA 
HETATM    2  C   UNL     1     -10.396  14.197  66.240  1.00  0.00    -0.292 C  
HETATM    3  H   UNL     1      -8.627  14.191  65.460  1.00  0.00     0.000 HD 
ENDROOT
BRANCH   2   4
HETATM    4  C   UNL     1     -10.817  13.064  65.337  1.00  0.00    -0.304 C  
HETATM    5  C   UNL     1     -11.270  13.325  63.922  1.00  0.00    -0.313 C  
HETATM    6  C   UNL     1     -12.270  12.904  64.961  1.00  0.00    -0.515 C  
ENDBRANCH   2   4
BRANCH   2   7
HETATM    7  C   UNL     1     -10.944  14.177  67.632  1.00  0.00    -0.278 C  
HETATM    8  C   UNL     1     -11.946  13.400  68.081  1.00  0.00    -0.356 C  
HETATM    9  C   UNL     1     -12.451  13.380  69.504  1.00  0.00    -0.018 C  
HETATM   10  C   UNL     1     -13.910  13.887  69.483  1.00  0.00     4.197 C  
HETATM   11  C   UNL     1     -12.294  11.992  70.226  1.00  0.00    -0.275 C  
HETATM   12  C   UNL     1     -13.159  10.919  69.541  1.00  0.00     0.911 C  
HETATM   13  C   UNL     1     -12.233  10.009  68.762  1.00  0.00     1.136 C  
HETATM   14  C   UNL     1     -10.789  10.449  69.033  1.00  0.00    -0.273 C  
HETATM   15  C   UNL     1      -9.864   9.236  69.020  1.00  0.00    -0.168 C  
HETATM   16  C   UNL     1      -8.856   9.162  70.136  1.00  0.00    -0.215 C  
HETATM   17  C   UNL     1      -9.953   8.320  68.026  1.00  0.00    -0.224 C  
HETATM   18  C   UNL     1      -9.409   9.543  71.517  1.00  0.00     0.457 C  
HETATM   19  C   UNL     1      -9.714  12.378  70.435  1.00  0.00     4.811 C  
HETATM   20  C   UNL     1     -10.849  11.333  70.316  1.00  0.00     0.455 C  
HETATM   21  C   UNL     1     -10.694  10.393  71.544  1.00  0.00     1.609 C  
BRANCH  17  22
HETATM   22  C   UNL     1      -8.916   7.375  67.681  1.00  0.00    -0.126 C  
HETATM   23  C   UNL     1      -8.920   6.028  67.671  1.00  0.00    -0.111 C  
HETATM   24  C   UNL     1      -7.722   5.323  67.052  1.00  0.00    -0.096 C  
HETATM   25  C   UNL     1      -7.090   4.309  68.003  1.00  0.00    -0.060 C  
HETATM   26  C   UNL     1      -8.135   3.308  68.494  1.00  0.00    -0.070 C  
HETATM   27  O   UNL     1      -6.466   4.958  69.105  1.00  0.00    -0.036 OA 
HETATM   28  C   UNL     1      -9.330   4.018  69.136  1.00  0.00    -0.167 C  
HETATM   29  H   UNL     1      -6.072   4.328  69.696  1.00  0.00     0.000 HD 
HETATM   30  O   UNL     1     -10.302   3.021  69.470  1.00  0.00     1.052 OA 
HETATM   31  C   UNL     1      -9.917   5.101  68.226  1.00  0.00    -0.208 C  
HETATM   32  C   UNL     1     -11.221   5.153  67.904  1.00  0.00     1.435 C  
HETATM   33  H   UNL     1     -11.043   3.461  69.869  1.00  0.00     0.000 HD 
ENDBRANCH  17  22
ENDBRANCH   2   7
TORSDOF 3
ENDMDL
MODEL      144
REMARK 921   NORMALIZED FREE ENERGY PREDICTED BY IDOCK:   11.20 KCAL/MOL
REMARK 922        TOTAL FREE ENERGY PREDICTED BY IDOCK:   11.89 KCAL/MOL
REMARK 923 INTER-LIGAND FREE ENERGY PREDICTED BY IDOCK:   12.51 KCAL/MOL
REMARK 924 INTRA-LIGAND FREE ENERGY PREDICTED BY IDOCK:   -0.63 KCAL/MOL
REMARK 927      BINDING AFFINITY PREDICTED BY RF-SCORE:    0.00 PKD
ROOT
HETATM    1  O   UNL     1      -6.546   6.960  67.487  1.00  0.00    -0.053 OA 
HETATM    2  C   UNL     1      -7.890   6.729  67.901  1.00  0.00    -0.113 C  
HETATM    3  H   UNL     1      -6.468   6.648  66.593  1.00  0.00     0.000 HD 
ENDROOT
BRANCH   2   4
HETATM    4  C   UNL     1      -8.211   5.274  67.668  1.00  0.00    -0.099 C  
HETATM    5  C   UNL     1      -7.183   4.200  67.924  1.00  0.00    -0.064 C  
HETATM    6  C   UNL     1      -7.572   4.540  66.514  1.00  0.00    -0.090 C  
ENDBRANCH   2   4
BRANCH   2   7
HETATM    7  C   UNL     1      -8.012   7.220  69.308  1.00  0.00    -0.118 C  
HETATM    8  C   UNL     1      -7.527   8.378  69.792  1.00  0.00    -0.072 C  
HETATM    9  C   UNL     1      -7.700   8.859  71.213  1.00  0.00    -0.145 C  
HETATM   10  C   UNL     1      -6.296   8.917  71.855  1.00  0.00    -0.062 C  
HETATM   11  C   UNL     1      -8.491  10.212  71.344  1.00  0.00     2.694 C  
HETATM   12  C   UNL     1      -7.714  11.366  70.684  1.00  0.00     3.391 C  
HETATM   13  C   UNL     1      -8.413  11.708  69.386  1.00  0.00     0.649 C  
HETATM   14  C   UNL     1      -9.675  10.842  69.278  1.00  0.00    -0.142 C  
HETATM   15  C   UNL     1     -10.776  11.613  68.557  1.00  0.00    -0.250 C  
HETATM   16  C   UNL     1     -12.147  11.541  69.175  1.00  0.00    -0.329 C  
HETATM   17  C   UNL     1     -10.503  12.284  67.412  1.00  0.00    -0.228 C  
HETATM   18  C   UNL     1     -12.160  11.666  70.705  1.00  0.00    -0.383 C  
HETATM   19  C   UNL     1     -10.726   8.975  70.778  1.00  0.00    -0.301 C  
HETATM   20  C   UNL     1      -9.950  10.313  70.718  1.00  0.00     0.691 C  
HETATM   21  C   UNL     1     -10.843  11.357  71.442  1.00  0.00     3.971 C  
BRANCH  17  22
HETATM   22  C   UNL     1     -11.493  12.705  66.447  1.00  0.00    -0.409 C  
HETATM   23  C   UNL     1     -11.453  13.671  65.508  1.00  0.00    -0.317 C  
HETATM   24  C   UNL     1     -12.593  13.725  64.503  1.00  0.00    -0.249 C  
HETATM   25  C   UNL     1     -13.252  15.102  64.448  1.00  0.00     1.486 C  
HETATM   26  C   UNL     1     -12.212  16.186  64.172  1.00  0.00     0.617 C  
HETATM   27  O   UNL     1     -13.957  15.382  65.652  1.00  0.00     1.462 OA 
HETATM   28  C   UNL     1     -11.076  16.144  65.197  1.00  0.00    -0.249 C  
HETATM   29  H   UNL     1     -14.368  16.238  65.618  1.00  0.00     0.000 HD 
HETATM   30  O   UNL     1     -10.099  17.115  64.808  1.00  0.00     0.401 OA 
HETATM   31  C   UNL     1     -10.465  14.745  65.327  1.00  0.00    -0.427 C  
HETATM   32  C   UNL     1      -9.146  14.512  65.211  1.00  0.00     1.251 C  
HETATM   33  H   UNL     1      -9.394  17.089  65.444  1.00  0.00     0.000 HD 
ENDBRANCH  17  22
ENDBRANCH   2   7
TORSDOF 3
ENDMDL
MODEL      145
REMARK 921   NORMALIZED FREE ENERGY PREDICTED BY IDOCK:   11.76 KCAL/MOL
REMARK 922        TOTAL FREE ENERGY PREDICTED BY IDOCK:   12.55 KCAL/MOL
REMARK 923 INTER-LIGAND FREE ENERGY PREDICTED BY IDOCK:   13.56 KCAL/MOL
REMARK 924 INTRA-LIGAND FREE ENERGY PREDICTED BY IDOCK:   -1.01 KCAL/MOL
REMARK 927      BINDING AFFINITY PREDICTED BY RF-SCORE:    0.00 PKD
ROOT
HETATM    1  O   UNL     1     -10.915  15.692  69.939  1.00  0.00    -0.262 OA 
HETATM    2  C   UNL     1     -11.006  15.981  68.546  1.00  0.00    -0.326 C  
HETATM    3  H   UNL     1     -11.796  15.528  70.252  1.00  0.00     0.000 HD 
ENDROOT
BRANCH   2   4
HETATM    4  C   UNL     1     -12.002  17.099  68.363  1.00  0.00     1.492 C  
HETATM    5  C   UNL     1     -13.346  17.062  69.046  1.00  0.00     6.749 C  
HETATM    6  C   UNL     1     -13.258  16.860  67.560  1.00  0.00     6.358 C  
ENDBRANCH   2   4
BRANCH   2   7
HETATM    7  C   UNL     1      -9.618  16.240  68.054  1.00  0.00    -0.224 C  
HETATM    8  C   UNL     1      -8.494  16.223  68.794  1.00  0.00    -0.240 C  
HETATM    9  C   UNL     1      -7.103  16.454  68.256  1.00  0.00    -0.143 C  
HETATM   10  C   UNL     1      -6.567  17.750  68.902  1.00  0.00    -0.229 C  
HETATM   11  C   UNL     1      -6.130  15.232  68.435  1.00  0.00    -0.105 C  
HETATM   12  C   UNL     1      -5.877  14.949  69.927  1.00  0.00    -0.123 C  
HETATM   13  C   UNL     1      -6.646  13.699  70.295  1.00  0.00     0.187 C  
HETATM   14  C   UNL     1      -7.301  13.146  69.022  1.00  0.00     0.050 C  
HETATM   15  C   UNL     1      -7.356  11.622  69.085  1.00  0.00    -0.032 C  
HETATM   16  C   UNL     1      -6.942  10.894  67.833  1.00  0.00    -0.073 C  
HETATM   17  C   UNL     1      -7.788  11.000  70.207  1.00  0.00     1.446 C  
HETATM   18  C   UNL     1      -5.697  11.472  67.145  1.00  0.00    -0.108 C  
HETATM   19  C   UNL     1      -7.380  13.942  66.532  1.00  0.00     1.846 C  
HETATM   20  C   UNL     1      -6.551  13.821  67.833  1.00  0.00    -0.164 C  
HETATM   21  C   UNL     1      -5.328  12.930  67.480  1.00  0.00    -0.057 C  
BRANCH  17  22
HETATM   22  C   UNL     1      -8.256   9.633  70.265  1.00  0.00    -0.217 C  
HETATM   23  C   UNL     1      -9.473   9.109  70.023  1.00  0.00    -0.218 C  
HETATM   24  C   UNL     1      -9.590   7.593  69.968  1.00  0.00    -0.164 C  
HETATM   25  C   UNL     1     -10.660   7.058  70.917  1.00  0.00    -0.217 C  
HETATM   26  C   UNL     1     -12.004   7.732  70.646  1.00  0.00    -0.090 C  
HETATM   27  O   UNL     1     -10.278   7.239  72.276  1.00  0.00    -0.189 OA 
HETATM   28  C   UNL     1     -11.890   9.257  70.723  1.00  0.00    -0.243 C  
HETATM   29  H   UNL     1     -10.944   6.906  72.867  1.00  0.00     0.000 HD 
HETATM   30  O   UNL     1     -13.159   9.809  70.355  1.00  0.00    -0.555 OA 
HETATM   31  C   UNL     1     -10.759   9.798  69.843  1.00  0.00    -0.303 C  
HETATM   32  C   UNL     1     -10.946  10.768  68.932  1.00  0.00    -0.289 C  
HETATM   33  H   UNL     1     -13.088  10.755  70.402  1.00  0.00     0.000 HD 
ENDBRANCH  17  22
ENDBRANCH   2   7
TORSDOF 3
ENDMDL
MODEL      146
REMARK 921   NORMALIZED FREE ENERGY PREDICTED BY IDOCK:   12.22 KCAL/MOL
REMARK 922        TOTAL FREE ENERGY PREDICTED BY IDOCK:   13.08 KCAL/MOL
REMARK 923 INTER-LIGAND FREE ENERGY PREDICTED BY IDOCK:    8.82 KCAL/MOL
REMARK 924 INTRA-LIGAND FREE ENERGY PREDICTED BY IDOCK:    4.26 KCAL/MOL
REMARK 927      BINDING AFFINITY PREDICTED BY RF-SCORE:    0.00 PKD
ROOT
HETATM    1  O   UNL     1     -10.823  15.304  73.815  1.00  0.00     1.597 OA 
HETATM    2  C   UNL     1     -12.102  14.926  73.312  1.00  0.00    -0.280 C  
HETATM    3  H   UNL     1     -10.800  15.068  74.735  1.00  0.00     0.000 HD 
ENDROOT
BRANCH   2   4
HETATM    4  C   UNL     1     -13.157  15.551  74.191  1.00  0.00     0.030 C  
HETATM    5  C   UNL     1     -14.238  16.425  73.607  1.00  0.00     1.563 C  
HETATM    6  C   UNL     1     -13.145  17.040  74.434  1.00  0.00     1.135 C  
ENDBRANCH   2   4
BRANCH   2   7
HETATM    7  C   UNL     1     -12.138  15.297  71.864  1.00  0.00    -0.452 C  
HETATM    8  C   UNL     1     -11.079  15.622  71.099  1.00  0.00    -0.345 C  
HETATM    9  C   UNL     1     -11.148  15.958  69.628  1.00  0.00    -0.320 C  
HETATM   10  C   UNL     1     -10.714  17.431  69.471  1.00  0.00     0.212 C  
HETATM   11  C   UNL     1     -10.337  14.977  68.704  1.00  0.00    -0.236 C  
HETATM   12  C   UNL     1      -8.830  15.064  69.005  1.00  0.00    -0.205 C  
HETATM   13  C   UNL     1      -8.439  13.812  69.760  1.00  0.00     1.475 C  
HETATM   14  C   UNL     1      -9.670  12.901  69.850  1.00  0.00     2.447 C  
HETATM   15  C   UNL     1      -9.240  11.438  69.811  1.00  0.00     1.271 C  
HETATM   16  C   UNL     1     -10.041  10.538  68.908  1.00  0.00    -0.215 C  
HETATM   17  C   UNL     1      -8.214  11.007  70.583  1.00  0.00     3.223 C  
HETATM   18  C   UNL     1     -10.385  11.152  67.543  1.00  0.00    -0.228 C  
HETATM   19  C   UNL     1     -12.152  13.125  69.055  1.00  0.00    -0.240 C  
HETATM   20  C   UNL     1     -10.661  13.421  68.764  1.00  0.00    -0.230 C  
HETATM   21  C   UNL     1     -10.332  12.688  67.435  1.00  0.00    -0.224 C  
BRANCH  17  22
HETATM   22  C   UNL     1      -7.971   9.626  70.935  1.00  0.00     0.147 C  
HETATM   23  C   UNL     1      -8.191   8.490  70.245  1.00  0.00    -0.115 C  
HETATM   24  C   UNL     1      -7.627   7.197  70.817  1.00  0.00    -0.089 C  
HETATM   25  C   UNL     1      -8.696   6.118  70.973  1.00  0.00    -0.132 C  
HETATM   26  C   UNL     1      -9.414   5.876  69.646  1.00  0.00    -0.172 C  
HETATM   27  O   UNL     1      -9.631   6.464  71.989  1.00  0.00    -0.153 OA 
HETATM   28  C   UNL     1      -9.999   7.173  69.082  1.00  0.00    -0.168 C  
HETATM   29  H   UNL     1     -10.296   5.792  72.087  1.00  0.00     0.000 HD 
HETATM   30  O   UNL     1     -10.557   6.879  67.798  1.00  0.00    -0.199 OA 
HETATM   31  C   UNL     1      -8.956   8.292  69.005  1.00  0.00    -0.147 C  
HETATM   32  C   UNL     1      -8.711   8.984  67.879  1.00  0.00    -0.129 C  
HETATM   33  H   UNL     1     -10.921   7.684  67.448  1.00  0.00     0.000 HD 
ENDBRANCH  17  22
ENDBRANCH   2   7
TORSDOF 3
ENDMDL
MODEL      147
REMARK 921   NORMALIZED FREE ENERGY PREDICTED BY IDOCK:   13.99 KCAL/MOL
REMARK 922        TOTAL FREE ENERGY PREDICTED BY IDOCK:   15.17 KCAL/MOL
REMARK 923 INTER-LIGAND FREE ENERGY PREDICTED BY IDOCK:   16.03 KCAL/MOL
REMARK 924 INTRA-LIGAND FREE ENERGY PREDICTED BY IDOCK:   -0.86 KCAL/MOL
REMARK 927      BINDING AFFINITY PREDICTED BY RF-SCORE:    0.00 PKD
ROOT
HETATM    1  O   UNL     1      -9.390  10.734  63.715  1.00  0.00    -0.224 OA 
HETATM    2  C   UNL     1     -10.235  11.596  64.472  1.00  0.00    -0.291 C  
HETATM    3  H   UNL     1      -9.898  10.414  62.979  1.00  0.00     0.000 HD 
ENDROOT
BRANCH   2   4
HETATM    4  C   UNL     1     -11.498  10.841  64.806  1.00  0.00     0.942 C  
HETATM    5  C   UNL     1     -12.513  10.516  63.739  1.00  0.00     4.528 C  
HETATM    6  C   UNL     1     -12.828  11.555  64.778  1.00  0.00     1.559 C  
ENDBRANCH   2   4
BRANCH   2   7
HETATM    7  C   UNL     1      -9.434  12.098  65.631  1.00  0.00    -0.117 C  
HETATM    8  C   UNL     1      -9.618  11.776  66.925  1.00  0.00    -0.204 C  
HETATM    9  C   UNL     1      -8.767  12.276  68.067  1.00  0.00    -0.181 C  
HETATM   10  C   UNL     1      -9.671  13.140  68.973  1.00  0.00     0.310 C  
HETATM   11  C   UNL     1      -8.014  11.142  68.855  1.00  0.00    -0.126 C  
HETATM   12  C   UNL     1      -9.015  10.206  69.557  1.00  0.00    -0.205 C  
HETATM   13  C   UNL     1      -9.046   8.904  68.787  1.00  0.00    -0.134 C  
HETATM   14  C   UNL     1      -8.003   8.985  67.665  1.00  0.00    -0.101 C  
HETATM   15  C   UNL     1      -7.400   7.605  67.415  1.00  0.00    -0.092 C  
HETATM   16  C   UNL     1      -5.903   7.556  67.267  1.00  0.00    -0.035 C  
HETATM   17  C   UNL     1      -8.202   6.520  67.305  1.00  0.00    -0.113 C  
HETATM   18  C   UNL     1      -5.136   8.427  68.273  1.00  0.00    -0.033 C  
HETATM   19  C   UNL     1      -6.348  10.843  66.859  1.00  0.00    -0.088 C  
HETATM   20  C   UNL     1      -7.053  10.158  68.055  1.00  0.00    -0.084 C  
HETATM   21  C   UNL     1      -5.919   9.574  68.941  1.00  0.00    -0.042 C  
BRANCH  17  22
HETATM   22  C   UNL     1      -7.817   5.268  66.692  1.00  0.00    -0.100 C  
HETATM   23  C   UNL     1      -8.558   4.318  66.090  1.00  0.00    -0.113 C  
HETATM   24  C   UNL     1      -7.821   3.208  65.356  1.00  0.00    -0.082 C  
HETATM   25  C   UNL     1      -8.248   1.819  65.826  1.00  0.00    -0.084 C  
HETATM   26  C   UNL     1      -9.763   1.654  65.711  1.00  0.00     0.506 C  
HETATM   27  O   UNL     1      -7.820   1.574  67.161  1.00  0.00    -0.059 OA 
HETATM   28  C   UNL     1     -10.504   2.760  66.468  1.00  0.00     2.750 C  
HETATM   29  H   UNL     1      -8.086   0.710  67.453  1.00  0.00     0.000 HD 
HETATM   30  O   UNL     1     -11.904   2.594  66.223  1.00  0.00     8.038 OA 
HETATM   31  C   UNL     1     -10.020   4.158  66.070  1.00  0.00    -0.193 C  
HETATM   32  C   UNL     1     -10.855   5.131  65.666  1.00  0.00     0.100 C  
HETATM   33  H   UNL     1     -12.364   3.281  66.693  1.00  0.00     0.000 HD 
ENDBRANCH  17  22
ENDBRANCH   2   7
TORSDOF 3
ENDMDL
MODEL      148
REMARK 921   NORMALIZED FREE ENERGY PREDICTED BY IDOCK:   15.52 KCAL/MOL
REMARK 922        TOTAL FREE ENERGY PREDICTED BY IDOCK:   16.97 KCAL/MOL
REMARK 923 INTER-LIGAND FREE ENERGY PREDICTED BY IDOCK:   17.94 KCAL/MOL
REMARK 924 INTRA-LIGAND FREE ENERGY PREDICTED BY IDOCK:   -0.98 KCAL/MOL
REMARK 927      BINDING AFFINITY PREDICTED BY RF-SCORE:    0.00 PKD
ROOT
HETATM    1  O   UNL     1     -10.083  14.128  64.794  1.00  0.00    -0.554 OA 
HETATM    2  C   UNL     1     -11.485  13.974  64.594  1.00  0.00    -0.383 C  
HETATM    3  H   UNL     1      -9.785  14.808  64.201  1.00  0.00     0.000 HD 
ENDROOT
BRANCH   2   4
HETATM    4  C   UNL     1     -11.727  13.735  63.124  1.00  0.00     0.612 C  
HETATM    5  C   UNL     1     -12.779  14.512  62.373  1.00  0.00     4.144 C  
HETATM    6  C   UNL     1     -12.997  13.056  62.673  1.00  0.00     1.780 C  
ENDBRANCH   2   4
BRANCH   2   7
HETATM    7  C   UNL     1     -11.953  12.904  65.528  1.00  0.00    -0.482 C  
HETATM    8  C   UNL     1     -11.194  12.231  66.412  1.00  0.00    -0.370 C  
HETATM    9  C   UNL     1     -11.708  11.179  67.366  1.00  0.00    -0.030 C  
HETATM   10  C   UNL     1     -11.046   9.840  66.976  1.00  0.00     0.103 C  
HETATM   11  C   UNL     1     -11.518  11.538  68.886  1.00  0.00    -0.352 C  
HETATM   12  C   UNL     1     -10.023  11.625  69.244  1.00  0.00     0.222 C  
HETATM   13  C   UNL     1      -9.675  13.089  69.412  1.00  0.00     0.946 C  
HETATM   14  C   UNL     1     -10.961  13.910  69.254  1.00  0.00    -0.222 C  
HETATM   15  C   UNL     1     -10.907  15.140  70.155  1.00  0.00    -0.265 C  
HETATM   16  C   UNL     1     -12.155  15.437  70.943  1.00  0.00    -0.413 C  
HETATM   17  C   UNL     1      -9.796  15.913  70.190  1.00  0.00     0.192 C  
HETATM   18  C   UNL     1     -12.819  14.202  71.569  1.00  0.00    -0.430 C  
HETATM   19  C   UNL     1     -13.448  13.298  68.724  1.00  0.00     4.570 C  
HETATM   20  C   UNL     1     -12.134  12.898  69.436  1.00  0.00    -0.254 C  
HETATM   21  C   UNL     1     -12.471  12.834  70.951  1.00  0.00    -0.373 C  
BRANCH  17  22
HETATM   22  C   UNL     1      -9.753  17.276  70.669  1.00  0.00     3.035 C  
HETATM   23  C   UNL     1      -9.839  18.445  70.006  1.00  0.00     1.090 C  
HETATM   24  C   UNL     1      -9.970  19.717  70.832  1.00  0.00     1.741 C  
HETATM   25  C   UNL     1      -8.905  20.751  70.476  1.00  0.00     2.598 C  
HETATM   26  C   UNL     1      -8.927  21.053  68.979  1.00  0.00     1.981 C  
HETATM   27  O   UNL     1      -7.611  20.315  70.877  1.00  0.00     0.498 OA 
HETATM   28  C   UNL     1      -8.774  19.776  68.149  1.00  0.00    -0.284 C  
HETATM   29  H   UNL     1      -6.949  20.959  70.656  1.00  0.00     0.000 HD 
HETATM   30  O   UNL     1      -8.910  20.132  66.769  1.00  0.00    -0.338 OA 
HETATM   31  C   UNL     1      -9.780  18.696  68.558  1.00  0.00    -0.409 C  
HETATM   32  C   UNL     1     -10.590  18.083  67.678  1.00  0.00    -0.413 C  
HETATM   33  H   UNL     1      -8.815  19.339  66.254  1.00  0.00     0.000 HD 
ENDBRANCH  17  22
ENDBRANCH   2   7
TORSDOF 3
ENDMDL
MODEL      149
REMARK 921   NORMALIZED FREE ENERGY PREDICTED BY IDOCK:   16.50 KCAL/MOL
REMARK 922        TOTAL FREE ENERGY PREDICTED BY IDOCK:   18.11 KCAL/MOL
REMARK 923 INTER-LIGAND FREE ENERGY PREDICTED BY IDOCK:   17.89 KCAL/MOL
REMARK 924 INTRA-LIGAND FREE ENERGY PREDICTED BY IDOCK:    0.22 KCAL/MOL
REMARK 927      BINDING AFFINITY PREDICTED BY RF-SCORE:    0.00 PKD
ROOT
HETATM    1  O   UNL     1     -11.344  17.680  70.822  1.00  0.00     0.893 OA 
HETATM    2  C   UNL     1     -11.022  16.305  70.631  1.00  0.00    -0.160 C  
HETATM    3  H   UNL     1     -12.287  17.762  70.749  1.00  0.00     0.000 HD 
ENDROOT
BRANCH   2   4
HETATM    4  C   UNL     1     -11.637  15.855  69.328  1.00  0.00    -0.372 C  
HETATM    5  C   UNL     1     -11.174  14.592  68.646  1.00  0.00    -0.281 C  
HETATM    6  C   UNL     1     -10.833  15.930  68.053  1.00  0.00    -0.317 C  
ENDBRANCH   2   4
BRANCH   2   7
HETATM    7  C   UNL     1      -9.536  16.175  70.745  1.00  0.00     2.057 C  
HETATM    8  C   UNL     1      -8.857  15.059  71.065  1.00  0.00     2.752 C  
HETATM    9  C   UNL     1      -7.352  14.955  71.138  1.00  0.00     1.744 C  
HETATM   10  C   UNL     1      -6.980  14.655  72.606  1.00  0.00     3.035 C  
HETATM   11  C   UNL     1      -6.727  13.927  70.124  1.00  0.00     0.135 C  
HETATM   12  C   UNL     1      -7.185  12.494  70.447  1.00  0.00     2.223 C  
HETATM   13  C   UNL     1      -8.199  12.088  69.398  1.00  0.00     0.792 C  
HETATM   14  C   UNL     1      -8.306  13.221  68.370  1.00  0.00    -0.131 C  
HETATM   15  C   UNL     1      -8.588  12.643  66.986  1.00  0.00    -0.181 C  
HETATM   16  C   UNL     1      -7.776  13.215  65.854  1.00  0.00     2.962 C  
HETATM   17  C   UNL     1      -9.542  11.697  66.822  1.00  0.00    -0.207 C  
HETATM   18  C   UNL     1      -6.290  13.425  66.181  1.00  0.00     4.628 C  
HETATM   19  C   UNL     1      -7.192  15.577  68.146  1.00  0.00    -0.123 C  
HETATM   20  C   UNL     1      -7.033  14.097  68.572  1.00  0.00    -0.104 C  
HETATM   21  C   UNL     1      -5.910  13.513  67.672  1.00  0.00    -0.075 C  
BRANCH  17  22
HETATM   22  C   UNL     1     -10.168  11.366  65.562  1.00  0.00    -0.312 C  
HETATM   23  C   UNL     1     -10.609  12.157  64.564  1.00  0.00    -0.350 C  
HETATM   24  C   UNL     1     -11.034  11.485  63.267  1.00  0.00    -0.308 C  
HETATM   25  C   UNL     1     -12.449  11.878  62.846  1.00  0.00     0.280 C  
HETATM   26  C   UNL     1     -12.581  13.398  62.757  1.00  0.00     1.030 C  
HETATM   27  O   UNL     1     -13.418  11.346  63.743  1.00  0.00    -0.050 OA 
HETATM   28  C   UNL     1     -12.172  14.072  64.070  1.00  0.00    -0.355 C  
HETATM   29  H   UNL     1     -14.298  11.590  63.481  1.00  0.00     0.000 HD 
HETATM   30  O   UNL     1     -12.223  15.488  63.868  1.00  0.00    -0.969 OA 
HETATM   31  C   UNL     1     -10.791  13.616  64.550  1.00  0.00    -0.416 C  
HETATM   32  C   UNL     1      -9.807  14.477  64.860  1.00  0.00     0.069 C  
HETATM   33  H   UNL     1     -11.970  15.906  64.683  1.00  0.00     0.000 HD 
ENDBRANCH  17  22
ENDBRANCH   2   7
TORSDOF 3
ENDMDL
MODEL      150
REMARK 921   NORMALIZED FREE ENERGY PREDICTED BY IDOCK:   19.68 KCAL/MOL
REMARK 922        TOTAL FREE ENERGY PREDICTED BY IDOCK:   21.85 KCAL/MOL
REMARK 923 INTER-LIGAND FREE ENERGY PREDICTED BY IDOCK:   17.00 KCAL/MOL
REMARK 924 INTRA-LIGAND FREE ENERGY PREDICTED BY IDOCK:    4.85 KCAL/MOL
REMARK 927      BINDING AFFINITY PREDICTED BY RF-SCORE:    0.00 PKD
ROOT
HETATM    1  O   UNL     1      -5.533   5.399  68.171  1.00  0.00    -0.010 OA 
HETATM    2  C   UNL     1      -6.279   5.664  69.356  1.00  0.00    -0.032 C  
HETATM    3  H   UNL     1      -4.708   5.864  68.246  1.00  0.00     0.000 HD 
ENDROOT
BRANCH   2   4
HETATM    4  C   UNL     1      -6.365   7.160  69.533  1.00  0.00    -0.035 C  
HETATM    5  C   UNL     1      -5.145   8.032  69.381  1.00  0.00    -0.022 C  
HETATM    6  C   UNL     1      -5.739   7.810  70.743  1.00  0.00    -0.030 C  
ENDBRANCH   2   4
BRANCH   2   7
HETATM    7  C   UNL     1      -7.578   4.932  69.237  1.00  0.00    -0.060 C  
HETATM    8  C   UNL     1      -8.628   5.034  70.072  1.00  0.00    -0.111 C  
HETATM    9  C   UNL     1      -9.939   4.305  69.902  1.00  0.00    -0.179 C  
HETATM   10  C   UNL     1     -10.090   3.341  71.098  1.00  0.00     0.132 C  
HETATM   11  C   UNL     1     -11.183   5.250  69.715  1.00  0.00     0.889 C  
HETATM   12  C   UNL     1     -11.422   6.095  70.979  1.00  0.00    -0.316 C  
HETATM   13  C   UNL     1     -10.982   7.511  70.676  1.00  0.00    -0.263 C  
HETATM   14  C   UNL     1     -10.558   7.577  69.203  1.00  0.00    -0.204 C  
HETATM   15  C   UNL     1     -10.893   8.949  68.626  1.00  0.00    -0.036 C  
HETATM   16  C   UNL     1     -11.543   8.954  67.268  1.00  0.00     2.276 C  
HETATM   17  C   UNL     1     -10.577  10.074  69.311  1.00  0.00    -0.249 C  
HETATM   18  C   UNL     1     -12.632   7.887  67.082  1.00  0.00     9.632 C  
HETATM   19  C   UNL     1     -10.406   5.811  67.280  1.00  0.00    -0.284 C  
HETATM   20  C   UNL     1     -11.170   6.311  68.530  1.00  0.00    -0.305 C  
HETATM   21  C   UNL     1     -12.597   6.680  68.039  1.00  0.00     6.347 C  
BRANCH  17  22
HETATM   22  C   UNL     1     -10.474  11.393  68.729  1.00  0.00    -0.228 C  
HETATM   23  C   UNL     1     -10.360  11.781  67.444  1.00  0.00    -0.228 C  
HETATM   24  C   UNL     1     -10.483  13.267  67.142  1.00  0.00    -0.248 C  
HETATM   25  C   UNL     1      -9.288  13.800  66.356  1.00  0.00    -0.196 C  
HETATM   26  C   UNL     1      -9.078  12.987  65.079  1.00  0.00     1.131 C  
HETATM   27  O   UNL     1      -8.107  13.795  67.149  1.00  0.00    -0.291 OA 
HETATM   28  C   UNL     1      -8.933  11.494  65.386  1.00  0.00     0.018 C  
HETATM   29  H   UNL     1      -7.363  14.127  66.660  1.00  0.00     0.000 HD 
HETATM   30  O   UNL     1      -8.847  10.798  64.137  1.00  0.00    -0.239 OA 
HETATM   31  C   UNL     1     -10.081  10.967  66.251  1.00  0.00    -0.282 C  
HETATM   32  C   UNL     1     -10.818   9.895  65.911  1.00  0.00     0.426 C  
HETATM   33  H   UNL     1      -8.757   9.872  64.328  1.00  0.00     0.000 HD 
ENDBRANCH  17  22
ENDBRANCH   2   7
TORSDOF 3
ENDMDL
MODEL      151
REMARK 921   NORMALIZED FREE ENERGY PREDICTED BY IDOCK:   20.15 KCAL/MOL
REMARK 922        TOTAL FREE ENERGY PREDICTED BY IDOCK:   22.41 KCAL/MOL
REMARK 923 INTER-LIGAND FREE ENERGY PREDICTED BY IDOCK:   23.38 KCAL/MOL
REMARK 924 INTRA-LIGAND FREE ENERGY PREDICTED BY IDOCK:   -0.97 KCAL/MOL
REMARK 927      BINDING AFFINITY PREDICTED BY RF-SCORE:    0.00 PKD
ROOT
HETATM    1  O   UNL     1     -11.058  20.927  66.516  1.00  0.00     1.591 OA 
HETATM    2  C   UNL     1     -10.549  21.107  67.835  1.00  0.00     1.493 C  
HETATM    3  H   UNL     1     -11.966  21.205  66.522  1.00  0.00     0.000 HD 
ENDROOT
BRANCH   2   4
HETATM    4  C   UNL     1     -11.464  20.389  68.795  1.00  0.00     2.343 C  
HETATM    5  C   UNL     1     -12.657  21.086  69.401  1.00  0.00     6.130 C  
HETATM    6  C   UNL     1     -11.464  20.765  70.256  1.00  0.00     4.422 C  
ENDBRANCH   2   4
BRANCH   2   7
HETATM    7  C   UNL     1      -9.119  20.669  67.824  1.00  0.00    -0.201 C  
HETATM    8  C   UNL     1      -8.576  19.707  68.593  1.00  0.00    -0.304 C  
HETATM    9  C   UNL     1      -7.134  19.265  68.531  1.00  0.00    -0.339 C  
HETATM   10  C   UNL     1      -6.485  19.615  69.888  1.00  0.00    -0.331 C  
HETATM   11  C   UNL     1      -6.938  17.757  68.128  1.00  0.00    -0.212 C  
HETATM   12  C   UNL     1      -7.537  16.824  69.196  1.00  0.00    -0.181 C  
HETATM   13  C   UNL     1      -8.818  16.246  68.635  1.00  0.00    -0.226 C  
HETATM   14  C   UNL     1      -8.975  16.737  67.190  1.00  0.00    -0.218 C  
HETATM   15  C   UNL     1      -9.660  15.666  66.347  1.00  0.00    -0.316 C  
HETATM   16  C   UNL     1      -9.051  15.398  64.997  1.00  0.00     1.829 C  
HETATM   17  C   UNL     1     -10.768  15.039  66.809  1.00  0.00    -0.308 C  
HETATM   18  C   UNL     1      -7.517  15.346  64.991  1.00  0.00     9.196 C  
HETATM   19  C   UNL     1      -7.573  18.323  65.653  1.00  0.00     0.074 C  
HETATM   20  C   UNL     1      -7.563  17.241  66.759  1.00  0.00    -0.270 C  
HETATM   21  C   UNL     1      -6.791  16.031  66.166  1.00  0.00     1.614 C  
BRANCH  17  22
HETATM   22  C   UNL     1     -11.715  14.324  65.983  1.00  0.00    -0.384 C  
HETATM   23  C   UNL     1     -11.630  13.117  65.390  1.00  0.00    -0.362 C  
HETATM   24  C   UNL     1     -12.892  12.553  64.755  1.00  0.00    -0.287 C  
HETATM   25  C   UNL     1     -12.682  12.165  63.293  1.00  0.00    -0.285 C  
HETATM   26  C   UNL     1     -11.507  11.197  63.157  1.00  0.00     0.499 C  
HETATM   27  O   UNL     1     -12.476  13.315  62.480  1.00  0.00    -0.417 OA 
HETATM   28  C   UNL     1     -10.233  11.775  63.778  1.00  0.00    -0.399 C  
HETATM   29  H   UNL     1     -12.346  13.073  61.571  1.00  0.00     0.000 HD 
HETATM   30  O   UNL     1      -9.216  10.770  63.703  1.00  0.00    -0.213 OA 
HETATM   31  C   UNL     1     -10.455  12.251  65.216  1.00  0.00    -0.315 C  
HETATM   32  C   UNL     1      -9.684  11.853  66.243  1.00  0.00    -0.247 C  
HETATM   33  H   UNL     1      -8.425  11.129  64.088  1.00  0.00     0.000 HD 
ENDBRANCH  17  22
ENDBRANCH   2   7
TORSDOF 3
ENDMDL
MODEL      152
REMARK 921   NORMALIZED FREE ENERGY PREDICTED BY IDOCK:   24.26 KCAL/MOL
REMARK 922        TOTAL FREE ENERGY PREDICTED BY IDOCK:   27.24 KCAL/MOL
REMARK 923 INTER-LIGAND FREE ENERGY PREDICTED BY IDOCK:   22.04 KCAL/MOL
REMARK 924 INTRA-LIGAND FREE ENERGY PREDICTED BY IDOCK:    5.20 KCAL/MOL
REMARK 927      BINDING AFFINITY PREDICTED BY RF-SCORE:    0.00 PKD
ROOT
HETATM    1  O   UNL     1      -8.925  10.786  64.481  1.00  0.00    -0.192 OA 
HETATM    2  C   UNL     1      -9.804  10.018  65.298  1.00  0.00    -0.318 C  
HETATM    3  H   UNL     1      -8.614  10.216  63.787  1.00  0.00     0.000 HD 
ENDROOT
BRANCH   2   4
HETATM    4  C   UNL     1      -9.076   8.769  65.730  1.00  0.00    -0.267 C  
HETATM    5  C   UNL     1      -9.254   7.469  64.987  1.00  0.00     0.799 C  
HETATM    6  C   UNL     1      -9.843   7.632  66.360  1.00  0.00    -0.174 C  
ENDBRANCH   2   4
BRANCH   2   7
HETATM    7  C   UNL     1     -10.293  10.914  66.391  1.00  0.00    -0.306 C  
HETATM    8  C   UNL     1     -11.535  10.933  66.909  1.00  0.00     0.121 C  
HETATM    9  C   UNL     1     -11.985  11.830  68.038  1.00  0.00    -0.195 C  
HETATM   10  C   UNL     1     -13.060  12.782  67.471  1.00  0.00     3.560 C  
HETATM   11  C   UNL     1     -12.465  11.058  69.322  1.00  0.00     0.009 C  
HETATM   12  C   UNL     1     -13.725  10.227  69.022  1.00  0.00     5.287 C  
HETATM   13  C   UNL     1     -13.312   8.772  68.961  1.00  0.00     7.750 C  
HETATM   14  C   UNL     1     -11.823   8.680  69.315  1.00  0.00     1.275 C  
HETATM   15  C   UNL     1     -11.542   7.374  70.053  1.00  0.00    -0.024 C  
HETATM   16  C   UNL     1     -10.668   7.481  71.274  1.00  0.00    -0.242 C  
HETATM   17  C   UNL     1     -12.041   6.205  69.586  1.00  0.00     1.126 C  
HETATM   18  C   UNL     1     -10.982   8.683  72.176  1.00  0.00    -0.434 C  
HETATM   19  C   UNL     1      -9.986  10.448  69.897  1.00  0.00    -0.096 C  
HETATM   20  C   UNL     1     -11.470  10.028  70.015  1.00  0.00    -0.310 C  
HETATM   21  C   UNL     1     -11.746   9.857  71.534  1.00  0.00    -0.414 C  
BRANCH  17  22
HETATM   22  C   UNL     1     -11.543   4.895  69.940  1.00  0.00     3.885 C  
HETATM   23  C   UNL     1     -10.886   4.471  71.037  1.00  0.00     0.601 C  
HETATM   24  C   UNL     1     -10.681   2.972  71.200  1.00  0.00     1.638 C  
HETATM   25  C   UNL     1      -9.213   2.608  71.415  1.00  0.00    -0.119 C  
HETATM   26  C   UNL     1      -8.634   3.383  72.598  1.00  0.00    -0.090 C  
HETATM   27  O   UNL     1      -8.447   2.847  70.240  1.00  0.00    -0.050 OA 
HETATM   28  C   UNL     1      -8.823   4.892  72.423  1.00  0.00    -0.123 C  
HETATM   29  H   UNL     1      -7.534   2.620  70.374  1.00  0.00     0.000 HD 
HETATM   30  O   UNL     1      -8.352   5.532  73.614  1.00  0.00    -0.112 OA 
HETATM   31  C   UNL     1     -10.277   5.262  72.117  1.00  0.00    -0.252 C  
HETATM   32  C   UNL     1     -10.960   6.179  72.823  1.00  0.00    -0.294 C  
HETATM   33  H   UNL     1      -8.469   6.469  73.505  1.00  0.00     0.000 HD 
ENDBRANCH  17  22
ENDBRANCH   2   7
TORSDOF 3
ENDMDL
MODEL      153
REMARK 921   NORMALIZED FREE ENERGY PREDICTED BY IDOCK:   26.33 KCAL/MOL
REMARK 922        TOTAL FREE ENERGY PREDICTED BY IDOCK:   29.67 KCAL/MOL
REMARK 923 INTER-LIGAND FREE ENERGY PREDICTED BY IDOCK:   29.53 KCAL/MOL
REMARK 924 INTRA-LIGAND FREE ENERGY PREDICTED BY IDOCK:    0.14 KCAL/MOL
REMARK 927      BINDING AFFINITY PREDICTED BY RF-SCORE:    0.00 PKD
ROOT
HETATM    1  O   UNL     1     -12.577  16.275  69.466  1.00  0.00    -0.392 OA 
HETATM    2  C   UNL     1     -11.967  15.346  68.574  1.00  0.00    -0.181 C  
HETATM    3  H   UNL     1     -13.514  16.119  69.440  1.00  0.00     0.000 HD 
ENDROOT
BRANCH   2   4
HETATM    4  C   UNL     1     -12.633  15.481  67.227  1.00  0.00     1.720 C  
HETATM    5  C   UNL     1     -14.055  15.968  67.108  1.00  0.00     9.342 C  
HETATM    6  C   UNL     1     -13.735  14.526  66.835  1.00  0.00     5.502 C  
ENDBRANCH   2   4
BRANCH   2   7
HETATM    7  C   UNL     1     -10.493  15.592  68.614  1.00  0.00    -0.237 C  
HETATM    8  C   UNL     1      -9.637  15.146  69.552  1.00  0.00    -0.158 C  
HETATM    9  C   UNL     1      -8.146  15.384  69.543  1.00  0.00    -0.207 C  
HETATM   10  C   UNL     1      -7.809  16.251  70.776  1.00  0.00     3.385 C  
HETATM   11  C   UNL     1      -7.283  14.072  69.462  1.00  0.00     0.095 C  
HETATM   12  C   UNL     1      -7.485  13.207  70.719  1.00  0.00     3.892 C  
HETATM   13  C   UNL     1      -8.343  12.022  70.330  1.00  0.00     4.728 C  
HETATM   14  C   UNL     1      -8.600  12.091  68.820  1.00  0.00     0.076 C  
HETATM   15  C   UNL     1      -8.689  10.681  68.242  1.00  0.00    -0.135 C  
HETATM   16  C   UNL     1      -7.934  10.444  66.961  1.00  0.00    -0.116 C  
HETATM   17  C   UNL     1      -9.440   9.737  68.857  1.00  0.00    -0.161 C  
HETATM   18  C   UNL     1      -6.535  11.075  66.922  1.00  0.00    -0.108 C  
HETATM   19  C   UNL     1      -7.933  13.786  66.943  1.00  0.00     0.202 C  
HETATM   20  C   UNL     1      -7.525  13.068  68.252  1.00  0.00    -0.128 C  
HETATM   21  C   UNL     1      -6.264  12.231  67.904  1.00  0.00    -0.089 C  
BRANCH  17  22
HETATM   22  C   UNL     1      -9.920   8.527  68.229  1.00  0.00    -0.211 C  
HETATM   23  C   UNL     1      -9.253   7.523  67.629  1.00  0.00    -0.135 C  
HETATM   24  C   UNL     1     -10.043   6.279  67.248  1.00  0.00    -0.203 C  
HETATM   25  C   UNL     1      -9.883   5.919  65.773  1.00  0.00     0.260 C  
HETATM   26  C   UNL     1      -8.405   5.775  65.412  1.00  0.00    -0.142 C  
HETATM   27  O   UNL     1     -10.507   6.887  64.938  1.00  0.00     3.245 OA 
HETATM   28  C   UNL     1      -7.615   7.035  65.776  1.00  0.00    -0.094 C  
HETATM   29  H   UNL     1     -10.408   6.663  64.020  1.00  0.00     0.000 HD 
HETATM   30  O   UNL     1      -6.234   6.778  65.504  1.00  0.00    -0.037 OA 
HETATM   31  C   UNL     1      -7.839   7.458  67.231  1.00  0.00    -0.114 C  
HETATM   32  C   UNL     1      -6.828   7.679  68.089  1.00  0.00    -0.064 C  
HETATM   33  H   UNL     1      -5.743   7.560  65.730  1.00  0.00     0.000 HD 
ENDBRANCH  17  22
ENDBRANCH   2   7
TORSDOF 3
ENDMDL
MODEL      154
REMARK 921   NORMALIZED FREE ENERGY PREDICTED BY IDOCK:   29.39 KCAL/MOL
REMARK 922        TOTAL FREE ENERGY PREDICTED BY IDOCK:   33.26 KCAL/MOL
REMARK 923 INTER-LIGAND FREE ENERGY PREDICTED BY IDOCK:   28.76 KCAL/MOL
REMARK 924 INTRA-LIGAND FREE ENERGY PREDICTED BY IDOCK:    4.50 KCAL/MOL
REMARK 927      BINDING AFFINITY PREDICTED BY RF-SCORE:    0.00 PKD
ROOT
HETATM    1  O   UNL     1      -8.443   2.611  68.308  1.00  0.00    -0.067 OA 
HETATM    2  C   UNL     1      -8.715   3.663  69.230  1.00  0.00    -0.083 C  
HETATM    3  H   UNL     1      -7.865   2.962  67.640  1.00  0.00     0.000 HD 
ENDROOT
BRANCH   2   4
HETATM    4  C   UNL     1      -9.230   4.849  68.452  1.00  0.00    -0.157 C  
HETATM    5  C   UNL     1      -9.264   6.226  69.066  1.00  0.00    -0.127 C  
HETATM    6  C   UNL     1     -10.547   5.481  68.831  1.00  0.00    -0.258 C  
ENDBRANCH   2   4
BRANCH   2   7
HETATM    7  C   UNL     1      -9.624   3.110  70.280  1.00  0.00    -0.180 C  
HETATM    8  C   UNL     1      -9.514   3.299  71.608  1.00  0.00    -0.220 C  
HETATM    9  C   UNL     1     -10.473   2.753  72.639  1.00  0.00    -0.184 C  
HETATM   10  C   UNL     1      -9.689   1.750  73.513  1.00  0.00    -0.105 C  
HETATM   11  C   UNL     1     -11.210   3.857  73.482  1.00  0.00    -0.312 C  
HETATM   12  C   UNL     1     -10.206   4.654  74.335  1.00  0.00    -0.288 C  
HETATM   13  C   UNL     1     -10.042   6.017  73.699  1.00  0.00    -0.218 C  
HETATM   14  C   UNL     1     -11.006   6.111  72.509  1.00  0.00    -0.296 C  
HETATM   15  C   UNL     1     -11.505   7.545  72.355  1.00  0.00    -0.362 C  
HETATM   16  C   UNL     1     -12.982   7.708  72.115  1.00  0.00    -0.133 C  
HETATM   17  C   UNL     1     -10.633   8.580  72.403  1.00  0.00    -0.368 C  
HETATM   18  C   UNL     1     -13.869   6.801  72.980  1.00  0.00     1.892 C  
HETATM   19  C   UNL     1     -12.708   4.450  71.420  1.00  0.00     7.498 C  
HETATM   20  C   UNL     1     -12.050   4.972  72.720  1.00  0.00     0.112 C  
HETATM   21  C   UNL     1     -13.207   5.547  73.583  1.00  0.00     4.874 C  
BRANCH  17  22
HETATM   22  C   UNL     1     -10.897   9.905  71.891  1.00  0.00     0.924 C  
HETATM   23  C   UNL     1     -11.850  10.350  71.049  1.00  0.00    -0.458 C  
HETATM   24  C   UNL     1     -11.986  11.854  70.867  1.00  0.00    -0.070 C  
HETATM   25  C   UNL     1     -11.916  12.270  69.400  1.00  0.00    -0.259 C  
HETATM   26  C   UNL     1     -12.956  11.512  68.576  1.00  0.00     2.715 C  
HETATM   27  O   UNL     1     -10.613  12.063  68.868  1.00  0.00    -0.280 OA 
HETATM   28  C   UNL     1     -12.806   9.998  68.743  1.00  0.00     3.325 C  
HETATM   29  H   UNL     1     -10.569  12.322  67.955  1.00  0.00     0.000 HD 
HETATM   30  O   UNL     1     -13.876   9.371  68.028  1.00  0.00    11.042 OA 
HETATM   31  C   UNL     1     -12.783   9.577  70.215  1.00  0.00     0.380 C  
HETATM   32  C   UNL     1     -13.599   8.634  70.716  1.00  0.00     0.426 C  
HETATM   33  H   UNL     1     -13.782   8.431  68.131  1.00  0.00     0.000 HD 
ENDBRANCH  17  22
ENDBRANCH   2   7
TORSDOF 3
ENDMDL
MODEL      155
REMARK 921   NORMALIZED FREE ENERGY PREDICTED BY IDOCK:   39.22 KCAL/MOL
REMARK 922        TOTAL FREE ENERGY PREDICTED BY IDOCK:   44.81 KCAL/MOL
REMARK 923 INTER-LIGAND FREE ENERGY PREDICTED BY IDOCK:   45.72 KCAL/MOL
REMARK 924 INTRA-LIGAND FREE ENERGY PREDICTED BY IDOCK:   -0.90 KCAL/MOL
REMARK 927      BINDING AFFINITY PREDICTED BY RF-SCORE:    0.00 PKD
ROOT
HETATM    1  O   UNL     1     -10.988  18.126  70.626  1.00  0.00     1.034 OA 
HETATM    2  C   UNL     1     -10.449  16.910  70.116  1.00  0.00     0.266 C  
HETATM    3  H   UNL     1     -10.853  18.795  69.965  1.00  0.00     0.000 HD 
ENDROOT
BRANCH   2   4
HETATM    4  C   UNL     1      -9.021  17.165  69.701  1.00  0.00     0.782 C  
HETATM    5  C   UNL     1      -8.656  17.362  68.251  1.00  0.00    -0.260 C  
HETATM    6  C   UNL     1      -8.253  16.099  68.959  1.00  0.00    -0.244 C  
ENDBRANCH   2   4
BRANCH   2   7
HETATM    7  C   UNL     1     -10.661  15.858  71.158  1.00  0.00     0.238 C  
HETATM    8  C   UNL     1     -11.562  14.860  71.109  1.00  0.00    -0.347 C  
HETATM    9  C   UNL     1     -11.726  13.792  72.164  1.00  0.00     1.438 C  
HETATM   10  C   UNL     1     -13.128  13.967  72.785  1.00  0.00    -0.537 C  
HETATM   11  C   UNL     1     -11.461  12.330  71.650  1.00  0.00     3.254 C  
HETATM   12  C   UNL     1     -12.503  11.926  70.590  1.00  0.00    -0.347 C  
HETATM   13  C   UNL     1     -11.818  11.947  69.241  1.00  0.00    -0.379 C  
HETATM   14  C   UNL     1     -10.334  12.267  69.460  1.00  0.00     0.580 C  
HETATM   15  C   UNL     1      -9.485  11.542  68.419  1.00  0.00    -0.195 C  
HETATM   16  C   UNL     1      -8.251  10.854  68.938  1.00  0.00    -0.141 C  
HETATM   17  C   UNL     1      -9.838  11.569  67.112  1.00  0.00    -0.210 C  
HETATM   18  C   UNL     1      -8.455  10.092  70.255  1.00  0.00     0.054 C  
HETATM   19  C   UNL     1      -8.889  12.809  71.572  1.00  0.00    16.780 C  
HETATM   20  C   UNL     1     -10.061  11.996  70.971  1.00  0.00     7.022 C  
HETATM   21  C   UNL     1      -9.664  10.502  71.118  1.00  0.00     2.903 C  
BRANCH  17  22
HETATM   22  C   UNL     1      -8.947  11.279  66.012  1.00  0.00    -0.209 C  
HETATM   23  C   UNL     1      -9.207  10.921  64.739  1.00  0.00    -0.227 C  
HETATM   24  C   UNL     1      -8.040  10.891  63.762  1.00  0.00     0.264 C  
HETATM   25  C   UNL     1      -7.913   9.545  63.052  1.00  0.00    -0.135 C  
HETATM   26  C   UNL     1      -9.227   9.174  62.365  1.00  0.00     0.113 C  
HETATM   27  O   UNL     1      -7.518   8.521  63.957  1.00  0.00    -0.105 OA 
HETATM   28  C   UNL     1     -10.396   9.184  63.353  1.00  0.00     4.497 C  
HETATM   29  H   UNL     1      -7.439   7.684  63.515  1.00  0.00     0.000 HD 
HETATM   30  O   UNL     1     -11.595   8.931  62.613  1.00  0.00     9.751 OA 
HETATM   31  C   UNL     1     -10.479  10.496  64.138  1.00  0.00    -0.013 C  
HETATM   32  C   UNL     1     -11.602  11.233  64.209  1.00  0.00     0.088 C  
HETATM   33  H   UNL     1     -12.321   8.937  63.227  1.00  0.00     0.000 HD 
ENDBRANCH  17  22
ENDBRANCH   2   7
TORSDOF 3
ENDMDL
MODEL      156
REMARK 921   NORMALIZED FREE ENERGY PREDICTED BY IDOCK:   46.40 KCAL/MOL
REMARK 922        TOTAL FREE ENERGY PREDICTED BY IDOCK:   53.26 KCAL/MOL
REMARK 923 INTER-LIGAND FREE ENERGY PREDICTED BY IDOCK:   46.02 KCAL/MOL
REMARK 924 INTRA-LIGAND FREE ENERGY PREDICTED BY IDOCK:    7.24 KCAL/MOL
REMARK 927      BINDING AFFINITY PREDICTED BY RF-SCORE:    0.00 PKD
ROOT
HETATM    1  O   UNL     1      -6.517  15.374  68.803  1.00  0.00    -0.102 OA 
HETATM    2  C   UNL     1      -5.411  14.562  69.191  1.00  0.00    -0.084 C  
HETATM    3  H   UNL     1      -6.338  16.257  69.103  1.00  0.00     0.000 HD 
ENDROOT
BRANCH   2   4
HETATM    4  C   UNL     1      -5.196  14.737  70.674  1.00  0.00    -0.126 C  
HETATM    5  C   UNL     1      -6.364  14.825  71.624  1.00  0.00     0.644 C  
HETATM    6  C   UNL     1      -5.545  16.050  71.333  1.00  0.00     0.370 C  
ENDBRANCH   2   4
BRANCH   2   7
HETATM    7  C   UNL     1      -5.693  13.171  68.720  1.00  0.00    -0.073 C  
HETATM    8  C   UNL     1      -6.410  12.239  69.373  1.00  0.00    -0.118 C  
HETATM    9  C   UNL     1      -6.705  10.853  68.850  1.00  0.00    -0.067 C  
HETATM   10  C   UNL     1      -6.012   9.847  69.794  1.00  0.00    -0.043 C  
HETATM   11  C   UNL     1      -8.235  10.552  68.648  1.00  0.00    -0.130 C  
HETATM   12  C   UNL     1      -8.980  10.575  69.996  1.00  0.00     0.442 C  
HETATM   13  C   UNL     1      -9.791  11.851  70.051  1.00  0.00     2.237 C  
HETATM   14  C   UNL     1      -9.634  12.579  68.710  1.00  0.00     0.079 C  
HETATM   15  C   UNL     1     -10.923  13.318  68.364  1.00  0.00    -0.289 C  
HETATM   16  C   UNL     1     -11.405  13.176  66.945  1.00  0.00    -0.355 C  
HETATM   17  C   UNL     1     -11.549  14.073  69.298  1.00  0.00    -0.356 C  
HETATM   18  C   UNL     1     -11.300  11.753  66.378  1.00  0.00    -0.361 C  
HETATM   19  C   UNL     1      -8.272  12.090  66.531  1.00  0.00     0.013 C  
HETATM   20  C   UNL     1      -9.090  11.512  67.711  1.00  0.00    -0.165 C  
HETATM   21  C   UNL     1     -10.312  10.797  67.073  1.00  0.00    -0.275 C  
BRANCH  17  22
HETATM   22  C   UNL     1     -12.516  15.108  69.009  1.00  0.00     0.076 C  
HETATM   23  C   UNL     1     -13.159  15.418  67.866  1.00  0.00     3.060 C  
HETATM   24  C   UNL     1     -14.281  16.443  67.943  1.00  0.00     9.680 C  
HETATM   25  C   UNL     1     -14.083  17.594  66.959  1.00  0.00    12.227 C  
HETATM   26  C   UNL     1     -13.909  17.062  65.537  1.00  0.00    11.273 C  
HETATM   27  O   UNL     1     -12.971  18.401  67.329  1.00  0.00     5.483 OA 
HETATM   28  C   UNL     1     -12.767  16.047  65.457  1.00  0.00     2.495 C  
HETATM   29  H   UNL     1     -12.848  19.117  66.717  1.00  0.00     0.000 HD 
HETATM   30  O   UNL     1     -12.740  15.524  64.124  1.00  0.00    -0.522 OA 
HETATM   31  C   UNL     1     -12.906  14.935  66.501  1.00  0.00     1.147 C  
HETATM   32  C   UNL     1     -12.873  13.629  66.183  1.00  0.00    -0.143 C  
HETATM   33  H   UNL     1     -12.031  14.893  64.074  1.00  0.00     0.000 HD 
ENDBRANCH  17  22
ENDBRANCH   2   7
TORSDOF 3
ENDMDL
MODEL      157
REMARK 921   NORMALIZED FREE ENERGY PREDICTED BY IDOCK:   47.10 KCAL/MOL
REMARK 922        TOTAL FREE ENERGY PREDICTED BY IDOCK:   54.08 KCAL/MOL
REMARK 923 INTER-LIGAND FREE ENERGY PREDICTED BY IDOCK:   55.31 KCAL/MOL
REMARK 924 INTRA-LIGAND FREE ENERGY PREDICTED BY IDOCK:   -1.23 KCAL/MOL
REMARK 927      BINDING AFFINITY PREDICTED BY RF-SCORE:    0.00 PKD
ROOT
HETATM    1  O   UNL     1      -7.340   5.781  71.044  1.00  0.00    -0.080 OA 
HETATM    2  C   UNL     1      -7.939   6.923  70.436  1.00  0.00    -0.114 C  
HETATM    3  H   UNL     1      -7.282   5.104  70.380  1.00  0.00     0.000 HD 
ENDROOT
BRANCH   2   4
HETATM    4  C   UNL     1      -9.238   6.491  69.803  1.00  0.00    -0.145 C  
HETATM    5  C   UNL     1      -9.364   6.343  68.308  1.00  0.00    -0.109 C  
HETATM    6  C   UNL     1     -10.051   7.482  69.007  1.00  0.00    -0.192 C  
ENDBRANCH   2   4
BRANCH   2   7
HETATM    7  C   UNL     1      -8.029   7.988  71.481  1.00  0.00    -0.117 C  
HETATM    8  C   UNL     1      -7.585   9.253  71.369  1.00  0.00     0.091 C  
HETATM    9  C   UNL     1      -7.725  10.314  72.434  1.00  0.00     5.154 C  
HETATM   10  C   UNL     1      -6.301  10.693  72.898  1.00  0.00     2.740 C  
HETATM   11  C   UNL     1      -8.579  11.560  71.996  1.00  0.00    15.666 C  
HETATM   12  C   UNL     1      -7.891  12.317  70.846  1.00  0.00     6.704 C  
HETATM   13  C   UNL     1      -8.659  12.023  69.576  1.00  0.00     1.282 C  
HETATM   14  C   UNL     1      -9.877  11.164  69.940  1.00  0.00     0.817 C  
HETATM   15  C   UNL     1     -11.046  11.499  69.018  1.00  0.00    -0.302 C  
HETATM   16  C   UNL     1     -12.385  11.673  69.685  1.00  0.00    -0.172 C  
HETATM   17  C   UNL     1     -10.855  11.594  67.681  1.00  0.00    -0.273 C  
HETATM   18  C   UNL     1     -12.342  12.470  70.996  1.00  0.00    -0.307 C  
HETATM   19  C   UNL     1     -10.768  10.138  72.175  1.00  0.00     2.860 C  
HETATM   20  C   UNL     1     -10.066  11.328  71.479  1.00  0.00     7.534 C  
HETATM   21  C   UNL     1     -10.982  12.560  71.714  1.00  0.00     6.532 C  
BRANCH  17  22
HETATM   22  C   UNL     1     -11.904  11.510  66.690  1.00  0.00     0.239 C  
HETATM   23  C   UNL     1     -11.876  11.083  65.413  1.00  0.00     1.195 C  
HETATM   24  C   UNL     1     -13.207  10.925  64.692  1.00  0.00     5.378 C  
HETATM   25  C   UNL     1     -13.249  11.694  63.374  1.00  0.00     0.495 C  
HETATM   26  C   UNL     1     -12.078  11.290  62.479  1.00  0.00     1.663 C  
HETATM   27  O   UNL     1     -13.242  13.099  63.599  1.00  0.00     0.019 OA 
HETATM   28  C   UNL     1     -10.738  11.470  63.197  1.00  0.00    -0.207 C  
HETATM   29  H   UNL     1     -13.268  13.578  62.778  1.00  0.00     0.000 HD 
HETATM   30  O   UNL     1      -9.709  10.973  62.334  1.00  0.00    -0.566 OA 
HETATM   31  C   UNL     1     -10.716  10.777  64.563  1.00  0.00    -0.147 C  
HETATM   32  C   UNL     1      -9.756   9.908  64.924  1.00  0.00    -0.332 C  
HETATM   33  H   UNL     1      -8.878  11.085  62.780  1.00  0.00     0.000 HD 
ENDBRANCH  17  22
ENDBRANCH   2   7
TORSDOF 3
ENDMDL
MODEL      158
REMARK 921   NORMALIZED FREE ENERGY PREDICTED BY IDOCK:   48.16 KCAL/MOL
REMARK 922        TOTAL FREE ENERGY PREDICTED BY IDOCK:   55.32 KCAL/MOL
REMARK 923 INTER-LIGAND FREE ENERGY PREDICTED BY IDOCK:   48.34 KCAL/MOL
REMARK 924 INTRA-LIGAND FREE ENERGY PREDICTED BY IDOCK:    6.99 KCAL/MOL
REMARK 927      BINDING AFFINITY PREDICTED BY RF-SCORE:    0.00 PKD
ROOT
HETATM    1  O   UNL     1      -6.899   7.660  69.092  1.00  0.00    -0.050 OA 
HETATM    2  C   UNL     1      -7.269   9.015  68.852  1.00  0.00    -0.073 C  
HETATM    3  H   UNL     1      -6.037   7.530  68.714  1.00  0.00     0.000 HD 
ENDROOT
BRANCH   2   4
HETATM    4  C   UNL     1      -7.136   9.284  67.374  1.00  0.00    -0.079 C  
HETATM    5  C   UNL     1      -7.821  10.465  66.734  1.00  0.00    -0.117 C  
HETATM    6  C   UNL     1      -8.321   9.075  66.463  1.00  0.00    -0.115 C  
ENDBRANCH   2   4
BRANCH   2   7
HETATM    7  C   UNL     1      -8.626   9.218  69.446  1.00  0.00    -0.142 C  
HETATM    8  C   UNL     1      -8.899   9.804  70.626  1.00  0.00     0.087 C  
HETATM    9  C   UNL     1     -10.286  10.024  71.180  1.00  0.00     0.363 C  
HETATM   10  C   UNL     1     -10.408   9.182  72.468  1.00  0.00     0.662 C  
HETATM   11  C   UNL     1     -10.662  11.536  71.398  1.00  0.00     4.878 C  
HETATM   12  C   UNL     1      -9.760  12.174  72.470  1.00  0.00    21.048 C  
HETATM   13  C   UNL     1      -8.776  13.080  71.763  1.00  0.00    16.832 C  
HETATM   14  C   UNL     1      -9.117  13.086  70.267  1.00  0.00     4.704 C  
HETATM   15  C   UNL     1      -8.806  14.454  69.667  1.00  0.00     0.582 C  
HETATM   16  C   UNL     1      -9.857  15.031  68.756  1.00  0.00    -0.233 C  
HETATM   17  C   UNL     1      -7.628  15.066  69.937  1.00  0.00     0.027 C  
HETATM   18  C   UNL     1     -11.297  14.853  69.257  1.00  0.00    -0.315 C  
HETATM   19  C   UNL     1     -10.912  11.860  68.813  1.00  0.00    -0.280 C  
HETATM   20  C   UNL     1     -10.572  12.535  70.163  1.00  0.00     1.665 C  
HETATM   21  C   UNL     1     -11.543  13.740  70.294  1.00  0.00    -0.187 C  
BRANCH  17  22
HETATM   22  C   UNL     1      -7.054  16.133  69.149  1.00  0.00    -0.209 C  
HETATM   23  C   UNL     1      -7.582  16.879  68.159  1.00  0.00    -0.188 C  
HETATM   24  C   UNL     1      -6.777  18.074  67.669  1.00  0.00    -0.192 C  
HETATM   25  C   UNL     1      -6.554  18.042  66.159  1.00  0.00    -0.258 C  
HETATM   26  C   UNL     1      -7.886  17.926  65.420  1.00  0.00     1.005 C  
HETATM   27  O   UNL     1      -5.685  16.977  65.790  1.00  0.00    -0.024 OA 
HETATM   28  C   UNL     1      -8.686  16.711  65.899  1.00  0.00    -0.066 C  
HETATM   29  H   UNL     1      -5.546  16.958  64.850  1.00  0.00     0.000 HD 
HETATM   30  O   UNL     1      -9.956  16.736  65.238  1.00  0.00    -0.546 OA 
HETATM   31  C   UNL     1      -8.840  16.684  67.423  1.00  0.00    -0.198 C  
HETATM   32  C   UNL     1     -10.032  16.565  68.033  1.00  0.00    -0.245 C  
HETATM   33  H   UNL     1     -10.452  15.982  65.535  1.00  0.00     0.000 HD 
ENDBRANCH  17  22
ENDBRANCH   2   7
TORSDOF 3
ENDMDL
MODEL      159
REMARK 921   NORMALIZED FREE ENERGY PREDICTED BY IDOCK:   51.41 KCAL/MOL
REMARK 922        TOTAL FREE ENERGY PREDICTED BY IDOCK:   59.15 KCAL/MOL
REMARK 923 INTER-LIGAND FREE ENERGY PREDICTED BY IDOCK:   59.25 KCAL/MOL
REMARK 924 INTRA-LIGAND FREE ENERGY PREDICTED BY IDOCK:   -0.09 KCAL/MOL
REMARK 927      BINDING AFFINITY PREDICTED BY RF-SCORE:    0.00 PKD
ROOT
HETATM    1  O   UNL     1     -11.508  20.498  67.453  1.00  0.00     1.220 OA 
HETATM    2  C   UNL     1     -11.625  20.510  68.873  1.00  0.00     3.027 C  
HETATM    3  H   UNL     1     -12.358  20.728  67.097  1.00  0.00     0.000 HD 
ENDROOT
BRANCH   2   4
HETATM    4  C   UNL     1     -12.777  19.616  69.258  1.00  0.00    11.828 C  
HETATM    5  C   UNL     1     -13.761  19.128  68.224  1.00  0.00    10.801 C  
HETATM    6  C   UNL     1     -14.187  20.156  69.233  1.00  0.00    13.252 C  
ENDBRANCH   2   4
BRANCH   2   7
HETATM    7  C   UNL     1     -10.286  20.148  69.433  1.00  0.00     0.029 C  
HETATM    8  C   UNL     1     -10.045  19.234  70.390  1.00  0.00     1.172 C  
HETATM    9  C   UNL     1      -8.674  18.868  70.908  1.00  0.00     4.331 C  
HETATM   10  C   UNL     1      -8.617  19.282  72.394  1.00  0.00     6.357 C  
HETATM   11  C   UNL     1      -8.276  17.365  70.674  1.00  0.00     4.779 C  
HETATM   12  C   UNL     1      -9.203  16.424  71.465  1.00  0.00     6.421 C  
HETATM   13  C   UNL     1     -10.142  15.767  70.477  1.00  0.00     0.338 C  
HETATM   14  C   UNL     1      -9.747  16.217  69.065  1.00  0.00    -0.252 C  
HETATM   15  C   UNL     1     -10.008  15.093  68.067  1.00  0.00    -0.221 C  
HETATM   16  C   UNL     1      -8.912  14.829  67.068  1.00  0.00    -0.258 C  
HETATM   17  C   UNL     1     -11.182  14.418  68.090  1.00  0.00    -0.300 C  
HETATM   18  C   UNL     1      -7.495  14.858  67.658  1.00  0.00    -0.205 C  
HETATM   19  C   UNL     1      -7.925  17.842  68.124  1.00  0.00    -0.265 C  
HETATM   20  C   UNL     1      -8.300  16.786  69.192  1.00  0.00    -0.086 C  
HETATM   21  C   UNL     1      -7.310  15.607  68.992  1.00  0.00    -0.169 C  
BRANCH  17  22
HETATM   22  C   UNL     1     -11.705  13.635  66.993  1.00  0.00    -0.419 C  
HETATM   23  C   UNL     1     -11.185  12.577  66.341  1.00  0.00    -0.353 C  
HETATM   24  C   UNL     1     -12.086  11.842  65.360  1.00  0.00     0.247 C  
HETATM   25  C   UNL     1     -11.459  11.725  63.972  1.00  0.00    -0.359 C  
HETATM   26  C   UNL     1     -10.079  11.075  64.059  1.00  0.00    -0.408 C  
HETATM   27  O   UNL     1     -11.371  12.997  63.339  1.00  0.00    -0.615 OA 
HETATM   28  C   UNL     1      -9.166  11.828  65.031  1.00  0.00     0.118 C  
HETATM   29  H   UNL     1     -10.981  12.924  62.476  1.00  0.00     0.000 HD 
HETATM   30  O   UNL     1      -7.939  11.098  65.132  1.00  0.00    -0.355 OA 
HETATM   31  C   UNL     1      -9.822  12.031  66.400  1.00  0.00    -0.238 C  
HETATM   32  C   UNL     1      -9.229  11.671  67.552  1.00  0.00    -0.172 C  
HETATM   33  H   UNL     1      -7.373  11.565  65.735  1.00  0.00     0.000 HD 
ENDBRANCH  17  22
ENDBRANCH   2   7
TORSDOF 3
ENDMDL
MODEL      160
REMARK 921   NORMALIZED FREE ENERGY PREDICTED BY IDOCK:   73.82 KCAL/MOL
REMARK 922        TOTAL FREE ENERGY PREDICTED BY IDOCK:   85.48 KCAL/MOL
REMARK 923 INTER-LIGAND FREE ENERGY PREDICTED BY IDOCK:   86.51 KCAL/MOL
REMARK 924 INTRA-LIGAND FREE ENERGY PREDICTED BY IDOCK:   -1.03 KCAL/MOL
REMARK 927      BINDING AFFINITY PREDICTED BY RF-SCORE:    0.00 PKD
ROOT
HETATM    1  O   UNL     1      -9.791  13.613  64.485  1.00  0.00    -0.622 OA 
HETATM    2  C   UNL     1     -11.192  13.801  64.299  1.00  0.00    -0.305 C  
HETATM    3  H   UNL     1      -9.363  14.430  64.257  1.00  0.00     0.000 HD 
ENDROOT
BRANCH   2   4
HETATM    4  C   UNL     1     -11.416  14.308  62.896  1.00  0.00     2.883 C  
HETATM    5  C   UNL     1     -10.944  15.678  62.479  1.00  0.00     9.560 C  
HETATM    6  C   UNL     1     -12.413  15.413  62.647  1.00  0.00     4.847 C  
ENDBRANCH   2   4
BRANCH   2   7
HETATM    7  C   UNL     1     -11.865  12.515  64.658  1.00  0.00    -0.439 C  
HETATM    8  C   UNL     1     -11.305  11.478  65.307  1.00  0.00    -0.150 C  
HETATM    9  C   UNL     1     -12.026  10.205  65.684  1.00  0.00     4.618 C  
HETATM   10  C   UNL     1     -11.366   9.051  64.900  1.00  0.00     8.077 C  
HETATM   11  C   UNL     1     -12.092   9.936  67.232  1.00  0.00     3.868 C  
HETATM   12  C   UNL     1     -10.682   9.715  67.809  1.00  0.00    -0.316 C  
HETATM   13  C   UNL     1     -10.304  10.957  68.588  1.00  0.00    -0.206 C  
HETATM   14  C   UNL     1     -11.504  11.912  68.581  1.00  0.00    -0.350 C  
HETATM   15  C   UNL     1     -11.555  12.694  69.890  1.00  0.00    -0.248 C  
HETATM   16  C   UNL     1     -12.908  12.804  70.541  1.00  0.00     0.057 C  
HETATM   17  C   UNL     1     -10.434  13.268  70.387  1.00  0.00     2.421 C  
HETATM   18  C   UNL     1     -13.727  11.505  70.526  1.00  0.00     1.987 C  
HETATM   19  C   UNL     1     -13.883  11.826  67.497  1.00  0.00    12.095 C  
HETATM   20  C   UNL     1     -12.734  11.043  68.177  1.00  0.00     2.567 C  
HETATM   21  C   UNL     1     -13.337  10.446  69.478  1.00  0.00     1.623 C  
BRANCH  17  22
HETATM   22  C   UNL     1     -10.416  14.332  71.365  1.00  0.00     2.742 C  
HETATM   23  C   UNL     1     -10.635  15.655  71.230  1.00  0.00     0.349 C  
HETATM   24  C   UNL     1     -10.748  16.484  72.501  1.00  0.00     2.876 C  
HETATM   25  C   UNL     1      -9.785  17.669  72.508  1.00  0.00    10.093 C  
HETATM   26  C   UNL     1      -9.981  18.529  71.260  1.00  0.00     3.999 C  
HETATM   27  O   UNL     1      -8.434  17.231  72.604  1.00  0.00    14.337 OA 
HETATM   28  C   UNL     1      -9.846  17.697  69.982  1.00  0.00     1.094 C  
HETATM   29  H   UNL     1      -7.835  17.968  72.609  1.00  0.00     0.000 HD 
HETATM   30  O   UNL     1     -10.146  18.550  68.872  1.00  0.00    -0.386 OA 
HETATM   31  C   UNL     1     -10.742  16.456  70.002  1.00  0.00    -0.258 C  
HETATM   32  C   UNL     1     -11.606  16.164  69.013  1.00  0.00    -0.298 C  
HETATM   33  H   UNL     1     -10.062  18.034  68.079  1.00  0.00     0.000 HD 
ENDBRANCH  17  22
ENDBRANCH   2   7
TORSDOF 3
ENDMDL
MODEL      161
REMARK 921   NORMALIZED FREE ENERGY PREDICTED BY IDOCK:   75.40 KCAL/MOL
REMARK 922        TOTAL FREE ENERGY PREDICTED BY IDOCK:   87.35 KCAL/MOL
REMARK 923 INTER-LIGAND FREE ENERGY PREDICTED BY IDOCK:   86.74 KCAL/MOL
REMARK 924 INTRA-LIGAND FREE ENERGY PREDICTED BY IDOCK:    0.60 KCAL/MOL
REMARK 927      BINDING AFFINITY PREDICTED BY RF-SCORE:    0.00 PKD
ROOT
HETATM    1  O   UNL     1      -9.992  13.993  68.838  1.00  0.00    -0.350 OA 
HETATM    2  C   UNL     1     -10.766  12.934  69.394  1.00  0.00     0.196 C  
HETATM    3  H   UNL     1      -9.235  14.115  69.398  1.00  0.00     0.000 HD 
ENDROOT
BRANCH   2   4
HETATM    4  C   UNL     1     -11.047  13.266  70.839  1.00  0.00     2.042 C  
HETATM    5  C   UNL     1     -11.679  14.579  71.226  1.00  0.00    -0.263 C  
HETATM    6  C   UNL     1     -10.232  14.326  71.538  1.00  0.00     3.749 C  
ENDBRANCH   2   4
BRANCH   2   7
HETATM    7  C   UNL     1     -11.958  12.742  68.512  1.00  0.00    -0.265 C  
HETATM    8  C   UNL     1     -11.957  12.718  67.166  1.00  0.00    -0.351 C  
HETATM    9  C   UNL     1     -13.176  12.487  66.306  1.00  0.00     3.098 C  
HETATM   10  C   UNL     1     -13.421  13.778  65.496  1.00  0.00     0.653 C  
HETATM   11  C   UNL     1     -13.094  11.202  65.403  1.00  0.00     5.793 C  
HETATM   12  C   UNL     1     -11.963  11.334  64.366  1.00  0.00     0.438 C  
HETATM   13  C   UNL     1     -10.827  10.438  64.808  1.00  0.00     0.513 C  
HETATM   14  C   UNL     1     -11.276   9.675  66.061  1.00  0.00     1.579 C  
HETATM   15  C   UNL     1     -10.646   8.286  66.079  1.00  0.00     1.332 C  
HETATM   16  C   UNL     1     -11.565   7.147  66.432  1.00  0.00     2.630 C  
HETATM   17  C   UNL     1      -9.325   8.132  65.819  1.00  0.00    -0.053 C  
HETATM   18  C   UNL     1     -12.951   7.224  65.776  1.00  0.00    13.955 C  
HETATM   19  C   UNL     1     -13.457   9.686  67.504  1.00  0.00    15.592 C  
HETATM   20  C   UNL     1     -12.831   9.793  66.093  1.00  0.00    13.324 C  
HETATM   21  C   UNL     1     -13.412   8.607  65.276  1.00  0.00    24.175 C  
BRANCH  17  22
HETATM   22  C   UNL     1      -8.543   6.972  66.182  1.00  0.00    -0.148 C  
HETATM   23  C   UNL     1      -8.484   6.276  67.334  1.00  0.00    -0.108 C  
HETATM   24  C   UNL     1      -7.708   4.967  67.329  1.00  0.00    -0.091 C  
HETATM   25  C   UNL     1      -6.643   4.920  68.422  1.00  0.00    -0.049 C  
HETATM   26  C   UNL     1      -7.263   5.196  69.790  1.00  0.00    -0.060 C  
HETATM   27  O   UNL     1      -5.593   5.844  68.156  1.00  0.00    -0.007 OA 
HETATM   28  C   UNL     1      -8.026   6.523  69.801  1.00  0.00    -0.120 C  
HETATM   29  H   UNL     1      -4.930   5.815  68.835  1.00  0.00     0.000 HD 
HETATM   30  O   UNL     1      -8.660   6.653  71.078  1.00  0.00    -0.135 OA 
HETATM   31  C   UNL     1      -9.036   6.619  68.653  1.00  0.00    -0.126 C  
HETATM   32  C   UNL     1     -10.332   6.919  68.846  1.00  0.00    -0.198 C  
HETATM   33  H   UNL     1      -9.134   7.477  71.084  1.00  0.00     0.000 HD 
ENDBRANCH  17  22
ENDBRANCH   2   7
TORSDOF 3
ENDMDL
MODEL      162
REMARK 921   NORMALIZED FREE ENERGY PREDICTED BY IDOCK:   90.90 KCAL/MOL
REMARK 922        TOTAL FREE ENERGY PREDICTED BY IDOCK:  105.56 KCAL/MOL
REMARK 923 INTER-LIGAND FREE ENERGY PREDICTED BY IDOCK:  104.53 KCAL/MOL
REMARK 924 INTRA-LIGAND FREE ENERGY PREDICTED BY IDOCK:    1.03 KCAL/MOL
REMARK 927      BINDING AFFINITY PREDICTED BY RF-SCORE:    0.00 PKD
ROOT
HETATM    1  O   UNL     1      -9.277  10.886  66.898  1.00  0.00    -0.158 OA 
HETATM    2  C   UNL     1     -10.232   9.969  67.425  1.00  0.00    -0.219 C  
HETATM    3  H   UNL     1      -8.445  10.430  66.847  1.00  0.00     0.000 HD 
ENDROOT
BRANCH   2   4
HETATM    4  C   UNL     1      -9.689   9.416  68.719  1.00  0.00    -0.161 C  
HETATM    5  C   UNL     1      -8.331   9.826  69.230  1.00  0.00    -0.142 C  
HETATM    6  C   UNL     1      -8.539   8.438  68.694  1.00  0.00    -0.132 C  
ENDBRANCH   2   4
BRANCH   2   7
HETATM    7  C   UNL     1     -11.541  10.687  67.505  1.00  0.00     0.095 C  
HETATM    8  C   UNL     1     -11.847  11.693  68.344  1.00  0.00    -0.346 C  
HETATM    9  C   UNL     1     -13.170  12.420  68.375  1.00  0.00     4.193 C  
HETATM   10  C   UNL     1     -13.824  12.133  69.744  1.00  0.00     4.867 C  
HETATM   11  C   UNL     1     -13.070  13.957  68.053  1.00  0.00     2.640 C  
HETATM   12  C   UNL     1     -12.252  14.689  69.133  1.00  0.00    -0.223 C  
HETATM   13  C   UNL     1     -10.903  15.027  68.538  1.00  0.00    -0.250 C  
HETATM   14  C   UNL     1     -10.906  14.596  67.065  1.00  0.00    -0.304 C  
HETATM   15  C   UNL     1     -10.049  15.553  66.241  1.00  0.00    -0.312 C  
HETATM   16  C   UNL     1     -10.643  16.013  64.936  1.00  0.00    -0.242 C  
HETATM   17  C   UNL     1      -8.820  15.916  66.676  1.00  0.00    -0.316 C  
HETATM   18  C   UNL     1     -12.134  16.374  65.009  1.00  0.00     1.334 C  
HETATM   19  C   UNL     1     -12.660  13.414  65.526  1.00  0.00    -0.520 C  
HETATM   20  C   UNL     1     -12.406  14.412  66.681  1.00  0.00    -0.245 C  
HETATM   21  C   UNL     1     -12.937  15.784  66.184  1.00  0.00     3.045 C  
BRANCH  17  22
HETATM   22  C   UNL     1      -7.779  16.471  65.840  1.00  0.00     0.459 C  
HETATM   23  C   UNL     1      -7.805  17.498  64.968  1.00  0.00     3.156 C  
HETATM   24  C   UNL     1      -6.477  17.969  64.393  1.00  0.00     2.294 C  
HETATM   25  C   UNL     1      -6.481  17.991  62.866  1.00  0.00     7.834 C  
HETATM   26  C   UNL     1      -7.646  18.830  62.343  1.00  0.00    13.743 C  
HETATM   27  O   UNL     1      -6.540  16.672  62.334  1.00  0.00    12.169 OA 
HETATM   28  C   UNL     1      -8.984  18.342  62.906  1.00  0.00    24.319 C  
HETATM   29  H   UNL     1      -6.542  16.686  61.384  1.00  0.00     0.000 HD 
HETATM   30  O   UNL     1     -10.002  19.241  62.454  1.00  0.00    18.760 OA 
HETATM   31  C   UNL     1      -8.963  18.230  64.433  1.00  0.00     7.822 C  
HETATM   32  C   UNL     1      -9.884  18.813  65.219  1.00  0.00     1.372 C  
HETATM   33  H   UNL     1     -10.832  18.938  62.802  1.00  0.00     0.000 HD 
ENDBRANCH  17  22
ENDBRANCH   2   7
TORSDOF 3
ENDMDL
