MODEL        1
REMARK 921   NORMALIZED FREE ENERGY PREDICTED BY IDOCK:   -8.45 KCAL/MOL
REMARK 922        TOTAL FREE ENERGY PREDICTED BY IDOCK:  -10.48 KCAL/MOL
REMARK 923 INTER-LIGAND FREE ENERGY PREDICTED BY IDOCK:   -9.93 KCAL/MOL
REMARK 924 INTRA-LIGAND FREE ENERGY PREDICTED BY IDOCK:   -0.54 KCAL/MOL
REMARK 927      BINDING AFFINITY PREDICTED BY RF-SCORE:    0.00 PKD
ROOT
HETATM    1  C   UNL     1     -10.956  10.074  67.713  1.00  0.00    -0.310 C  
HETATM    2  C   UNL     1     -11.086  11.347  68.583  1.00  0.00    -0.290 C  
HETATM    3  C   UNL     1     -11.460  10.814  70.038  1.00  0.00    -0.412 C  
HETATM    4  C   UNL     1     -12.036  12.492  67.980  1.00  0.00    -0.281 C  
HETATM    5  C   UNL     1     -12.135  13.676  68.955  1.00  0.00    -0.335 C  
HETATM    6  C   UNL     1     -11.538  13.216  66.621  1.00  0.00    -0.403 C  
HETATM    7  C   UNL     1     -11.074  14.681  68.530  1.00  0.00    -0.273 C  
HETATM    8  C   UNL     1     -12.626  13.983  65.799  1.00  0.00    -0.512 C  
HETATM    9  C   UNL     1     -12.002  14.690  64.566  1.00  0.00    -0.473 C  
HETATM   10  C   UNL     1     -10.510  14.259  67.149  1.00  0.00    -0.266 C  
HETATM   11  C   UNL     1     -10.275  15.505  66.290  1.00  0.00    -0.308 C  
HETATM   12  C   UNL     1     -10.996  12.177  65.653  1.00  0.00    -0.337 C  
HETATM   13  C   UNL     1      -9.663  16.639  66.719  1.00  0.00    -0.271 C  
HETATM   14  C   UNL     1     -10.700  15.439  64.848  1.00  0.00    -0.416 C  
ENDROOT
BRANCH   3  15
HETATM   15  C   UNL     1     -10.501   9.663  70.425  1.00  0.00    -0.352 C  
BRANCH  15  16
HETATM   16  C   UNL     1     -10.495   9.046  71.814  1.00  0.00    -0.418 C  
HETATM   17  C   UNL     1     -13.050   8.576  71.693  1.00  0.00    -0.368 C  
HETATM   18  O   UNL     1     -11.632   7.536  73.322  1.00  0.00    -0.609 OA 
HETATM   19  C   UNL     1     -11.648   8.001  71.971  1.00  0.00    -0.316 C  
HETATM   20  C   UNL     1     -11.439   6.774  71.073  1.00  0.00    -0.372 C  
HETATM   21  H   UNL     1     -12.333   6.901  73.417  1.00  0.00     0.000 HD 
ENDBRANCH  15  16
ENDBRANCH   3  15
BRANCH  13  22
HETATM   22  C   UNL     1      -8.768  16.690  67.849  1.00  0.00    -0.193 C  
HETATM   23  C   UNL     1      -6.956  17.679  69.184  1.00  0.00    -0.217 C  
HETATM   24  C   UNL     1      -5.928  18.591  68.496  1.00  0.00    -0.198 C  
HETATM   25  C   UNL     1      -8.285  17.782  68.451  1.00  0.00    -0.298 C  
HETATM   26  O   UNL     1      -5.655  18.144  67.168  1.00  0.00    -0.132 OA 
HETATM   27  C   UNL     1      -6.425  20.038  68.469  1.00  0.00    -0.330 C  
HETATM   28  H   UNL     1      -5.020  18.708  66.743  1.00  0.00     0.000 HD 
HETATM   29  C   UNL     1      -7.810  20.172  67.828  1.00  0.00    -0.309 C  
HETATM   30  C   UNL     1      -8.790  19.140  68.345  1.00  0.00    -0.386 C  
HETATM   31  C   UNL     1     -10.028  19.471  68.773  1.00  0.00    -0.547 C  
ENDBRANCH  13  22
TORSDOF 3
ENDMDL
MODEL        2
REMARK 921   NORMALIZED FREE ENERGY PREDICTED BY IDOCK:   -8.35 KCAL/MOL
REMARK 922        TOTAL FREE ENERGY PREDICTED BY IDOCK:  -10.36 KCAL/MOL
REMARK 923 INTER-LIGAND FREE ENERGY PREDICTED BY IDOCK:   -8.79 KCAL/MOL
REMARK 924 INTRA-LIGAND FREE ENERGY PREDICTED BY IDOCK:   -1.56 KCAL/MOL
REMARK 927      BINDING AFFINITY PREDICTED BY RF-SCORE:    0.00 PKD
ROOT
HETATM    1  C   UNL     1     -12.033  14.294  67.790  1.00  0.00    -0.384 C  
HETATM    2  C   UNL     1     -10.740  13.819  68.494  1.00  0.00    -0.274 C  
HETATM    3  C   UNL     1     -10.237  15.080  69.328  1.00  0.00    -0.244 C  
HETATM    4  C   UNL     1      -9.657  13.124  67.534  1.00  0.00    -0.208 C  
HETATM    5  C   UNL     1      -8.396  12.748  68.329  1.00  0.00    -0.161 C  
HETATM    6  C   UNL     1     -10.069  11.707  66.869  1.00  0.00    -0.238 C  
HETATM    7  C   UNL     1      -8.570  11.301  68.765  1.00  0.00    -0.109 C  
HETATM    8  C   UNL     1      -9.244  11.255  65.619  1.00  0.00    -0.231 C  
HETATM    9  C   UNL     1      -9.691   9.851  65.130  1.00  0.00    -0.376 C  
HETATM   10  C   UNL     1      -9.789  10.697  68.021  1.00  0.00    -0.177 C  
HETATM   11  C   UNL     1      -9.480   9.251  67.622  1.00  0.00    -0.156 C  
HETATM   12  C   UNL     1     -11.505  11.769  66.372  1.00  0.00    -0.309 C  
HETATM   13  C   UNL     1      -8.925   8.322  68.443  1.00  0.00    -0.136 C  
HETATM   14  C   UNL     1      -9.880   8.817  66.237  1.00  0.00    -0.342 C  
ENDROOT
BRANCH   3  15
HETATM   15  C   UNL     1     -11.422  15.672  70.127  1.00  0.00    -0.358 C  
BRANCH  15  16
HETATM   16  C   UNL     1     -11.593  15.435  71.618  1.00  0.00    -0.492 C  
HETATM   17  C   UNL     1     -14.180  15.324  71.377  1.00  0.00    -0.589 C  
HETATM   18  O   UNL     1     -13.042  14.541  73.336  1.00  0.00    -0.587 OA 
HETATM   19  C   UNL     1     -12.908  14.643  71.917  1.00  0.00    -0.328 C  
HETATM   20  C   UNL     1     -12.854  13.211  71.368  1.00  0.00    -0.401 C  
HETATM   21  H   UNL     1     -13.840  14.060  73.517  1.00  0.00     0.000 HD 
ENDBRANCH  15  16
ENDBRANCH   3  15
BRANCH  13  22
HETATM   22  C   UNL     1      -8.959   8.399  69.883  1.00  0.00    -0.142 C  
HETATM   23  C   UNL     1     -10.091   8.409  72.064  1.00  0.00    -0.364 C  
HETATM   24  C   UNL     1     -11.573   8.808  72.140  1.00  0.00    -0.364 C  
HETATM   25  C   UNL     1      -9.811   7.782  70.708  1.00  0.00    -0.183 C  
HETATM   26  O   UNL     1     -11.877   9.828  71.190  1.00  0.00    -0.322 OA 
HETATM   27  C   UNL     1     -12.471   7.590  71.906  1.00  0.00    -0.335 C  
HETATM   28  H   UNL     1     -12.793  10.075  71.237  1.00  0.00     0.000 HD 
HETATM   29  C   UNL     1     -12.151   6.869  70.593  1.00  0.00    -0.363 C  
HETATM   30  C   UNL     1     -10.666   6.648  70.400  1.00  0.00    -0.297 C  
HETATM   31  C   UNL     1     -10.154   5.448  70.054  1.00  0.00    -0.324 C  
ENDBRANCH  13  22
TORSDOF 3
ENDMDL
MODEL        3
REMARK 921   NORMALIZED FREE ENERGY PREDICTED BY IDOCK:   -8.26 KCAL/MOL
REMARK 922        TOTAL FREE ENERGY PREDICTED BY IDOCK:  -10.26 KCAL/MOL
REMARK 923 INTER-LIGAND FREE ENERGY PREDICTED BY IDOCK:   -9.12 KCAL/MOL
REMARK 924 INTRA-LIGAND FREE ENERGY PREDICTED BY IDOCK:   -1.14 KCAL/MOL
REMARK 927      BINDING AFFINITY PREDICTED BY RF-SCORE:    0.00 PKD
ROOT
HETATM    1  C   UNL     1     -11.020   9.409  68.308  1.00  0.00    -0.085 C  
HETATM    2  C   UNL     1     -11.053  10.801  68.984  1.00  0.00    -0.308 C  
HETATM    3  C   UNL     1     -11.484  10.517  70.492  1.00  0.00    -0.433 C  
HETATM    4  C   UNL     1     -11.898  11.919  68.202  1.00  0.00    -0.338 C  
HETATM    5  C   UNL     1     -11.908  13.237  68.993  1.00  0.00    -0.365 C  
HETATM    6  C   UNL     1     -11.329  12.396  66.763  1.00  0.00    -0.391 C  
HETATM    7  C   UNL     1     -10.764  14.080  68.452  1.00  0.00    -0.261 C  
HETATM    8  C   UNL     1     -12.341  13.121  65.817  1.00  0.00    -0.496 C  
HETATM    9  C   UNL     1     -11.648  13.589  64.509  1.00  0.00    -0.410 C  
HETATM   10  C   UNL     1     -10.223  13.418  67.158  1.00  0.00    -0.247 C  
HETATM   11  C   UNL     1      -9.877  14.503  66.134  1.00  0.00    -0.339 C  
HETATM   12  C   UNL     1     -10.865  11.187  65.967  1.00  0.00    -0.230 C  
HETATM   13  C   UNL     1      -9.177  15.634  66.410  1.00  0.00    -0.346 C  
HETATM   14  C   UNL     1     -10.292  14.263  64.708  1.00  0.00    -0.373 C  
ENDROOT
BRANCH   3  15
HETATM   15  C   UNL     1     -10.628   9.361  71.060  1.00  0.00    -0.400 C  
BRANCH  15  16
HETATM   16  C   UNL     1     -11.112   8.478  72.200  1.00  0.00    -0.436 C  
HETATM   17  C   UNL     1     -11.860   6.622  70.539  1.00  0.00    -0.430 C  
HETATM   18  O   UNL     1     -11.607   6.213  72.887  1.00  0.00    -0.468 OA 
HETATM   19  C   UNL     1     -11.053   6.966  71.806  1.00  0.00    -0.244 C  
HETATM   20  C   UNL     1      -9.612   6.477  71.612  1.00  0.00    -0.167 C  
HETATM   21  H   UNL     1     -11.571   5.295  72.648  1.00  0.00     0.000 HD 
ENDBRANCH  15  16
ENDBRANCH   3  15
BRANCH  13  22
HETATM   22  C   UNL     1      -8.292  15.776  67.540  1.00  0.00    -0.183 C  
HETATM   23  C   UNL     1      -6.879  17.063  69.085  1.00  0.00    -0.240 C  
HETATM   24  C   UNL     1      -6.294  18.408  68.626  1.00  0.00    -0.219 C  
HETATM   25  C   UNL     1      -8.198  16.821  68.369  1.00  0.00    -0.224 C  
HETATM   26  O   UNL     1      -5.962  18.374  67.238  1.00  0.00    -0.155 OA 
HETATM   27  C   UNL     1      -7.281  19.546  68.900  1.00  0.00    -0.397 C  
HETATM   28  H   UNL     1      -5.601  19.205  66.954  1.00  0.00     0.000 HD 
HETATM   29  C   UNL     1      -8.658  19.292  68.278  1.00  0.00    -0.374 C  
HETATM   30  C   UNL     1      -9.165  17.891  68.547  1.00  0.00    -0.288 C  
HETATM   31  C   UNL     1     -10.409  17.651  69.013  1.00  0.00    -0.272 C  
ENDBRANCH  13  22
TORSDOF 3
ENDMDL
MODEL        4
REMARK 921   NORMALIZED FREE ENERGY PREDICTED BY IDOCK:   -7.82 KCAL/MOL
REMARK 922        TOTAL FREE ENERGY PREDICTED BY IDOCK:   -9.73 KCAL/MOL
REMARK 923 INTER-LIGAND FREE ENERGY PREDICTED BY IDOCK:   -8.66 KCAL/MOL
REMARK 924 INTRA-LIGAND FREE ENERGY PREDICTED BY IDOCK:   -1.07 KCAL/MOL
REMARK 927      BINDING AFFINITY PREDICTED BY RF-SCORE:    0.00 PKD
ROOT
HETATM    1  C   UNL     1     -12.395  14.486  68.779  1.00  0.00    -0.064 C  
HETATM    2  C   UNL     1     -10.861  14.283  68.762  1.00  0.00    -0.265 C  
HETATM    3  C   UNL     1     -10.306  15.246  69.904  1.00  0.00    -0.258 C  
HETATM    4  C   UNL     1     -10.171  14.420  67.320  1.00  0.00    -0.252 C  
HETATM    5  C   UNL     1      -8.646  14.258  67.436  1.00  0.00    -0.223 C  
HETATM    6  C   UNL     1     -10.544  13.293  66.219  1.00  0.00    -0.294 C  
HETATM    7  C   UNL     1      -8.341  12.792  67.167  1.00  0.00    -0.164 C  
HETATM    8  C   UNL     1     -10.251  13.652  64.725  1.00  0.00    -0.363 C  
HETATM    9  C   UNL     1     -10.585  12.461  63.787  1.00  0.00    -0.486 C  
HETATM   10  C   UNL     1      -9.619  12.107  66.619  1.00  0.00    -0.226 C  
HETATM   11  C   UNL     1      -9.236  11.116  65.516  1.00  0.00    -0.236 C  
HETATM   12  C   UNL     1     -12.039  13.015  66.254  1.00  0.00    -0.453 C  
HETATM   13  C   UNL     1      -8.222  10.217  65.599  1.00  0.00    -0.153 C  
HETATM   14  C   UNL     1     -10.089  11.101  64.276  1.00  0.00    -0.382 C  
ENDROOT
BRANCH   3  15
HETATM   15  C   UNL     1     -11.135  15.044  71.194  1.00  0.00    -0.201 C  
BRANCH  15  16
HETATM   16  C   UNL     1     -12.314  15.936  71.548  1.00  0.00    -0.503 C  
HETATM   17  C   UNL     1     -13.627  13.925  72.547  1.00  0.00    -0.680 C  
HETATM   18  O   UNL     1     -14.248  16.200  72.975  1.00  0.00    -0.533 OA 
HETATM   19  C   UNL     1     -13.111  15.360  72.765  1.00  0.00    -0.466 C  
HETATM   20  C   UNL     1     -12.287  15.390  74.058  1.00  0.00    -0.792 C  
HETATM   21  H   UNL     1     -14.732  15.851  73.714  1.00  0.00     0.000 HD 
ENDBRANCH  15  16
ENDBRANCH   3  15
BRANCH  13  22
HETATM   22  C   UNL     1      -7.662   9.750  66.843  1.00  0.00    -0.098 C  
HETATM   23  C   UNL     1      -7.794   9.051  69.196  1.00  0.00    -0.093 C  
HETATM   24  C   UNL     1      -8.968   9.539  70.060  1.00  0.00    -0.223 C  
HETATM   25  C   UNL     1      -8.246   8.956  67.747  1.00  0.00    -0.110 C  
HETATM   26  O   UNL     1      -9.349  10.867  69.702  1.00  0.00    -0.395 OA 
HETATM   27  C   UNL     1     -10.166   8.596  69.922  1.00  0.00    -0.206 C  
HETATM   28  H   UNL     1     -10.074  11.169  70.236  1.00  0.00     0.000 HD 
HETATM   29  C   UNL     1     -10.590   8.394  68.464  1.00  0.00    -0.149 C  
HETATM   30  C   UNL     1      -9.414   8.114  67.553  1.00  0.00    -0.184 C  
HETATM   31  C   UNL     1      -9.409   7.087  66.676  1.00  0.00    -0.203 C  
ENDBRANCH  13  22
TORSDOF 3
ENDMDL
MODEL        5
REMARK 921   NORMALIZED FREE ENERGY PREDICTED BY IDOCK:   -7.72 KCAL/MOL
REMARK 922        TOTAL FREE ENERGY PREDICTED BY IDOCK:   -9.62 KCAL/MOL
REMARK 923 INTER-LIGAND FREE ENERGY PREDICTED BY IDOCK:   -8.88 KCAL/MOL
REMARK 924 INTRA-LIGAND FREE ENERGY PREDICTED BY IDOCK:   -0.74 KCAL/MOL
REMARK 927      BINDING AFFINITY PREDICTED BY RF-SCORE:    0.00 PKD
ROOT
HETATM    1  C   UNL     1     -10.276  10.125  66.831  1.00  0.00    -0.295 C  
HETATM    2  C   UNL     1     -10.534  11.258  67.853  1.00  0.00    -0.218 C  
HETATM    3  C   UNL     1     -10.708  10.517  69.253  1.00  0.00    -0.269 C  
HETATM    4  C   UNL     1     -11.692  12.292  67.447  1.00  0.00    -0.405 C  
HETATM    5  C   UNL     1     -11.897  13.333  68.560  1.00  0.00    -0.384 C  
HETATM    6  C   UNL     1     -11.418  13.231  66.157  1.00  0.00    -0.359 C  
HETATM    7  C   UNL     1     -11.040  14.536  68.196  1.00  0.00    -0.280 C  
HETATM    8  C   UNL     1     -12.671  13.896  65.498  1.00  0.00    -0.536 C  
HETATM    9  C   UNL     1     -12.260  14.823  64.323  1.00  0.00    -0.402 C  
HETATM   10  C   UNL     1     -10.526  14.363  66.744  1.00  0.00    -0.273 C  
HETATM   11  C   UNL     1     -10.552  15.716  66.027  1.00  0.00    -0.336 C  
HETATM   12  C   UNL     1     -10.798  12.404  65.042  1.00  0.00    -0.331 C  
HETATM   13  C   UNL     1     -10.091  16.881  66.552  1.00  0.00    -0.320 C  
HETATM   14  C   UNL     1     -11.072  15.738  64.615  1.00  0.00    -0.376 C  
ENDROOT
BRANCH   3  15
HETATM   15  C   UNL     1      -9.556   9.502  69.443  1.00  0.00    -0.186 C  
BRANCH  15  16
HETATM   16  C   UNL     1      -8.524   9.646  70.550  1.00  0.00    -0.128 C  
HETATM   17  C   UNL     1     -10.093   8.474  72.262  1.00  0.00    -0.386 C  
HETATM   18  O   UNL     1      -7.751   8.778  72.671  1.00  0.00    -0.361 OA 
HETATM   19  C   UNL     1      -8.691   8.522  71.625  1.00  0.00    -0.199 C  
HETATM   20  C   UNL     1      -8.366   7.133  71.061  1.00  0.00    -0.124 C  
HETATM   21  H   UNL     1      -7.852   8.095  73.323  1.00  0.00     0.000 HD 
ENDBRANCH  15  16
ENDBRANCH   3  15
BRANCH  13  22
HETATM   22  C   UNL     1      -9.131  16.954  67.626  1.00  0.00    -0.223 C  
HETATM   23  C   UNL     1      -7.210  17.937  68.802  1.00  0.00    -0.275 C  
HETATM   24  C   UNL     1      -6.191  18.772  68.011  1.00  0.00    -0.204 C  
HETATM   25  C   UNL     1      -8.574  18.055  68.141  1.00  0.00    -0.277 C  
HETATM   26  O   UNL     1      -6.013  18.250  66.695  1.00  0.00    -0.142 OA 
HETATM   27  C   UNL     1      -6.637  20.235  67.937  1.00  0.00    -0.311 C  
HETATM   28  H   UNL     1      -5.383  18.766  66.206  1.00  0.00     0.000 HD 
HETATM   29  C   UNL     1      -8.051  20.390  67.368  1.00  0.00    -0.367 C  
HETATM   30  C   UNL     1      -9.036  19.424  67.993  1.00  0.00    -0.371 C  
HETATM   31  C   UNL     1     -10.234  19.824  68.471  1.00  0.00    -0.547 C  
ENDBRANCH  13  22
TORSDOF 3
ENDMDL
MODEL        6
REMARK 921   NORMALIZED FREE ENERGY PREDICTED BY IDOCK:   -7.58 KCAL/MOL
REMARK 922        TOTAL FREE ENERGY PREDICTED BY IDOCK:   -9.45 KCAL/MOL
REMARK 923 INTER-LIGAND FREE ENERGY PREDICTED BY IDOCK:   -8.80 KCAL/MOL
REMARK 924 INTRA-LIGAND FREE ENERGY PREDICTED BY IDOCK:   -0.65 KCAL/MOL
REMARK 927      BINDING AFFINITY PREDICTED BY RF-SCORE:    0.00 PKD
ROOT
HETATM    1  C   UNL     1      -9.740  17.806  66.287  1.00  0.00    -0.277 C  
HETATM    2  C   UNL     1      -9.237  16.623  67.149  1.00  0.00    -0.233 C  
HETATM    3  C   UNL     1      -8.011  17.211  67.980  1.00  0.00    -0.212 C  
HETATM    4  C   UNL     1      -8.962  15.261  66.345  1.00  0.00    -0.339 C  
HETATM    5  C   UNL     1      -8.413  14.181  67.290  1.00  0.00    -0.228 C  
HETATM    6  C   UNL     1     -10.248  14.520  65.698  1.00  0.00    -0.379 C  
HETATM    7  C   UNL     1      -9.608  13.367  67.764  1.00  0.00    -0.213 C  
HETATM    8  C   UNL     1      -9.958  13.478  64.568  1.00  0.00    -0.018 C  
HETATM    9  C   UNL     1     -11.266  12.791  64.091  1.00  0.00    -0.435 C  
HETATM   10  C   UNL     1     -10.846  13.755  66.915  1.00  0.00    -0.286 C  
HETATM   11  C   UNL     1     -11.674  12.501  66.615  1.00  0.00    -0.453 C  
HETATM   12  C   UNL     1     -11.159  15.546  65.043  1.00  0.00    -0.411 C  
HETATM   13  C   UNL     1     -12.011  11.557  67.530  1.00  0.00     0.006 C  
HETATM   14  C   UNL     1     -12.200  12.342  65.214  1.00  0.00    -0.418 C  
ENDROOT
BRANCH   3  15
HETATM   15  C   UNL     1      -8.424  18.560  68.616  1.00  0.00    -0.326 C  
BRANCH  15  16
HETATM   16  C   UNL     1      -7.405  19.526  69.198  1.00  0.00    -0.364 C  
HETATM   17  C   UNL     1      -5.710  18.995  67.298  1.00  0.00    -0.170 C  
HETATM   18  O   UNL     1      -5.480  20.910  68.721  1.00  0.00    -0.310 OA 
HETATM   19  C   UNL     1      -6.460  20.087  68.085  1.00  0.00    -0.266 C  
HETATM   20  C   UNL     1      -7.212  20.976  67.086  1.00  0.00    -0.348 C  
HETATM   21  H   UNL     1      -4.906  21.251  68.044  1.00  0.00     0.000 HD 
ENDBRANCH  15  16
ENDBRANCH   3  15
BRANCH  13  22
HETATM   22  C   UNL     1     -12.043  11.792  68.953  1.00  0.00    -0.238 C  
HETATM   23  C   UNL     1     -12.166  11.083  71.302  1.00  0.00    -0.365 C  
HETATM   24  C   UNL     1     -12.806   9.728  71.646  1.00  0.00    -0.421 C  
HETATM   25  C   UNL     1     -11.548  11.006  69.915  1.00  0.00    -0.416 C  
HETATM   26  O   UNL     1     -13.895   9.440  70.770  1.00  0.00    -0.570 OA 
HETATM   27  C   UNL     1     -11.765   8.608  71.573  1.00  0.00    -0.369 C  
HETATM   28  H   UNL     1     -14.290   8.603  70.982  1.00  0.00     0.000 HD 
HETATM   29  C   UNL     1     -11.046   8.561  70.220  1.00  0.00    -0.222 C  
HETATM   30  C   UNL     1     -10.586   9.929  69.762  1.00  0.00    -0.296 C  
HETATM   31  C   UNL     1      -9.329  10.159  69.325  1.00  0.00    -0.227 C  
ENDBRANCH  13  22
TORSDOF 3
ENDMDL
MODEL        7
REMARK 921   NORMALIZED FREE ENERGY PREDICTED BY IDOCK:   -7.49 KCAL/MOL
REMARK 922        TOTAL FREE ENERGY PREDICTED BY IDOCK:   -9.35 KCAL/MOL
REMARK 923 INTER-LIGAND FREE ENERGY PREDICTED BY IDOCK:   -8.84 KCAL/MOL
REMARK 924 INTRA-LIGAND FREE ENERGY PREDICTED BY IDOCK:   -0.51 KCAL/MOL
REMARK 927      BINDING AFFINITY PREDICTED BY RF-SCORE:    0.00 PKD
ROOT
HETATM    1  C   UNL     1     -10.416  15.354  64.964  1.00  0.00    -0.411 C  
HETATM    2  C   UNL     1      -9.912  14.940  66.367  1.00  0.00    -0.290 C  
HETATM    3  C   UNL     1      -9.359  16.284  67.020  1.00  0.00    -0.235 C  
HETATM    4  C   UNL     1      -8.920  13.678  66.390  1.00  0.00     0.009 C  
HETATM    5  C   UNL     1      -8.441  13.397  67.824  1.00  0.00    -0.181 C  
HETATM    6  C   UNL     1      -9.543  12.248  65.958  1.00  0.00    -0.230 C  
HETATM    7  C   UNL     1      -9.383  12.351  68.402  1.00  0.00    -0.158 C  
HETATM    8  C   UNL     1      -8.522  11.135  65.550  1.00  0.00    -0.003 C  
HETATM    9  C   UNL     1      -9.246   9.799  65.233  1.00  0.00    -0.294 C  
HETATM   10  C   UNL     1     -10.264  11.785  67.259  1.00  0.00    -0.226 C  
HETATM   11  C   UNL     1     -10.450  10.277  67.455  1.00  0.00    -0.293 C  
HETATM   12  C   UNL     1     -10.426  12.420  64.732  1.00  0.00    -0.333 C  
HETATM   13  C   UNL     1     -10.772   9.683  68.633  1.00  0.00    -0.233 C  
HETATM   14  C   UNL     1     -10.327   9.402  66.237  1.00  0.00    -0.211 C  
ENDROOT
BRANCH   3  15
HETATM   15  C   UNL     1     -10.403  17.411  66.834  1.00  0.00    -0.317 C  
BRANCH  15  16
HETATM   16  C   UNL     1     -10.906  18.248  67.999  1.00  0.00    -0.178 C  
HETATM   17  C   UNL     1      -8.479  18.891  68.678  1.00  0.00    -0.381 C  
HETATM   18  O   UNL     1     -10.395  20.073  69.502  1.00  0.00    -0.602 OA 
HETATM   19  C   UNL     1      -9.898  19.392  68.348  1.00  0.00    -0.428 C  
HETATM   20  C   UNL     1      -9.797  20.432  67.225  1.00  0.00    -0.597 C  
HETATM   21  H   UNL     1      -9.783  20.767  69.714  1.00  0.00     0.000 HD 
ENDBRANCH  15  16
ENDBRANCH   3  15
BRANCH  13  22
HETATM   22  C   UNL     1     -11.413  10.368  69.730  1.00  0.00    -0.348 C  
HETATM   23  C   UNL     1     -12.702  10.459  71.820  1.00  0.00    -0.525 C  
HETATM   24  C   UNL     1     -13.630   9.288  72.182  1.00  0.00    -0.471 C  
HETATM   25  C   UNL     1     -11.540   9.937  70.990  1.00  0.00    -0.470 C  
HETATM   26  O   UNL     1     -14.229   8.730  71.014  1.00  0.00    -0.608 OA 
HETATM   27  C   UNL     1     -12.858   8.206  72.942  1.00  0.00     0.290 C  
HETATM   28  H   UNL     1     -14.802   8.007  71.238  1.00  0.00     0.000 HD 
HETATM   29  C   UNL     1     -11.619   7.724  72.181  1.00  0.00    -0.367 C  
HETATM   30  C   UNL     1     -10.794   8.870  71.633  1.00  0.00    -0.420 C  
HETATM   31  C   UNL     1      -9.458   8.947  71.811  1.00  0.00    -0.334 C  
ENDBRANCH  13  22
TORSDOF 3
ENDMDL
MODEL        8
REMARK 921   NORMALIZED FREE ENERGY PREDICTED BY IDOCK:   -7.35 KCAL/MOL
REMARK 922        TOTAL FREE ENERGY PREDICTED BY IDOCK:   -9.18 KCAL/MOL
REMARK 923 INTER-LIGAND FREE ENERGY PREDICTED BY IDOCK:   -8.37 KCAL/MOL
REMARK 924 INTRA-LIGAND FREE ENERGY PREDICTED BY IDOCK:   -0.81 KCAL/MOL
REMARK 927      BINDING AFFINITY PREDICTED BY RF-SCORE:    0.00 PKD
ROOT
HETATM    1  C   UNL     1     -10.510  10.106  67.702  1.00  0.00    -0.293 C  
HETATM    2  C   UNL     1     -10.865  11.319  68.594  1.00  0.00    -0.246 C  
HETATM    3  C   UNL     1     -11.260  10.692  70.005  1.00  0.00    -0.382 C  
HETATM    4  C   UNL     1     -11.916  12.350  67.956  1.00  0.00    -0.264 C  
HETATM    5  C   UNL     1     -12.236  13.477  68.951  1.00  0.00    -0.194 C  
HETATM    6  C   UNL     1     -11.431  13.181  66.654  1.00  0.00    -0.389 C  
HETATM    7  C   UNL     1     -11.292  14.626  68.628  1.00  0.00    -0.305 C  
HETATM    8  C   UNL     1     -12.554  13.827  65.778  1.00  0.00    -0.525 C  
HETATM    9  C   UNL     1     -11.949  14.652  64.611  1.00  0.00    -0.472 C  
HETATM   10  C   UNL     1     -10.587  14.330  67.279  1.00  0.00    -0.278 C  
HETATM   11  C   UNL     1     -10.463  15.625  66.471  1.00  0.00    -0.303 C  
HETATM   12  C   UNL     1     -10.692  12.255  65.699  1.00  0.00    -0.302 C  
HETATM   13  C   UNL     1     -10.037  16.813  66.972  1.00  0.00    -0.276 C  
HETATM   14  C   UNL     1     -10.780  15.554  65.002  1.00  0.00    -0.463 C  
ENDROOT
BRANCH   3  15
HETATM   15  C   UNL     1     -10.184   9.663  70.427  1.00  0.00    -0.348 C  
BRANCH  15  16
HETATM   16  C   UNL     1     -10.280   8.878  71.726  1.00  0.00    -0.414 C  
HETATM   17  C   UNL     1     -12.878   9.006  71.693  1.00  0.00    -0.419 C  
HETATM   18  O   UNL     1     -11.689   7.467  73.095  1.00  0.00    -0.604 OA 
HETATM   19  C   UNL     1     -11.636   8.102  71.816  1.00  0.00    -0.291 C  
HETATM   20  C   UNL     1     -11.735   6.993  70.761  1.00  0.00    -0.394 C  
HETATM   21  H   UNL     1     -12.511   6.997  73.150  1.00  0.00     0.000 HD 
ENDBRANCH  15  16
ENDBRANCH   3  15
BRANCH  13  22
HETATM   22  C   UNL     1      -9.233  16.942  68.163  1.00  0.00    -0.234 C  
HETATM   23  C   UNL     1      -7.419  16.275  69.681  1.00  0.00     0.108 C  
HETATM   24  C   UNL     1      -6.914  14.824  69.656  1.00  0.00    -0.172 C  
HETATM   25  C   UNL     1      -7.936  16.648  68.300  1.00  0.00    -0.192 C  
HETATM   26  O   UNL     1      -7.983  13.914  69.402  1.00  0.00    -0.327 OA 
HETATM   27  C   UNL     1      -5.819  14.653  68.599  1.00  0.00    -0.090 C  
HETATM   28  H   UNL     1      -7.671  13.017  69.386  1.00  0.00     0.000 HD 
HETATM   29  C   UNL     1      -6.269  15.114  67.209  1.00  0.00     0.207 C  
HETATM   30  C   UNL     1      -6.960  16.460  67.240  1.00  0.00    -0.218 C  
HETATM   31  C   UNL     1      -6.628  17.462  66.398  1.00  0.00    -0.292 C  
ENDBRANCH  13  22
TORSDOF 3
ENDMDL
MODEL        9
REMARK 921   NORMALIZED FREE ENERGY PREDICTED BY IDOCK:   -7.30 KCAL/MOL
REMARK 922        TOTAL FREE ENERGY PREDICTED BY IDOCK:   -9.13 KCAL/MOL
REMARK 923 INTER-LIGAND FREE ENERGY PREDICTED BY IDOCK:   -7.87 KCAL/MOL
REMARK 924 INTRA-LIGAND FREE ENERGY PREDICTED BY IDOCK:   -1.25 KCAL/MOL
REMARK 927      BINDING AFFINITY PREDICTED BY RF-SCORE:    0.00 PKD
ROOT
HETATM    1  C   UNL     1     -10.267  10.116  65.624  1.00  0.00    -0.288 C  
HETATM    2  C   UNL     1      -9.843  10.705  66.991  1.00  0.00    -0.222 C  
HETATM    3  C   UNL     1     -10.336  12.220  66.957  1.00  0.00    -0.237 C  
HETATM    4  C   UNL     1      -8.307  10.467  67.390  1.00  0.00    -0.121 C  
HETATM    5  C   UNL     1      -7.989  11.144  68.733  1.00  0.00    -0.144 C  
HETATM    6  C   UNL     1      -7.850   8.939  67.668  1.00  0.00    -0.101 C  
HETATM    7  C   UNL     1      -8.173  10.086  69.810  1.00  0.00    -0.191 C  
HETATM    8  C   UNL     1      -6.314   8.648  67.612  1.00  0.00    -0.053 C  
HETATM    9  C   UNL     1      -6.012   7.168  67.970  1.00  0.00    -0.030 C  
HETATM   10  C   UNL     1      -8.332   8.702  69.130  1.00  0.00    -0.119 C  
HETATM   11  C   UNL     1      -7.588   7.641  69.947  1.00  0.00    -0.092 C  
HETATM   12  C   UNL     1      -8.447   8.023  66.612  1.00  0.00    -0.133 C  
HETATM   13  C   UNL     1      -7.661   7.511  71.297  1.00  0.00    -0.081 C  
HETATM   14  C   UNL     1      -6.767   6.635  69.186  1.00  0.00    -0.052 C  
ENDROOT
BRANCH   3  15
HETATM   15  C   UNL     1     -11.805  12.270  66.474  1.00  0.00    -0.378 C  
BRANCH  15  16
HETATM   16  C   UNL     1     -12.327  13.385  65.582  1.00  0.00    -0.521 C  
HETATM   17  C   UNL     1     -10.591  12.814  63.731  1.00  0.00    -0.370 C  
HETATM   18  O   UNL     1     -12.505  14.194  63.310  1.00  0.00    -1.146 OA 
HETATM   19  C   UNL     1     -12.073  13.065  64.072  1.00  0.00    -0.450 C  
HETATM   20  C   UNL     1     -12.893  11.861  63.593  1.00  0.00    -0.429 C  
HETATM   21  H   UNL     1     -12.351  14.000  62.393  1.00  0.00     0.000 HD 
ENDBRANCH  15  16
ENDBRANCH   3  15
BRANCH  13  22
HETATM   22  C   UNL     1      -8.748   8.021  72.096  1.00  0.00    -0.212 C  
HETATM   23  C   UNL     1     -11.119   8.451  72.575  1.00  0.00    -0.397 C  
HETATM   24  C   UNL     1     -12.122   8.510  71.411  1.00  0.00    -0.303 C  
HETATM   25  C   UNL     1      -9.981   7.514  72.205  1.00  0.00    -0.226 C  
HETATM   26  O   UNL     1     -11.526   9.090  70.251  1.00  0.00    -0.391 OA 
HETATM   27  C   UNL     1     -12.650   7.111  71.085  1.00  0.00    -0.384 C  
HETATM   28  H   UNL     1     -12.146   9.126  69.532  1.00  0.00     0.000 HD 
HETATM   29  C   UNL     1     -11.526   6.109  70.804  1.00  0.00    -0.321 C  
HETATM   30  C   UNL     1     -10.418   6.180  71.834  1.00  0.00    -0.254 C  
HETATM   31  C   UNL     1      -9.927   5.078  72.443  1.00  0.00    -0.226 C  
ENDBRANCH  13  22
TORSDOF 3
ENDMDL
MODEL       10
REMARK 921   NORMALIZED FREE ENERGY PREDICTED BY IDOCK:   -7.29 KCAL/MOL
REMARK 922        TOTAL FREE ENERGY PREDICTED BY IDOCK:   -9.11 KCAL/MOL
REMARK 923 INTER-LIGAND FREE ENERGY PREDICTED BY IDOCK:   -8.06 KCAL/MOL
REMARK 924 INTRA-LIGAND FREE ENERGY PREDICTED BY IDOCK:   -1.05 KCAL/MOL
REMARK 927      BINDING AFFINITY PREDICTED BY RF-SCORE:    0.00 PKD
ROOT
HETATM    1  C   UNL     1      -8.594   6.844  70.175  1.00  0.00    -0.141 C  
HETATM    2  C   UNL     1      -9.668   7.355  69.185  1.00  0.00    -0.165 C  
HETATM    3  C   UNL     1     -10.871   6.317  69.309  1.00  0.00    -0.406 C  
HETATM    4  C   UNL     1      -9.139   7.655  67.699  1.00  0.00    -0.133 C  
HETATM    5  C   UNL     1     -10.300   8.098  66.794  1.00  0.00    -0.361 C  
HETATM    6  C   UNL     1      -8.093   8.878  67.526  1.00  0.00    -0.109 C  
HETATM    7  C   UNL     1     -10.321   9.619  66.825  1.00  0.00    -0.292 C  
HETATM    8  C   UNL     1      -7.247   8.894  66.211  1.00  0.00    -0.086 C  
HETATM    9  C   UNL     1      -6.344  10.154  66.141  1.00  0.00    -0.087 C  
HETATM   10  C   UNL     1      -9.027  10.124  67.513  1.00  0.00    -0.136 C  
HETATM   11  C   UNL     1      -8.515  11.372  66.788  1.00  0.00    -0.165 C  
HETATM   12  C   UNL     1      -7.059   8.832  68.640  1.00  0.00    -0.072 C  
HETATM   13  C   UNL     1      -9.289  12.424  66.417  1.00  0.00    -0.219 C  
HETATM   14  C   UNL     1      -7.036  11.461  66.527  1.00  0.00    -0.062 C  
ENDROOT
BRANCH   3  15
HETATM   15  C   UNL     1     -11.193   6.083  70.804  1.00  0.00    -0.340 C  
BRANCH  15  16
HETATM   16  C   UNL     1     -12.342   6.790  71.505  1.00  0.00    -0.407 C  
HETATM   17  C   UNL     1     -10.782   7.561  73.438  1.00  0.00    -0.387 C  
HETATM   18  O   UNL     1     -12.945   8.529  73.074  1.00  0.00    -0.719 OA 
HETATM   19  C   UNL     1     -11.823   7.977  72.381  1.00  0.00    -0.372 C  
HETATM   20  C   UNL     1     -11.225   9.103  71.528  1.00  0.00    -0.430 C  
HETATM   21  H   UNL     1     -12.629   9.250  73.606  1.00  0.00     0.000 HD 
ENDBRANCH  15  16
ENDBRANCH   3  15
BRANCH  13  22
HETATM   22  C   UNL     1     -10.563  12.737  67.017  1.00  0.00    -0.253 C  
HETATM   23  C   UNL     1     -12.114  14.167  68.277  1.00  0.00    -0.297 C  
HETATM   24  C   UNL     1     -11.549  15.220  69.244  1.00  0.00    -0.332 C  
HETATM   25  C   UNL     1     -11.123  13.944  67.146  1.00  0.00    -0.312 C  
HETATM   26  O   UNL     1     -10.362  14.747  69.878  1.00  0.00    -0.439 OA 
HETATM   27  C   UNL     1     -11.262  16.529  68.504  1.00  0.00    -0.296 C  
HETATM   28  H   UNL     1     -10.012  15.398  70.475  1.00  0.00     0.000 HD 
HETATM   29  C   UNL     1     -10.345  16.331  67.293  1.00  0.00    -0.285 C  
HETATM   30  C   UNL     1     -10.767  15.159  66.433  1.00  0.00    -0.317 C  
HETATM   31  C   UNL     1     -10.898  15.257  65.092  1.00  0.00    -0.441 C  
ENDBRANCH  13  22
TORSDOF 3
ENDMDL
MODEL       11
REMARK 921   NORMALIZED FREE ENERGY PREDICTED BY IDOCK:   -7.28 KCAL/MOL
REMARK 922        TOTAL FREE ENERGY PREDICTED BY IDOCK:   -9.10 KCAL/MOL
REMARK 923 INTER-LIGAND FREE ENERGY PREDICTED BY IDOCK:   -7.90 KCAL/MOL
REMARK 924 INTRA-LIGAND FREE ENERGY PREDICTED BY IDOCK:   -1.20 KCAL/MOL
REMARK 927      BINDING AFFINITY PREDICTED BY RF-SCORE:    0.00 PKD
ROOT
HETATM    1  C   UNL     1      -9.556   5.316  68.833  1.00  0.00    -0.189 C  
HETATM    2  C   UNL     1      -8.932   6.638  68.325  1.00  0.00    -0.122 C  
HETATM    3  C   UNL     1      -7.545   6.213  67.667  1.00  0.00    -0.097 C  
HETATM    4  C   UNL     1      -8.873   7.824  69.405  1.00  0.00    -0.139 C  
HETATM    5  C   UNL     1      -8.184   9.061  68.807  1.00  0.00    -0.117 C  
HETATM    6  C   UNL     1     -10.287   8.435  69.902  1.00  0.00    -0.210 C  
HETATM    7  C   UNL     1      -9.287   9.953  68.258  1.00  0.00    -0.136 C  
HETATM    8  C   UNL     1     -10.267   9.245  71.239  1.00  0.00    -0.383 C  
HETATM    9  C   UNL     1     -11.667   9.835  71.558  1.00  0.00    -0.450 C  
HETATM   10  C   UNL     1     -10.656   9.417  68.750  1.00  0.00    -0.234 C  
HETATM   11  C   UNL     1     -11.571  10.594  69.102  1.00  0.00    -0.342 C  
HETATM   12  C   UNL     1     -11.274   7.307  70.157  1.00  0.00    -0.264 C  
HETATM   13  C   UNL     1     -11.750  11.694  68.327  1.00  0.00    -0.374 C  
HETATM   14  C   UNL     1     -12.373  10.489  70.371  1.00  0.00    -0.409 C  
ENDROOT
BRANCH   3  15
HETATM   15  C   UNL     1      -7.773   5.009  66.722  1.00  0.00    -0.092 C  
BRANCH  15  16
HETATM   16  C   UNL     1      -8.149   5.186  65.260  1.00  0.00    -0.120 C  
HETATM   17  C   UNL     1      -9.077   2.760  65.131  1.00  0.00    -0.144 C  
HETATM   18  O   UNL     1      -9.576   4.412  63.467  1.00  0.00    -0.266 OA 
HETATM   19  C   UNL     1      -9.343   4.255  64.869  1.00  0.00    -0.165 C  
HETATM   20  C   UNL     1     -10.641   4.651  65.585  1.00  0.00    -0.241 C  
HETATM   21  H   UNL     1     -10.301   3.847  63.230  1.00  0.00     0.000 HD 
ENDBRANCH  15  16
ENDBRANCH   3  15
BRANCH  13  22
HETATM   22  C   UNL     1     -11.488  11.731  66.909  1.00  0.00    -0.364 C  
HETATM   23  C   UNL     1     -11.273  12.855  64.735  1.00  0.00    -0.336 C  
HETATM   24  C   UNL     1     -12.017  14.179  64.496  1.00  0.00    -0.458 C  
HETATM   25  C   UNL     1     -10.937  12.730  66.212  1.00  0.00    -0.307 C  
HETATM   26  O   UNL     1     -13.278  14.184  65.165  1.00  0.00    -0.743 OA 
HETATM   27  C   UNL     1     -11.170  15.364  64.966  1.00  0.00    -0.393 C  
HETATM   28  H   UNL     1     -13.737  15.002  65.018  1.00  0.00     0.000 HD 
HETATM   29  C   UNL     1     -10.725  15.227  66.426  1.00  0.00    -0.318 C  
HETATM   30  C   UNL     1     -10.175  13.851  66.736  1.00  0.00    -0.268 C  
HETATM   31  C   UNL     1      -9.001  13.671  67.378  1.00  0.00    -0.218 C  
ENDBRANCH  13  22
TORSDOF 3
ENDMDL
MODEL       12
REMARK 921   NORMALIZED FREE ENERGY PREDICTED BY IDOCK:   -7.22 KCAL/MOL
REMARK 922        TOTAL FREE ENERGY PREDICTED BY IDOCK:   -9.03 KCAL/MOL
REMARK 923 INTER-LIGAND FREE ENERGY PREDICTED BY IDOCK:   -7.96 KCAL/MOL
REMARK 924 INTRA-LIGAND FREE ENERGY PREDICTED BY IDOCK:   -1.07 KCAL/MOL
REMARK 927      BINDING AFFINITY PREDICTED BY RF-SCORE:    0.00 PKD
ROOT
HETATM    1  C   UNL     1     -10.378   9.340  67.297  1.00  0.00    -0.332 C  
HETATM    2  C   UNL     1     -10.665  10.553  68.214  1.00  0.00    -0.270 C  
HETATM    3  C   UNL     1     -10.929   9.927  69.656  1.00  0.00    -0.285 C  
HETATM    4  C   UNL     1     -11.778  11.573  67.668  1.00  0.00    -0.283 C  
HETATM    5  C   UNL     1     -12.019  12.700  68.685  1.00  0.00    -0.264 C  
HETATM    6  C   UNL     1     -11.417  12.403  66.326  1.00  0.00    -0.423 C  
HETATM    7  C   UNL     1     -11.118  13.856  68.277  1.00  0.00    -0.280 C  
HETATM    8  C   UNL     1     -12.619  13.036  65.551  1.00  0.00    -0.422 C  
HETATM    9  C   UNL     1     -12.126  13.863  64.333  1.00  0.00    -0.477 C  
HETATM   10  C   UNL     1     -10.532  13.562  66.872  1.00  0.00    -0.271 C  
HETATM   11  C   UNL     1     -10.491  14.856  66.053  1.00  0.00    -0.326 C  
HETATM   12  C   UNL     1     -10.757  11.481  65.313  1.00  0.00    -0.337 C  
HETATM   13  C   UNL     1     -10.033  16.049  66.511  1.00  0.00    -0.293 C  
HETATM   14  C   UNL     1     -10.936  14.777  64.617  1.00  0.00    -0.332 C  
ENDROOT
BRANCH   3  15
HETATM   15  C   UNL     1      -9.810   8.909  69.985  1.00  0.00    -0.188 C  
BRANCH  15  16
HETATM   16  C   UNL     1      -8.763   9.174  71.055  1.00  0.00    -0.251 C  
HETATM   17  C   UNL     1      -6.851   8.382  69.480  1.00  0.00    -0.041 C  
HETATM   18  O   UNL     1      -6.428   9.636  71.478  1.00  0.00    -0.291 OA 
HETATM   19  C   UNL     1      -7.371   9.491  70.415  1.00  0.00    -0.141 C  
HETATM   20  C   UNL     1      -7.382  10.815  69.641  1.00  0.00    -0.107 C  
HETATM   21  H   UNL     1      -5.583   9.828  71.090  1.00  0.00     0.000 HD 
ENDBRANCH  15  16
ENDBRANCH   3  15
BRANCH  13  22
HETATM   22  C   UNL     1      -9.129  16.189  67.626  1.00  0.00    -0.197 C  
HETATM   23  C   UNL     1      -7.260  17.234  68.831  1.00  0.00    -0.243 C  
HETATM   24  C   UNL     1      -6.190  18.001  68.038  1.00  0.00    -0.175 C  
HETATM   25  C   UNL     1      -8.586  17.318  68.092  1.00  0.00    -0.242 C  
HETATM   26  O   UNL     1      -5.950  17.385  66.773  1.00  0.00    -0.149 OA 
HETATM   27  C   UNL     1      -6.611  19.459  67.837  1.00  0.00    -0.258 C  
HETATM   28  H   UNL     1      -5.289  17.859  66.283  1.00  0.00     0.000 HD 
HETATM   29  C   UNL     1      -7.992  19.587  67.185  1.00  0.00    -0.298 C  
HETATM   30  C   UNL     1      -9.020  18.678  67.824  1.00  0.00    -0.301 C  
HETATM   31  C   UNL     1     -10.236  19.122  68.209  1.00  0.00    -0.486 C  
ENDBRANCH  13  22
TORSDOF 3
ENDMDL
MODEL       13
REMARK 921   NORMALIZED FREE ENERGY PREDICTED BY IDOCK:   -7.20 KCAL/MOL
REMARK 922        TOTAL FREE ENERGY PREDICTED BY IDOCK:   -9.00 KCAL/MOL
REMARK 923 INTER-LIGAND FREE ENERGY PREDICTED BY IDOCK:   -7.83 KCAL/MOL
REMARK 924 INTRA-LIGAND FREE ENERGY PREDICTED BY IDOCK:   -1.17 KCAL/MOL
REMARK 927      BINDING AFFINITY PREDICTED BY RF-SCORE:    0.00 PKD
ROOT
HETATM    1  C   UNL     1     -10.031   5.102  69.708  1.00  0.00    -0.313 C  
HETATM    2  C   UNL     1      -9.268   6.386  69.303  1.00  0.00    -0.135 C  
HETATM    3  C   UNL     1      -7.813   5.887  68.887  1.00  0.00    -0.095 C  
HETATM    4  C   UNL     1      -9.331   7.582  70.371  1.00  0.00    -0.161 C  
HETATM    5  C   UNL     1      -8.493   8.778  69.889  1.00  0.00    -0.131 C  
HETATM    6  C   UNL     1     -10.777   8.266  70.623  1.00  0.00    -0.240 C  
HETATM    7  C   UNL     1      -9.446   9.713  69.160  1.00  0.00    -0.172 C  
HETATM    8  C   UNL     1     -10.939   9.092  71.941  1.00  0.00    -0.423 C  
HETATM    9  C   UNL     1     -12.343   9.751  72.019  1.00  0.00    -0.336 C  
HETATM   10  C   UNL     1     -10.901   9.248  69.421  1.00  0.00    -0.184 C  
HETATM   11  C   UNL     1     -11.803  10.472  69.609  1.00  0.00    -0.306 C  
HETATM   12  C   UNL     1     -11.846   7.189  70.716  1.00  0.00    -0.367 C  
HETATM   13  C   UNL     1     -11.798  11.569  68.809  1.00  0.00    -0.394 C  
HETATM   14  C   UNL     1     -12.809  10.421  70.728  1.00  0.00    -0.450 C  
ENDROOT
BRANCH   3  15
HETATM   15  C   UNL     1      -7.940   4.683  67.924  1.00  0.00    -0.089 C  
BRANCH  15  16
HETATM   16  C   UNL     1      -7.868   4.842  66.414  1.00  0.00    -0.099 C  
HETATM   17  C   UNL     1      -9.152   2.610  66.047  1.00  0.00    -0.113 C  
HETATM   18  O   UNL     1      -8.873   4.229  64.301  1.00  0.00    -0.132 OA 
HETATM   19  C   UNL     1      -9.061   4.112  65.713  1.00  0.00    -0.136 C  
HETATM   20  C   UNL     1     -10.409   4.766  66.041  1.00  0.00    -0.328 C  
HETATM   21  H   UNL     1      -9.597   3.786  63.876  1.00  0.00     0.000 HD 
ENDBRANCH  15  16
ENDBRANCH   3  15
BRANCH  13  22
HETATM   22  C   UNL     1     -11.303  11.574  67.455  1.00  0.00    -0.367 C  
HETATM   23  C   UNL     1     -10.872  12.610  65.268  1.00  0.00    -0.319 C  
HETATM   24  C   UNL     1     -11.738  13.796  64.815  1.00  0.00    -0.381 C  
HETATM   25  C   UNL     1     -10.782  12.608  66.786  1.00  0.00    -0.261 C  
HETATM   26  O   UNL     1     -13.084  13.650  65.267  1.00  0.00    -0.735 OA 
HETATM   27  C   UNL     1     -11.154  15.115  65.329  1.00  0.00    -0.389 C  
HETATM   28  H   UNL     1     -13.619  14.383  64.988  1.00  0.00     0.000 HD 
HETATM   29  C   UNL     1     -10.953  15.116  66.848  1.00  0.00    -0.323 C  
HETATM   30  C   UNL     1     -10.282  13.852  67.344  1.00  0.00    -0.252 C  
HETATM   31  C   UNL     1      -9.222  13.878  68.180  1.00  0.00    -0.202 C  
ENDBRANCH  13  22
TORSDOF 3
ENDMDL
MODEL       14
REMARK 921   NORMALIZED FREE ENERGY PREDICTED BY IDOCK:   -7.19 KCAL/MOL
REMARK 922        TOTAL FREE ENERGY PREDICTED BY IDOCK:   -9.00 KCAL/MOL
REMARK 923 INTER-LIGAND FREE ENERGY PREDICTED BY IDOCK:   -8.10 KCAL/MOL
REMARK 924 INTRA-LIGAND FREE ENERGY PREDICTED BY IDOCK:   -0.90 KCAL/MOL
REMARK 927      BINDING AFFINITY PREDICTED BY RF-SCORE:    0.00 PKD
ROOT
HETATM    1  C   UNL     1      -8.057   5.554  69.856  1.00  0.00    -0.097 C  
HETATM    2  C   UNL     1      -9.396   5.978  69.207  1.00  0.00    -0.146 C  
HETATM    3  C   UNL     1     -10.516   5.185  70.017  1.00  0.00    -0.305 C  
HETATM    4  C   UNL     1      -9.450   5.848  67.608  1.00  0.00    -0.110 C  
HETATM    5  C   UNL     1     -10.842   6.239  67.084  1.00  0.00    -0.460 C  
HETATM    6  C   UNL     1      -8.484   6.831  66.759  1.00  0.00    -0.117 C  
HETATM    7  C   UNL     1     -10.770   7.713  66.712  1.00  0.00    -0.143 C  
HETATM    8  C   UNL     1      -8.197   6.420  65.278  1.00  0.00    -0.137 C  
HETATM    9  C   UNL     1      -7.322   7.484  64.561  1.00  0.00    -0.087 C  
HETATM   10  C   UNL     1      -9.287   8.165  66.742  1.00  0.00    -0.233 C  
HETATM   11  C   UNL     1      -9.022   9.125  65.578  1.00  0.00    -0.252 C  
HETATM   12  C   UNL     1      -7.111   6.889  67.409  1.00  0.00    -0.084 C  
HETATM   13  C   UNL     1      -9.822  10.167  65.235  1.00  0.00    -0.388 C  
HETATM   14  C   UNL     1      -7.747   8.931  64.801  1.00  0.00    -0.111 C  
ENDROOT
BRANCH   3  15
HETATM   15  C   UNL     1     -10.264   5.350  71.535  1.00  0.00    -0.280 C  
BRANCH  15  16
HETATM   16  C   UNL     1     -11.279   6.002  72.459  1.00  0.00    -0.333 C  
HETATM   17  C   UNL     1      -9.983   8.257  72.409  1.00  0.00    -0.379 C  
HETATM   18  O   UNL     1     -12.243   8.096  73.191  1.00  0.00    -0.645 OA 
HETATM   19  C   UNL     1     -11.340   7.548  72.229  1.00  0.00    -0.292 C  
HETATM   20  C   UNL     1     -11.893   7.903  70.843  1.00  0.00    -0.242 C  
HETATM   21  H   UNL     1     -12.280   9.034  73.052  1.00  0.00     0.000 HD 
ENDBRANCH  15  16
ENDBRANCH   3  15
BRANCH  13  22
HETATM   22  C   UNL     1     -10.757  10.793  66.137  1.00  0.00    -0.187 C  
HETATM   23  C   UNL     1     -11.761  12.722  67.282  1.00  0.00    -0.440 C  
HETATM   24  C   UNL     1     -10.933  14.004  67.461  1.00  0.00    -0.277 C  
HETATM   25  C   UNL     1     -11.308  12.006  66.019  1.00  0.00    -0.398 C  
HETATM   26  O   UNL     1      -9.557  13.698  67.682  1.00  0.00    -0.210 OA 
HETATM   27  C   UNL     1     -11.077  14.912  66.237  1.00  0.00    -0.340 C  
HETATM   28  H   UNL     1      -9.045  14.490  67.792  1.00  0.00     0.000 HD 
HETATM   29  C   UNL     1     -10.724  14.196  64.929  1.00  0.00    -0.444 C  
HETATM   30  C   UNL     1     -11.370  12.831  64.825  1.00  0.00    -0.346 C  
HETATM   31  C   UNL     1     -12.046  12.434  63.725  1.00  0.00    -0.618 C  
ENDBRANCH  13  22
TORSDOF 3
ENDMDL
MODEL       15
REMARK 921   NORMALIZED FREE ENERGY PREDICTED BY IDOCK:   -7.14 KCAL/MOL
REMARK 922        TOTAL FREE ENERGY PREDICTED BY IDOCK:   -8.93 KCAL/MOL
REMARK 923 INTER-LIGAND FREE ENERGY PREDICTED BY IDOCK:   -8.05 KCAL/MOL
REMARK 924 INTRA-LIGAND FREE ENERGY PREDICTED BY IDOCK:   -0.88 KCAL/MOL
REMARK 927      BINDING AFFINITY PREDICTED BY RF-SCORE:    0.00 PKD
ROOT
HETATM    1  C   UNL     1     -10.583   9.801  67.916  1.00  0.00    -0.310 C  
HETATM    2  C   UNL     1     -10.843  11.114  68.693  1.00  0.00    -0.251 C  
HETATM    3  C   UNL     1     -11.166  10.652  70.184  1.00  0.00    -0.378 C  
HETATM    4  C   UNL     1     -11.901  12.111  68.014  1.00  0.00    -0.351 C  
HETATM    5  C   UNL     1     -12.121  13.347  68.901  1.00  0.00    -0.289 C  
HETATM    6  C   UNL     1     -11.475  12.783  66.603  1.00  0.00    -0.404 C  
HETATM    7  C   UNL     1     -11.165  14.420  68.400  1.00  0.00    -0.294 C  
HETATM    8  C   UNL     1     -12.631  13.376  65.734  1.00  0.00    -0.455 C  
HETATM    9  C   UNL     1     -12.077  14.051  64.450  1.00  0.00    -0.486 C  
HETATM   10  C   UNL     1     -10.557  13.959  67.051  1.00  0.00    -0.279 C  
HETATM   11  C   UNL     1     -10.446  15.157  66.103  1.00  0.00    -0.320 C  
HETATM   12  C   UNL     1     -10.828  11.736  65.710  1.00  0.00    -0.341 C  
HETATM   13  C   UNL     1      -9.952  16.374  66.448  1.00  0.00    -0.318 C  
HETATM   14  C   UNL     1     -10.858  14.945  64.672  1.00  0.00    -0.296 C  
ENDROOT
BRANCH   3  15
HETATM   15  C   UNL     1     -10.098   9.634  70.648  1.00  0.00    -0.324 C  
BRANCH  15  16
HETATM   16  C   UNL     1     -10.468   8.309  71.295  1.00  0.00    -0.262 C  
HETATM   17  C   UNL     1      -8.573   7.072  70.013  1.00  0.00    -0.141 C  
HETATM   18  O   UNL     1      -9.678   6.108  71.910  1.00  0.00    -0.155 OA 
HETATM   19  C   UNL     1      -9.230   7.357  71.377  1.00  0.00    -0.141 C  
HETATM   20  C   UNL     1      -8.156   7.891  72.333  1.00  0.00    -0.167 C  
HETATM   21  H   UNL     1      -8.926   5.530  71.959  1.00  0.00     0.000 HD 
ENDBRANCH  15  16
ENDBRANCH   3  15
BRANCH  13  22
HETATM   22  C   UNL     1      -9.070  16.596  67.567  1.00  0.00    -0.204 C  
HETATM   23  C   UNL     1      -6.878  17.006  68.599  1.00  0.00    -0.187 C  
HETATM   24  C   UNL     1      -5.603  16.588  67.848  1.00  0.00    -0.120 C  
HETATM   25  C   UNL     1      -7.963  17.346  67.591  1.00  0.00    -0.199 C  
HETATM   26  O   UNL     1      -5.816  15.384  67.112  1.00  0.00    -0.305 OA 
HETATM   27  C   UNL     1      -5.143  17.703  66.907  1.00  0.00    -0.170 C  
HETATM   28  H   UNL     1      -5.029  15.126  66.647  1.00  0.00     0.000 HD 
HETATM   29  C   UNL     1      -6.245  18.146  65.938  1.00  0.00    -0.280 C  
HETATM   30  C   UNL     1      -7.572  18.365  66.632  1.00  0.00    -0.259 C  
HETATM   31  C   UNL     1      -8.308  19.483  66.447  1.00  0.00    -0.364 C  
ENDBRANCH  13  22
TORSDOF 3
ENDMDL
MODEL       16
REMARK 921   NORMALIZED FREE ENERGY PREDICTED BY IDOCK:   -7.07 KCAL/MOL
REMARK 922        TOTAL FREE ENERGY PREDICTED BY IDOCK:   -8.85 KCAL/MOL
REMARK 923 INTER-LIGAND FREE ENERGY PREDICTED BY IDOCK:   -7.41 KCAL/MOL
REMARK 924 INTRA-LIGAND FREE ENERGY PREDICTED BY IDOCK:   -1.44 KCAL/MOL
REMARK 927      BINDING AFFINITY PREDICTED BY RF-SCORE:    0.00 PKD
ROOT
HETATM    1  C   UNL     1      -8.065   6.569  70.163  1.00  0.00    -0.121 C  
HETATM    2  C   UNL     1      -9.151   6.824  69.091  1.00  0.00    -0.138 C  
HETATM    3  C   UNL     1     -10.288   5.749  69.392  1.00  0.00    -0.332 C  
HETATM    4  C   UNL     1      -8.616   6.889  67.580  1.00  0.00    -0.121 C  
HETATM    5  C   UNL     1      -9.786   7.087  66.603  1.00  0.00    -0.223 C  
HETATM    6  C   UNL     1      -7.646   8.128  67.197  1.00  0.00    -0.096 C  
HETATM    7  C   UNL     1      -9.904   8.584  66.361  1.00  0.00    -0.327 C  
HETATM    8  C   UNL     1      -6.780   7.964  65.905  1.00  0.00    -0.049 C  
HETATM    9  C   UNL     1      -5.958   9.249  65.616  1.00  0.00    -0.055 C  
HETATM   10  C   UNL     1      -8.657   9.287  66.955  1.00  0.00    -0.128 C  
HETATM   11  C   UNL     1      -8.213  10.418  66.022  1.00  0.00    -0.144 C  
HETATM   12  C   UNL     1      -6.632   8.349  68.307  1.00  0.00    -0.060 C  
HETATM   13  C   UNL     1      -9.046  11.334  65.464  1.00  0.00    -0.184 C  
HETATM   14  C   UNL     1      -6.738  10.555  65.758  1.00  0.00    -0.123 C  
ENDROOT
BRANCH   3  15
HETATM   15  C   UNL     1     -10.621   5.764  70.903  1.00  0.00    -0.329 C  
BRANCH  15  16
HETATM   16  C   UNL     1     -11.821   6.513  71.460  1.00  0.00    -0.386 C  
HETATM   17  C   UNL     1     -10.516   7.140  73.621  1.00  0.00    -0.412 C  
HETATM   18  O   UNL     1     -12.552   8.236  72.991  1.00  0.00    -0.680 OA 
HETATM   19  C   UNL     1     -11.373   7.644  72.444  1.00  0.00    -0.329 C  
HETATM   20  C   UNL     1     -10.603   8.760  71.725  1.00  0.00    -0.417 C  
HETATM   21  H   UNL     1     -12.280   8.923  73.588  1.00  0.00     0.000 HD 
ENDBRANCH  15  16
ENDBRANCH   3  15
BRANCH  13  22
HETATM   22  C   UNL     1     -10.347  11.665  65.991  1.00  0.00    -0.283 C  
HETATM   23  C   UNL     1     -11.867  12.736  67.597  1.00  0.00    -0.396 C  
HETATM   24  C   UNL     1     -11.357  13.071  69.007  1.00  0.00    -0.289 C  
HETATM   25  C   UNL     1     -10.705  12.790  66.619  1.00  0.00    -0.279 C  
HETATM   26  O   UNL     1     -10.439  12.080  69.467  1.00  0.00    -0.419 OA 
HETATM   27  C   UNL     1     -10.691  14.449  69.026  1.00  0.00    -0.261 C  
HETATM   28  H   UNL     1     -10.123  12.286  70.339  1.00  0.00     0.000 HD 
HETATM   29  C   UNL     1      -9.577  14.577  67.982  1.00  0.00    -0.217 C  
HETATM   30  C   UNL     1      -9.995  14.057  66.623  1.00  0.00    -0.280 C  
HETATM   31  C   UNL     1      -9.807  14.767  65.489  1.00  0.00    -0.336 C  
ENDBRANCH  13  22
TORSDOF 3
ENDMDL
MODEL       17
REMARK 921   NORMALIZED FREE ENERGY PREDICTED BY IDOCK:   -7.02 KCAL/MOL
REMARK 922        TOTAL FREE ENERGY PREDICTED BY IDOCK:   -8.79 KCAL/MOL
REMARK 923 INTER-LIGAND FREE ENERGY PREDICTED BY IDOCK:   -7.92 KCAL/MOL
REMARK 924 INTRA-LIGAND FREE ENERGY PREDICTED BY IDOCK:   -0.87 KCAL/MOL
REMARK 927      BINDING AFFINITY PREDICTED BY RF-SCORE:    0.00 PKD
ROOT
HETATM    1  C   UNL     1     -10.337  14.581  65.260  1.00  0.00    -0.435 C  
HETATM    2  C   UNL     1      -9.776  14.084  66.613  1.00  0.00    -0.296 C  
HETATM    3  C   UNL     1      -9.323  15.404  67.382  1.00  0.00    -0.205 C  
HETATM    4  C   UNL     1      -8.684  12.912  66.510  1.00  0.00     0.039 C  
HETATM    5  C   UNL     1      -8.158  12.542  67.906  1.00  0.00    -0.163 C  
HETATM    6  C   UNL     1      -9.195  11.480  65.955  1.00  0.00    -0.223 C  
HETATM    7  C   UNL     1      -9.001  11.374  68.395  1.00  0.00    -0.172 C  
HETATM    8  C   UNL     1      -8.094  10.498  65.435  1.00  0.00    -0.141 C  
HETATM    9  C   UNL     1      -8.713   9.141  65.004  1.00  0.00    -0.222 C  
HETATM   10  C   UNL     1      -9.853  10.842  67.214  1.00  0.00    -0.202 C  
HETATM   11  C   UNL     1      -9.912   9.313  67.273  1.00  0.00    -0.264 C  
HETATM   12  C   UNL     1     -10.111  11.689  64.759  1.00  0.00    -0.304 C  
HETATM   13  C   UNL     1     -10.163   8.590  68.394  1.00  0.00    -0.236 C  
HETATM   14  C   UNL     1      -9.739   8.566  65.978  1.00  0.00    -0.195 C  
ENDROOT
BRANCH   3  15
HETATM   15  C   UNL     1     -10.458  16.453  67.312  1.00  0.00    -0.303 C  
BRANCH  15  16
HETATM   16  C   UNL     1     -10.699  17.462  68.424  1.00  0.00    -0.301 C  
HETATM   17  C   UNL     1      -8.479  18.702  67.875  1.00  0.00    -0.297 C  
HETATM   18  O   UNL     1     -10.192  19.682  69.236  1.00  0.00    -0.629 OA 
HETATM   19  C   UNL     1      -9.997  18.824  68.110  1.00  0.00    -0.366 C  
HETATM   20  C   UNL     1     -10.622  19.527  66.897  1.00  0.00    -0.602 C  
HETATM   21  H   UNL     1      -9.766  20.509  69.045  1.00  0.00     0.000 HD 
ENDBRANCH  15  16
ENDBRANCH   3  15
BRANCH  13  22
HETATM   22  C   UNL     1     -10.837   9.115  69.556  1.00  0.00    -0.194 C  
HETATM   23  C   UNL     1     -11.681   8.990  71.861  1.00  0.00    -0.445 C  
HETATM   24  C   UNL     1     -11.963   7.614  72.484  1.00  0.00    -0.214 C  
HETATM   25  C   UNL     1     -10.563   8.856  70.839  1.00  0.00    -0.295 C  
HETATM   26  O   UNL     1     -12.462   6.702  71.505  1.00  0.00    -0.344 OA 
HETATM   27  C   UNL     1     -10.698   7.046  73.130  1.00  0.00    -0.359 C  
HETATM   28  H   UNL     1     -12.637   5.852  71.890  1.00  0.00     0.000 HD 
HETATM   29  C   UNL     1      -9.516   6.988  72.157  1.00  0.00    -0.150 C  
HETATM   30  C   UNL     1      -9.346   8.274  71.376  1.00  0.00    -0.223 C  
HETATM   31  C   UNL     1      -8.153   8.897  71.263  1.00  0.00    -0.185 C  
ENDBRANCH  13  22
TORSDOF 3
ENDMDL
MODEL       18
REMARK 921   NORMALIZED FREE ENERGY PREDICTED BY IDOCK:   -6.81 KCAL/MOL
REMARK 922        TOTAL FREE ENERGY PREDICTED BY IDOCK:   -8.54 KCAL/MOL
REMARK 923 INTER-LIGAND FREE ENERGY PREDICTED BY IDOCK:   -7.84 KCAL/MOL
REMARK 924 INTRA-LIGAND FREE ENERGY PREDICTED BY IDOCK:   -0.71 KCAL/MOL
REMARK 927      BINDING AFFINITY PREDICTED BY RF-SCORE:    0.00 PKD
ROOT
HETATM    1  C   UNL     1      -9.739   9.912  65.548  1.00  0.00    -0.370 C  
HETATM    2  C   UNL     1     -10.080  10.733  66.814  1.00  0.00    -0.267 C  
HETATM    3  C   UNL     1     -10.162   9.662  67.991  1.00  0.00    -0.235 C  
HETATM    4  C   UNL     1     -11.334  11.725  66.668  1.00  0.00    -0.381 C  
HETATM    5  C   UNL     1     -11.612  12.440  68.000  1.00  0.00    -0.403 C  
HETATM    6  C   UNL     1     -11.168  12.971  65.647  1.00  0.00    -0.310 C  
HETATM    7  C   UNL     1     -10.873  13.769  67.945  1.00  0.00    -0.257 C  
HETATM    8  C   UNL     1     -12.487  13.658  65.164  1.00  0.00    -0.488 C  
HETATM    9  C   UNL     1     -12.182  14.878  64.254  1.00  0.00    -0.365 C  
HETATM   10  C   UNL     1     -10.370  14.003  66.497  1.00  0.00    -0.285 C  
HETATM   11  C   UNL     1     -10.531  15.482  66.132  1.00  0.00    -0.323 C  
HETATM   12  C   UNL     1     -10.496  12.500  64.367  1.00  0.00    -0.384 C  
HETATM   13  C   UNL     1     -10.168  16.520  66.927  1.00  0.00    -0.296 C  
HETATM   14  C   UNL     1     -11.076  15.799  64.765  1.00  0.00    -0.413 C  
ENDROOT
BRANCH   3  15
HETATM   15  C   UNL     1      -8.920   8.741  67.933  1.00  0.00    -0.142 C  
BRANCH  15  16
HETATM   16  C   UNL     1      -9.037   7.228  67.841  1.00  0.00    -0.132 C  
HETATM   17  C   UNL     1      -6.526   7.001  67.205  1.00  0.00    -0.053 C  
HETATM   18  O   UNL     1      -7.835   5.132  67.940  1.00  0.00    -0.090 OA 
HETATM   19  C   UNL     1      -7.665   6.538  68.134  1.00  0.00    -0.105 C  
HETATM   20  C   UNL     1      -7.218   6.738  69.588  1.00  0.00    -0.081 C  
HETATM   21  H   UNL     1      -7.001   4.713  68.117  1.00  0.00     0.000 HD 
ENDBRANCH  15  16
ENDBRANCH   3  15
BRANCH  13  22
HETATM   22  C   UNL     1      -9.198  16.418  67.990  1.00  0.00    -0.204 C  
HETATM   23  C   UNL     1      -7.156  17.083  69.183  1.00  0.00    -0.221 C  
HETATM   24  C   UNL     1      -6.039  17.808  68.415  1.00  0.00    -0.174 C  
HETATM   25  C   UNL     1      -8.496  17.411  68.545  1.00  0.00    -0.274 C  
HETATM   26  O   UNL     1      -5.942  17.324  67.076  1.00  0.00    -0.132 OA 
HETATM   27  C   UNL     1      -6.286  19.319  68.409  1.00  0.00    -0.254 C  
HETATM   28  H   UNL     1      -5.252  17.773  66.602  1.00  0.00     0.000 HD 
HETATM   29  C   UNL     1      -7.670  19.687  67.865  1.00  0.00    -0.331 C  
HETATM   30  C   UNL     1      -8.771  18.835  68.461  1.00  0.00    -0.380 C  
HETATM   31  C   UNL     1      -9.901  19.370  68.971  1.00  0.00    -0.487 C  
ENDBRANCH  13  22
TORSDOF 3
ENDMDL
MODEL       19
REMARK 921   NORMALIZED FREE ENERGY PREDICTED BY IDOCK:   -6.69 KCAL/MOL
REMARK 922        TOTAL FREE ENERGY PREDICTED BY IDOCK:   -8.41 KCAL/MOL
REMARK 923 INTER-LIGAND FREE ENERGY PREDICTED BY IDOCK:   -7.96 KCAL/MOL
REMARK 924 INTRA-LIGAND FREE ENERGY PREDICTED BY IDOCK:   -0.45 KCAL/MOL
REMARK 927      BINDING AFFINITY PREDICTED BY RF-SCORE:    0.00 PKD
ROOT
HETATM    1  C   UNL     1     -10.214   4.970  69.948  1.00  0.00    -0.340 C  
HETATM    2  C   UNL     1      -9.377   6.145  69.391  1.00  0.00    -0.147 C  
HETATM    3  C   UNL     1      -7.962   5.507  69.027  1.00  0.00    -0.095 C  
HETATM    4  C   UNL     1      -9.348   7.459  70.312  1.00  0.00    -0.162 C  
HETATM    5  C   UNL     1      -8.441   8.533  69.688  1.00  0.00    -0.130 C  
HETATM    6  C   UNL     1     -10.743   8.261  70.491  1.00  0.00    -0.238 C  
HETATM    7  C   UNL     1      -9.342   9.437  68.860  1.00  0.00    -0.154 C  
HETATM    8  C   UNL     1     -10.834   9.243  71.704  1.00  0.00    -0.418 C  
HETATM    9  C   UNL     1     -12.191   9.997  71.713  1.00  0.00    -0.383 C  
HETATM   10  C   UNL     1     -10.821   9.102  69.183  1.00  0.00    -0.131 C  
HETATM   11  C   UNL     1     -11.640  10.396  69.232  1.00  0.00    -0.246 C  
HETATM   12  C   UNL     1     -11.878   7.274  70.717  1.00  0.00    -0.324 C  
HETATM   13  C   UNL     1     -11.576  11.389  68.309  1.00  0.00    -0.376 C  
HETATM   14  C   UNL     1     -12.631  10.542  70.355  1.00  0.00    -0.364 C  
ENDROOT
BRANCH   3  15
HETATM   15  C   UNL     1      -8.180   4.210  68.213  1.00  0.00    -0.091 C  
BRANCH  15  16
HETATM   16  C   UNL     1      -9.194   4.122  67.084  1.00  0.00    -0.176 C  
HETATM   17  C   UNL     1      -7.453   3.000  65.511  1.00  0.00    -0.073 C  
HETATM   18  O   UNL     1      -9.805   2.973  65.045  1.00  0.00    -0.341 OA 
HETATM   19  C   UNL     1      -8.866   2.933  66.122  1.00  0.00    -0.143 C  
HETATM   20  C   UNL     1      -9.034   1.572  66.811  1.00  0.00    -0.111 C  
HETATM   21  H   UNL     1      -9.605   2.251  64.462  1.00  0.00     0.000 HD 
ENDBRANCH  15  16
ENDBRANCH   3  15
BRANCH  13  22
HETATM   22  C   UNL     1     -11.100  11.204  66.960  1.00  0.00    -0.339 C  
HETATM   23  C   UNL     1     -10.976  11.761  64.570  1.00  0.00    -0.382 C  
HETATM   24  C   UNL     1     -12.140  12.520  63.914  1.00  0.00    -0.498 C  
HETATM   25  C   UNL     1     -10.891  12.149  66.037  1.00  0.00    -0.318 C  
HETATM   26  O   UNL     1     -13.391  12.123  64.476  1.00  0.00    -0.691 OA 
HETATM   27  C   UNL     1     -11.953  14.031  64.069  1.00  0.00    -0.388 C  
HETATM   28  H   UNL     1     -14.110  12.592  64.070  1.00  0.00     0.000 HD 
HETATM   29  C   UNL     1     -11.762  14.452  65.530  1.00  0.00    -0.352 C  
HETATM   30  C   UNL     1     -10.763  13.579  66.258  1.00  0.00    -0.288 C  
HETATM   31  C   UNL     1      -9.754  14.095  66.994  1.00  0.00    -0.258 C  
ENDBRANCH  13  22
TORSDOF 3
ENDMDL
MODEL       20
REMARK 921   NORMALIZED FREE ENERGY PREDICTED BY IDOCK:   -6.69 KCAL/MOL
REMARK 922        TOTAL FREE ENERGY PREDICTED BY IDOCK:   -8.40 KCAL/MOL
REMARK 923 INTER-LIGAND FREE ENERGY PREDICTED BY IDOCK:   -6.59 KCAL/MOL
REMARK 924 INTRA-LIGAND FREE ENERGY PREDICTED BY IDOCK:   -1.81 KCAL/MOL
REMARK 927      BINDING AFFINITY PREDICTED BY RF-SCORE:    0.00 PKD
ROOT
HETATM    1  C   UNL     1     -10.034   9.382  65.929  1.00  0.00    -0.327 C  
HETATM    2  C   UNL     1      -8.983   9.272  67.060  1.00  0.00    -0.142 C  
HETATM    3  C   UNL     1      -8.178  10.647  67.009  1.00  0.00    -0.124 C  
HETATM    4  C   UNL     1      -8.101   7.932  67.044  1.00  0.00    -0.116 C  
HETATM    5  C   UNL     1      -7.058   7.961  68.173  1.00  0.00    -0.089 C  
HETATM    6  C   UNL     1      -8.876   6.541  67.340  1.00  0.00    -0.115 C  
HETATM    7  C   UNL     1      -7.679   7.241  69.361  1.00  0.00    -0.107 C  
HETATM    8  C   UNL     1      -8.150   5.229  66.895  1.00  0.00    -0.104 C  
HETATM    9  C   UNL     1      -8.965   3.972  67.304  1.00  0.00    -0.148 C  
HETATM   10  C   UNL     1      -8.976   6.532  68.894  1.00  0.00    -0.128 C  
HETATM   11  C   UNL     1      -9.087   5.166  69.579  1.00  0.00    -0.145 C  
HETATM   12  C   UNL     1     -10.196   6.517  66.587  1.00  0.00    -0.209 C  
HETATM   13  C   UNL     1      -8.883   4.944  70.903  1.00  0.00    -0.155 C  
HETATM   14  C   UNL     1      -9.516   4.001  68.728  1.00  0.00    -0.226 C  
ENDROOT
BRANCH   3  15
HETATM   15  C   UNL     1      -9.179  11.825  66.945  1.00  0.00    -0.189 C  
BRANCH  15  16
HETATM   16  C   UNL     1      -9.539  12.650  68.171  1.00  0.00    -0.219 C  
HETATM   17  C   UNL     1     -11.863  13.254  67.169  1.00  0.00    -0.424 C  
HETATM   18  O   UNL     1     -11.349  13.563  69.490  1.00  0.00    -0.354 OA 
HETATM   19  C   UNL     1     -11.089  12.700  68.381  1.00  0.00    -0.265 C  
HETATM   20  C   UNL     1     -11.666  11.324  68.738  1.00  0.00    -0.405 C  
HETATM   21  H   UNL     1     -12.290  13.593  69.617  1.00  0.00     0.000 HD 
ENDBRANCH  15  16
ENDBRANCH   3  15
BRANCH  13  22
HETATM   22  C   UNL     1      -8.976   5.969  71.913  1.00  0.00    -0.138 C  
HETATM   23  C   UNL     1     -10.037   7.898  73.006  1.00  0.00    -0.384 C  
HETATM   24  C   UNL     1     -10.970   8.805  72.188  1.00  0.00    -0.334 C  
HETATM   25  C   UNL     1     -10.090   6.487  72.441  1.00  0.00    -0.187 C  
HETATM   26  O   UNL     1     -10.515   8.927  70.841  1.00  0.00    -0.205 OA 
HETATM   27  C   UNL     1     -12.402   8.262  72.209  1.00  0.00    -0.410 C  
HETATM   28  H   UNL     1     -11.091   9.487  70.336  1.00  0.00     0.000 HD 
HETATM   29  C   UNL     1     -12.485   6.806  71.741  1.00  0.00    -0.394 C  
HETATM   30  C   UNL     1     -11.431   5.930  72.385  1.00  0.00    -0.358 C  
HETATM   31  C   UNL     1     -11.729   4.744  72.958  1.00  0.00    -0.190 C  
ENDBRANCH  13  22
TORSDOF 3
ENDMDL
MODEL       21
REMARK 921   NORMALIZED FREE ENERGY PREDICTED BY IDOCK:   -6.67 KCAL/MOL
REMARK 922        TOTAL FREE ENERGY PREDICTED BY IDOCK:   -8.39 KCAL/MOL
REMARK 923 INTER-LIGAND FREE ENERGY PREDICTED BY IDOCK:   -7.82 KCAL/MOL
REMARK 924 INTRA-LIGAND FREE ENERGY PREDICTED BY IDOCK:   -0.56 KCAL/MOL
REMARK 927      BINDING AFFINITY PREDICTED BY RF-SCORE:    0.00 PKD
ROOT
HETATM    1  C   UNL     1     -12.368  13.959  70.124  1.00  0.00    -0.400 C  
HETATM    2  C   UNL     1     -11.591  12.818  69.424  1.00  0.00    -0.361 C  
HETATM    3  C   UNL     1     -11.104  13.440  68.040  1.00  0.00    -0.281 C  
HETATM    4  C   UNL     1     -12.368  11.416  69.338  1.00  0.00    -0.184 C  
HETATM    5  C   UNL     1     -11.526  10.381  68.575  1.00  0.00    -0.231 C  
HETATM    6  C   UNL     1     -12.655  10.650  70.736  1.00  0.00    -0.479 C  
HETATM    7  C   UNL     1     -10.744   9.599  69.619  1.00  0.00    -0.260 C  
HETATM    8  C   UNL     1     -13.768   9.552  70.714  1.00  0.00     0.132 C  
HETATM    9  C   UNL     1     -13.887   8.849  72.093  1.00  0.00    -0.531 C  
HETATM   10  C   UNL     1     -11.294   9.950  71.025  1.00  0.00    -0.460 C  
HETATM   11  C   UNL     1     -11.328   8.688  71.891  1.00  0.00    -0.417 C  
HETATM   12  C   UNL     1     -13.127  11.647  71.782  1.00  0.00    -0.487 C  
HETATM   13  C   UNL     1     -10.313   7.793  71.997  1.00  0.00    -0.267 C  
HETATM   14  C   UNL     1     -12.555   8.462  72.733  1.00  0.00    -0.091 C  
ENDROOT
BRANCH   3  15
HETATM   15  C   UNL     1     -10.456  14.821  68.299  1.00  0.00    -0.241 C  
BRANCH  15  16
HETATM   16  C   UNL     1     -10.818  16.051  67.484  1.00  0.00    -0.292 C  
HETATM   17  C   UNL     1      -8.495  16.047  66.313  1.00  0.00    -0.337 C  
HETATM   18  O   UNL     1     -10.350  17.311  65.473  1.00  0.00    -0.614 OA 
HETATM   19  C   UNL     1     -10.025  16.088  66.136  1.00  0.00    -0.325 C  
HETATM   20  C   UNL     1     -10.436  14.947  65.196  1.00  0.00    -0.442 C  
HETATM   21  H   UNL     1      -9.869  17.333  64.655  1.00  0.00     0.000 HD 
ENDBRANCH  15  16
ENDBRANCH   3  15
BRANCH  13  22
HETATM   22  C   UNL     1      -8.936   8.099  71.693  1.00  0.00    -0.212 C  
HETATM   23  C   UNL     1      -6.538   8.219  72.214  1.00  0.00    -0.083 C  
HETATM   24  C   UNL     1      -6.090   8.286  73.683  1.00  0.00    -0.106 C  
HETATM   25  C   UNL     1      -7.848   7.453  72.126  1.00  0.00    -0.095 C  
HETATM   26  O   UNL     1      -7.015   9.041  74.466  1.00  0.00    -0.387 OA 
HETATM   27  C   UNL     1      -5.940   6.878  74.265  1.00  0.00    -0.070 C  
HETATM   28  H   UNL     1      -6.739   9.082  75.373  1.00  0.00     0.000 HD 
HETATM   29  C   UNL     1      -7.211   6.037  74.104  1.00  0.00    -0.088 C  
HETATM   30  C   UNL     1      -7.789   6.123  72.707  1.00  0.00    -0.106 C  
HETATM   31  C   UNL     1      -8.142   5.026  72.004  1.00  0.00    -0.112 C  
ENDBRANCH  13  22
TORSDOF 3
ENDMDL
MODEL       22
REMARK 921   NORMALIZED FREE ENERGY PREDICTED BY IDOCK:   -6.67 KCAL/MOL
REMARK 922        TOTAL FREE ENERGY PREDICTED BY IDOCK:   -8.38 KCAL/MOL
REMARK 923 INTER-LIGAND FREE ENERGY PREDICTED BY IDOCK:   -7.45 KCAL/MOL
REMARK 924 INTRA-LIGAND FREE ENERGY PREDICTED BY IDOCK:   -0.93 KCAL/MOL
REMARK 927      BINDING AFFINITY PREDICTED BY RF-SCORE:    0.00 PKD
ROOT
HETATM    1  C   UNL     1     -12.397  15.441  68.259  1.00  0.00     0.410 C  
HETATM    2  C   UNL     1     -11.105  14.676  68.631  1.00  0.00    -0.276 C  
HETATM    3  C   UNL     1     -10.437  15.535  69.795  1.00  0.00    -0.308 C  
HETATM    4  C   UNL     1     -10.156  14.297  67.393  1.00  0.00    -0.247 C  
HETATM    5  C   UNL     1      -8.882  13.594  67.888  1.00  0.00    -0.188 C  
HETATM    6  C   UNL     1     -10.736  13.228  66.324  1.00  0.00    -0.293 C  
HETATM    7  C   UNL     1      -9.152  12.099  67.815  1.00  0.00    -0.189 C  
HETATM    8  C   UNL     1     -10.041  13.193  64.923  1.00  0.00    -0.236 C  
HETATM    9  C   UNL     1     -10.643  12.077  64.028  1.00  0.00    -0.423 C  
HETATM   10  C   UNL     1     -10.467  11.865  67.028  1.00  0.00    -0.253 C  
HETATM   11  C   UNL     1     -10.314  10.633  66.131  1.00  0.00    -0.291 C  
HETATM   12  C   UNL     1     -12.191  13.544  66.018  1.00  0.00    -0.493 C  
HETATM   13  C   UNL     1      -9.788   9.446  66.527  1.00  0.00    -0.325 C  
HETATM   14  C   UNL     1     -10.845  10.734  64.726  1.00  0.00    -0.046 C  
ENDROOT
BRANCH   3  15
HETATM   15  C   UNL     1     -11.509  15.879  70.857  1.00  0.00    -0.444 C  
BRANCH  15  16
HETATM   16  C   UNL     1     -11.395  15.418  72.301  1.00  0.00    -0.421 C  
HETATM   17  C   UNL     1     -13.935  15.815  72.701  1.00  0.00    -0.557 C  
HETATM   18  O   UNL     1     -12.591  14.509  74.197  1.00  0.00    -0.386 OA 
HETATM   19  C   UNL     1     -12.752  14.833  72.814  1.00  0.00    -0.399 C  
HETATM   20  C   UNL     1     -13.129  13.534  72.091  1.00  0.00    -0.487 C  
HETATM   21  H   UNL     1     -13.415  14.154  74.508  1.00  0.00     0.000 HD 
ENDBRANCH  15  16
ENDBRANCH   3  15
BRANCH  13  22
HETATM   22  C   UNL     1      -9.716   9.018  67.903  1.00  0.00    -0.185 C  
HETATM   23  C   UNL     1      -9.700   7.330  69.688  1.00  0.00    -0.159 C  
HETATM   24  C   UNL     1     -10.354   5.962  69.435  1.00  0.00    -0.247 C  
HETATM   25  C   UNL     1      -9.181   7.886  68.372  1.00  0.00    -0.134 C  
HETATM   26  O   UNL     1     -11.509   6.093  68.606  1.00  0.00    -0.394 OA 
HETATM   27  C   UNL     1      -9.354   4.998  68.792  1.00  0.00    -0.175 C  
HETATM   28  H   UNL     1     -11.913   5.248  68.450  1.00  0.00     0.000 HD 
HETATM   29  C   UNL     1      -8.731   5.566  67.512  1.00  0.00    -0.107 C  
HETATM   30  C   UNL     1      -8.264   6.996  67.682  1.00  0.00    -0.117 C  
HETATM   31  C   UNL     1      -7.033   7.403  67.302  1.00  0.00    -0.083 C  
ENDBRANCH  13  22
TORSDOF 3
ENDMDL
MODEL       23
REMARK 921   NORMALIZED FREE ENERGY PREDICTED BY IDOCK:   -6.62 KCAL/MOL
REMARK 922        TOTAL FREE ENERGY PREDICTED BY IDOCK:   -8.33 KCAL/MOL
REMARK 923 INTER-LIGAND FREE ENERGY PREDICTED BY IDOCK:   -6.82 KCAL/MOL
REMARK 924 INTRA-LIGAND FREE ENERGY PREDICTED BY IDOCK:   -1.50 KCAL/MOL
REMARK 927      BINDING AFFINITY PREDICTED BY RF-SCORE:    0.00 PKD
ROOT
HETATM    1  C   UNL     1     -10.004   9.771  65.532  1.00  0.00    -0.329 C  
HETATM    2  C   UNL     1      -9.117  10.029  66.774  1.00  0.00    -0.159 C  
HETATM    3  C   UNL     1      -8.791  11.588  66.731  1.00  0.00    -0.183 C  
HETATM    4  C   UNL     1      -7.860   9.044  66.930  1.00  0.00    -0.101 C  
HETATM    5  C   UNL     1      -7.024   9.430  68.161  1.00  0.00    -0.075 C  
HETATM    6  C   UNL     1      -8.182   7.484  67.220  1.00  0.00    -0.115 C  
HETATM    7  C   UNL     1      -7.522   8.572  69.315  1.00  0.00    -0.082 C  
HETATM    8  C   UNL     1      -7.029   6.467  66.932  1.00  0.00    -0.068 C  
HETATM    9  C   UNL     1      -7.445   5.023  67.323  1.00  0.00    -0.083 C  
HETATM   10  C   UNL     1      -8.461   7.474  68.752  1.00  0.00    -0.129 C  
HETATM   11  C   UNL     1      -8.214   6.159  69.499  1.00  0.00    -0.116 C  
HETATM   12  C   UNL     1      -9.326   7.021  66.332  1.00  0.00    -0.182 C  
HETATM   13  C   UNL     1      -8.111   6.041  70.848  1.00  0.00    -0.121 C  
HETATM   14  C   UNL     1      -8.145   4.901  68.675  1.00  0.00    -0.084 C  
ENDROOT
BRANCH   3  15
HETATM   15  C   UNL     1     -10.099  12.379  66.492  1.00  0.00    -0.246 C  
BRANCH  15  16
HETATM   16  C   UNL     1     -10.106  13.755  65.846  1.00  0.00    -0.325 C  
HETATM   17  C   UNL     1     -11.183  12.809  63.675  1.00  0.00    -0.482 C  
HETATM   18  O   UNL     1     -11.135  15.155  64.164  1.00  0.00    -0.614 OA 
HETATM   19  C   UNL     1     -11.251  13.874  64.787  1.00  0.00    -0.369 C  
HETATM   20  C   UNL     1     -12.641  13.815  65.432  1.00  0.00    -0.534 C  
HETATM   21  H   UNL     1     -11.830  15.228  63.521  1.00  0.00     0.000 HD 
ENDBRANCH  15  16
ENDBRANCH   3  15
BRANCH  13  22
HETATM   22  C   UNL     1      -8.646   7.001  71.782  1.00  0.00    -0.114 C  
HETATM   23  C   UNL     1     -10.374   8.535  72.620  1.00  0.00    -0.235 C  
HETATM   24  C   UNL     1     -11.406   9.113  71.638  1.00  0.00    -0.376 C  
HETATM   25  C   UNL     1      -9.927   7.168  72.127  1.00  0.00    -0.183 C  
HETATM   26  O   UNL     1     -10.818   9.352  70.360  1.00  0.00    -0.232 OA 
HETATM   27  C   UNL     1     -12.601   8.167  71.496  1.00  0.00    -0.326 C  
HETATM   28  H   UNL     1     -11.456   9.709  69.753  1.00  0.00     0.000 HD 
HETATM   29  C   UNL     1     -12.183   6.748  71.098  1.00  0.00    -0.413 C  
HETATM   30  C   UNL     1     -11.021   6.234  71.922  1.00  0.00    -0.302 C  
HETATM   31  C   UNL     1     -11.036   5.019  72.511  1.00  0.00    -0.241 C  
ENDBRANCH  13  22
TORSDOF 3
ENDMDL
MODEL       24
REMARK 921   NORMALIZED FREE ENERGY PREDICTED BY IDOCK:   -6.58 KCAL/MOL
REMARK 922        TOTAL FREE ENERGY PREDICTED BY IDOCK:   -8.27 KCAL/MOL
REMARK 923 INTER-LIGAND FREE ENERGY PREDICTED BY IDOCK:   -6.89 KCAL/MOL
REMARK 924 INTRA-LIGAND FREE ENERGY PREDICTED BY IDOCK:   -1.38 KCAL/MOL
REMARK 927      BINDING AFFINITY PREDICTED BY RF-SCORE:    0.00 PKD
ROOT
HETATM    1  C   UNL     1      -9.105  11.645  68.414  1.00  0.00    -0.180 C  
HETATM    2  C   UNL     1     -10.243  10.610  68.583  1.00  0.00    -0.196 C  
HETATM    3  C   UNL     1     -11.537  11.317  67.978  1.00  0.00    -0.343 C  
HETATM    4  C   UNL     1     -10.394   9.996  70.059  1.00  0.00    -0.323 C  
HETATM    5  C   UNL     1     -11.587   9.029  70.119  1.00  0.00    -0.007 C  
HETATM    6  C   UNL     1      -9.181   9.066  70.593  1.00  0.00    -0.279 C  
HETATM    7  C   UNL     1     -11.034   7.635  69.866  1.00  0.00    -0.208 C  
HETATM    8  C   UNL     1      -9.102   8.841  72.139  1.00  0.00    -0.218 C  
HETATM    9  C   UNL     1      -7.944   7.874  72.505  1.00  0.00    -0.157 C  
HETATM   10  C   UNL     1      -9.486   7.693  69.922  1.00  0.00    -0.160 C  
HETATM   11  C   UNL     1      -8.951   6.440  70.622  1.00  0.00    -0.144 C  
HETATM   12  C   UNL     1      -7.848   9.702  70.233  1.00  0.00    -0.193 C  
HETATM   13  C   UNL     1      -9.363   5.173  70.363  1.00  0.00    -0.210 C  
HETATM   14  C   UNL     1      -7.845   6.629  71.626  1.00  0.00    -0.102 C  
ENDROOT
BRANCH   3  15
HETATM   15  C   UNL     1     -11.191  11.923  66.597  1.00  0.00    -0.384 C  
BRANCH  15  16
HETATM   16  C   UNL     1     -12.208  12.697  65.775  1.00  0.00    -0.427 C  
HETATM   17  C   UNL     1     -10.400  14.406  65.017  1.00  0.00    -0.449 C  
HETATM   18  O   UNL     1     -12.521  14.215  63.918  1.00  0.00    -0.776 OA 
HETATM   19  C   UNL     1     -11.520  13.442  64.583  1.00  0.00    -0.348 C  
HETATM   20  C   UNL     1     -10.947  12.465  63.548  1.00  0.00    -0.506 C  
HETATM   21  H   UNL     1     -12.104  14.667  63.194  1.00  0.00     0.000 HD 
ENDBRANCH  15  16
ENDBRANCH   3  15
BRANCH  13  22
HETATM   22  C   UNL     1      -9.999   4.770  69.132  1.00  0.00    -0.233 C  
HETATM   23  C   UNL     1     -10.242   4.728  66.687  1.00  0.00    -0.274 C  
HETATM   24  C   UNL     1      -9.660   5.881  65.855  1.00  0.00     0.048 C  
HETATM   25  C   UNL     1      -9.412   4.556  67.950  1.00  0.00    -0.200 C  
HETATM   26  O   UNL     1      -9.777   7.123  66.548  1.00  0.00    -0.265 OA 
HETATM   27  C   UNL     1      -8.193   5.610  65.511  1.00  0.00    -0.129 C  
HETATM   28  H   UNL     1      -9.417   7.836  66.034  1.00  0.00     0.000 HD 
HETATM   29  C   UNL     1      -7.341   5.330  66.753  1.00  0.00    -0.086 C  
HETATM   30  C   UNL     1      -7.998   4.345  67.696  1.00  0.00    -0.092 C  
HETATM   31  C   UNL     1      -7.339   3.278  68.199  1.00  0.00    -0.050 C  
ENDBRANCH  13  22
TORSDOF 3
ENDMDL
MODEL       25
REMARK 921   NORMALIZED FREE ENERGY PREDICTED BY IDOCK:   -6.53 KCAL/MOL
REMARK 922        TOTAL FREE ENERGY PREDICTED BY IDOCK:   -8.22 KCAL/MOL
REMARK 923 INTER-LIGAND FREE ENERGY PREDICTED BY IDOCK:   -6.85 KCAL/MOL
REMARK 924 INTRA-LIGAND FREE ENERGY PREDICTED BY IDOCK:   -1.37 KCAL/MOL
REMARK 927      BINDING AFFINITY PREDICTED BY RF-SCORE:    0.00 PKD
ROOT
HETATM    1  C   UNL     1      -7.732   9.227  70.594  1.00  0.00    -0.170 C  
HETATM    2  C   UNL     1      -8.497   9.530  69.283  1.00  0.00    -0.139 C  
HETATM    3  C   UNL     1      -9.294   8.191  68.951  1.00  0.00    -0.147 C  
HETATM    4  C   UNL     1      -7.603  10.137  68.096  1.00  0.00    -0.087 C  
HETATM    5  C   UNL     1      -8.454  10.342  66.833  1.00  0.00    -0.126 C  
HETATM    6  C   UNL     1      -6.984  11.616  68.327  1.00  0.00    -0.074 C  
HETATM    7  C   UNL     1      -8.943  11.782  66.864  1.00  0.00    -0.195 C  
HETATM    8  C   UNL     1      -5.782  12.020  67.412  1.00  0.00    -0.123 C  
HETATM    9  C   UNL     1      -5.337  13.482  67.686  1.00  0.00     0.004 C  
HETATM   10  C   UNL     1      -8.186  12.544  67.981  1.00  0.00    -0.166 C  
HETATM   11  C   UNL     1      -7.858  13.961  67.503  1.00  0.00    -0.193 C  
HETATM   12  C   UNL     1      -6.439  11.730  69.742  1.00  0.00    -0.094 C  
HETATM   13  C   UNL     1      -8.735  14.792  66.881  1.00  0.00    -0.264 C  
HETATM   14  C   UNL     1      -6.480  14.489  67.801  1.00  0.00    -0.181 C  
ENDROOT
BRANCH   3  15
HETATM   15  C   UNL     1     -10.028   7.703  70.223  1.00  0.00    -0.189 C  
BRANCH  15  16
HETATM   16  C   UNL     1     -11.038   8.569  70.958  1.00  0.00    -0.306 C  
HETATM   17  C   UNL     1     -12.352   6.475  71.766  1.00  0.00    -0.340 C  
HETATM   18  O   UNL     1     -12.669   8.642  72.742  1.00  0.00    -0.566 OA 
HETATM   19  C   UNL     1     -11.670   7.799  72.163  1.00  0.00    -0.320 C  
HETATM   20  C   UNL     1     -10.641   7.504  73.262  1.00  0.00    -0.438 C  
HETATM   21  H   UNL     1     -13.052   8.174  73.474  1.00  0.00     0.000 HD 
ENDBRANCH  15  16
ENDBRANCH   3  15
BRANCH  13  22
HETATM   22  C   UNL     1     -10.168  14.664  66.977  1.00  0.00    -0.261 C  
HETATM   23  C   UNL     1     -12.279  14.371  68.201  1.00  0.00    -0.142 C  
HETATM   24  C   UNL     1     -12.260  13.695  69.581  1.00  0.00    -0.270 C  
HETATM   25  C   UNL     1     -10.954  15.082  67.974  1.00  0.00    -0.285 C  
HETATM   26  O   UNL     1     -11.272  12.666  69.632  1.00  0.00    -0.455 OA 
HETATM   27  C   UNL     1     -11.999  14.726  70.681  1.00  0.00    -0.371 C  
HETATM   28  H   UNL     1     -11.260  12.248  70.485  1.00  0.00     0.000 HD 
HETATM   29  C   UNL     1     -10.721  15.536  70.437  1.00  0.00    -0.342 C  
HETATM   30  C   UNL     1     -10.620  16.041  69.013  1.00  0.00    -0.257 C  
HETATM   31  C   UNL     1     -10.330  17.328  68.723  1.00  0.00    -0.358 C  
ENDBRANCH  13  22
TORSDOF 3
ENDMDL
MODEL       26
REMARK 921   NORMALIZED FREE ENERGY PREDICTED BY IDOCK:   -6.46 KCAL/MOL
REMARK 922        TOTAL FREE ENERGY PREDICTED BY IDOCK:   -8.14 KCAL/MOL
REMARK 923 INTER-LIGAND FREE ENERGY PREDICTED BY IDOCK:   -7.07 KCAL/MOL
REMARK 924 INTRA-LIGAND FREE ENERGY PREDICTED BY IDOCK:   -1.07 KCAL/MOL
REMARK 927      BINDING AFFINITY PREDICTED BY RF-SCORE:    0.00 PKD
ROOT
HETATM    1  C   UNL     1      -9.877  12.143  65.667  1.00  0.00    -0.256 C  
HETATM    2  C   UNL     1      -9.268  12.053  67.087  1.00  0.00    -0.190 C  
HETATM    3  C   UNL     1      -8.781  13.533  67.421  1.00  0.00    -0.220 C  
HETATM    4  C   UNL     1      -8.186  10.886  67.293  1.00  0.00    -0.123 C  
HETATM    5  C   UNL     1      -7.611  10.932  68.718  1.00  0.00    -0.121 C  
HETATM    6  C   UNL     1      -8.724   9.362  67.197  1.00  0.00    -0.134 C  
HETATM    7  C   UNL     1      -8.440   9.968  69.555  1.00  0.00    -0.186 C  
HETATM    8  C   UNL     1      -7.647   8.255  66.949  1.00  0.00    -0.092 C  
HETATM    9  C   UNL     1      -8.286   6.841  66.954  1.00  0.00    -0.114 C  
HETATM   10  C   UNL     1      -9.337   9.129  68.609  1.00  0.00    -0.135 C  
HETATM   11  C   UNL     1      -9.401   7.684  69.113  1.00  0.00    -0.147 C  
HETATM   12  C   UNL     1      -9.682   9.227  66.024  1.00  0.00    -0.359 C  
HETATM   13  C   UNL     1      -9.614   7.322  70.405  1.00  0.00    -0.165 C  
HETATM   14  C   UNL     1      -9.279   6.590  68.087  1.00  0.00    -0.112 C  
ENDROOT
BRANCH   3  15
HETATM   15  C   UNL     1      -9.914  14.533  67.087  1.00  0.00    -0.252 C  
BRANCH  15  16
HETATM   16  C   UNL     1     -11.243  14.527  67.825  1.00  0.00    -0.312 C  
HETATM   17  C   UNL     1     -10.174  15.662  69.907  1.00  0.00    -0.297 C  
HETATM   18  O   UNL     1     -12.547  15.561  69.580  1.00  0.00    -0.601 OA 
HETATM   19  C   UNL     1     -11.314  15.689  68.870  1.00  0.00    -0.339 C  
HETATM   20  C   UNL     1     -11.326  17.068  68.197  1.00  0.00     0.119 C  
HETATM   21  H   UNL     1     -12.589  16.266  70.214  1.00  0.00     0.000 HD 
ENDBRANCH  15  16
ENDBRANCH   3  15
BRANCH  13  22
HETATM   22  C   UNL     1     -10.242   8.174  71.385  1.00  0.00    -0.248 C  
HETATM   23  C   UNL     1     -12.170   9.288  72.425  1.00  0.00    -0.203 C  
HETATM   24  C   UNL     1     -13.432   9.544  71.587  1.00  0.00    -0.385 C  
HETATM   25  C   UNL     1     -11.468   8.044  71.904  1.00  0.00    -0.341 C  
HETATM   26  O   UNL     1     -13.095   9.848  70.234  1.00  0.00    -0.567 OA 
HETATM   27  C   UNL     1     -14.364   8.331  71.634  1.00  0.00    -0.561 C  
HETATM   28  H   UNL     1     -13.875  10.006  69.716  1.00  0.00     0.000 HD 
HETATM   29  C   UNL     1     -13.665   7.036  71.211  1.00  0.00    -0.233 C  
HETATM   30  C   UNL     1     -12.314   6.864  71.873  1.00  0.00    -0.364 C  
HETATM   31  C   UNL     1     -11.951   5.716  72.484  1.00  0.00    -0.130 C  
ENDBRANCH  13  22
TORSDOF 3
ENDMDL
MODEL       27
REMARK 921   NORMALIZED FREE ENERGY PREDICTED BY IDOCK:   -6.43 KCAL/MOL
REMARK 922        TOTAL FREE ENERGY PREDICTED BY IDOCK:   -8.10 KCAL/MOL
REMARK 923 INTER-LIGAND FREE ENERGY PREDICTED BY IDOCK:   -7.29 KCAL/MOL
REMARK 924 INTRA-LIGAND FREE ENERGY PREDICTED BY IDOCK:   -0.82 KCAL/MOL
REMARK 927      BINDING AFFINITY PREDICTED BY RF-SCORE:    0.00 PKD
ROOT
HETATM    1  C   UNL     1      -7.837   5.414  69.700  1.00  0.00    -0.078 C  
HETATM    2  C   UNL     1      -9.194   5.870  69.113  1.00  0.00    -0.131 C  
HETATM    3  C   UNL     1     -10.286   4.981  69.858  1.00  0.00    -0.340 C  
HETATM    4  C   UNL     1      -9.271   5.894  67.510  1.00  0.00    -0.108 C  
HETATM    5  C   UNL     1     -10.677   6.305  67.045  1.00  0.00    -0.435 C  
HETATM    6  C   UNL     1      -8.336   6.974  66.747  1.00  0.00    -0.116 C  
HETATM    7  C   UNL     1     -10.639   7.809  66.817  1.00  0.00    -0.248 C  
HETATM    8  C   UNL     1      -8.064   6.714  65.229  1.00  0.00    -0.130 C  
HETATM    9  C   UNL     1      -7.221   7.859  64.607  1.00  0.00    -0.079 C  
HETATM   10  C   UNL     1      -9.165   8.287  66.869  1.00  0.00    -0.197 C  
HETATM   11  C   UNL     1      -8.936   9.359  65.800  1.00  0.00    -0.227 C  
HETATM   12  C   UNL     1      -6.954   6.998  67.381  1.00  0.00    -0.079 C  
HETATM   13  C   UNL     1      -9.762  10.413  65.570  1.00  0.00    -0.307 C  
HETATM   14  C   UNL     1      -7.670   9.268  64.991  1.00  0.00    -0.109 C  
ENDROOT
BRANCH   3  15
HETATM   15  C   UNL     1     -10.013   5.004  71.381  1.00  0.00    -0.259 C  
BRANCH  15  16
HETATM   16  C   UNL     1     -10.406   6.182  72.257  1.00  0.00    -0.221 C  
HETATM   17  C   UNL     1     -10.479   4.675  74.375  1.00  0.00    -0.330 C  
HETATM   18  O   UNL     1     -10.422   7.068  74.507  1.00  0.00    -0.485 OA 
HETATM   19  C   UNL     1      -9.939   5.968  73.734  1.00  0.00    -0.209 C  
HETATM   20  C   UNL     1      -8.410   5.970  73.859  1.00  0.00    -0.113 C  
HETATM   21  H   UNL     1     -10.138   6.938  75.404  1.00  0.00     0.000 HD 
ENDBRANCH  15  16
ENDBRANCH   3  15
BRANCH  13  22
HETATM   22  C   UNL     1     -10.694  10.930  66.541  1.00  0.00    -0.270 C  
HETATM   23  C   UNL     1     -11.870  12.734  67.726  1.00  0.00    -0.387 C  
HETATM   24  C   UNL     1     -11.233  14.131  67.790  1.00  0.00    -0.287 C  
HETATM   25  C   UNL     1     -11.430  12.043  66.445  1.00  0.00    -0.417 C  
HETATM   26  O   UNL     1      -9.812  14.041  67.885  1.00  0.00    -0.222 OA 
HETATM   27  C   UNL     1     -11.623  14.957  66.561  1.00  0.00    -0.254 C  
HETATM   28  H   UNL     1      -9.418  14.904  67.925  1.00  0.00     0.000 HD 
HETATM   29  C   UNL     1     -11.287  14.248  65.245  1.00  0.00    -0.336 C  
HETATM   30  C   UNL     1     -11.726  12.799  65.241  1.00  0.00    -0.403 C  
HETATM   31  C   UNL     1     -12.432  12.262  64.222  1.00  0.00    -0.508 C  
ENDBRANCH  13  22
TORSDOF 3
ENDMDL
MODEL       28
REMARK 921   NORMALIZED FREE ENERGY PREDICTED BY IDOCK:   -6.43 KCAL/MOL
REMARK 922        TOTAL FREE ENERGY PREDICTED BY IDOCK:   -8.10 KCAL/MOL
REMARK 923 INTER-LIGAND FREE ENERGY PREDICTED BY IDOCK:   -6.97 KCAL/MOL
REMARK 924 INTRA-LIGAND FREE ENERGY PREDICTED BY IDOCK:   -1.13 KCAL/MOL
REMARK 927      BINDING AFFINITY PREDICTED BY RF-SCORE:    0.00 PKD
ROOT
HETATM    1  C   UNL     1     -11.792  10.655  69.718  1.00  0.00    -0.377 C  
HETATM    2  C   UNL     1     -10.501   9.805  69.658  1.00  0.00    -0.263 C  
HETATM    3  C   UNL     1     -10.103   9.551  71.180  1.00  0.00    -0.262 C  
HETATM    4  C   UNL     1      -9.344  10.387  68.709  1.00  0.00    -0.175 C  
HETATM    5  C   UNL     1      -8.095   9.494  68.775  1.00  0.00    -0.096 C  
HETATM    6  C   UNL     1      -9.648  10.422  67.119  1.00  0.00    -0.192 C  
HETATM    7  C   UNL     1      -8.201   8.509  67.620  1.00  0.00    -0.118 C  
HETATM    8  C   UNL     1      -8.752  11.371  66.257  1.00  0.00    -0.173 C  
HETATM    9  C   UNL     1      -9.099  11.251  64.749  1.00  0.00    -0.032 C  
HETATM   10  C   UNL     1      -9.353   8.956  66.685  1.00  0.00    -0.237 C  
HETATM   11  C   UNL     1      -8.947   8.728  65.226  1.00  0.00    -0.184 C  
HETATM   12  C   UNL     1     -11.065  10.917  66.877  1.00  0.00    -0.236 C  
HETATM   13  C   UNL     1      -8.371   7.594  64.750  1.00  0.00    -0.034 C  
HETATM   14  C   UNL     1      -9.268   9.820  64.242  1.00  0.00    -0.286 C  
ENDROOT
BRANCH   3  15
HETATM   15  C   UNL     1     -11.350   9.076  71.963  1.00  0.00    -0.395 C  
BRANCH  15  16
HETATM   16  C   UNL     1     -11.402   7.726  72.660  1.00  0.00    -0.449 C  
HETATM   17  C   UNL     1     -13.698   7.172  71.569  1.00  0.00    -0.413 C  
HETATM   18  O   UNL     1     -12.333   5.494  72.603  1.00  0.00    -0.417 OA 
HETATM   19  C   UNL     1     -12.256   6.702  71.842  1.00  0.00    -0.335 C  
HETATM   20  C   UNL     1     -11.599   6.346  70.502  1.00  0.00    -0.424 C  
HETATM   21  H   UNL     1     -12.851   4.873  72.106  1.00  0.00     0.000 HD 
ENDBRANCH  15  16
ENDBRANCH   3  15
BRANCH  13  22
HETATM   22  C   UNL     1      -8.463   6.311  65.402  1.00  0.00    -0.131 C  
HETATM   23  C   UNL     1      -9.276   4.002  65.620  1.00  0.00    -0.150 C  
HETATM   24  C   UNL     1     -10.593   3.601  64.937  1.00  0.00     0.113 C  
HETATM   25  C   UNL     1      -8.618   5.116  64.822  1.00  0.00    -0.148 C  
HETATM   26  O   UNL     1     -11.530   4.678  64.960  1.00  0.00    -1.052 OA 
HETATM   27  C   UNL     1     -10.338   3.162  63.493  1.00  0.00    -0.212 C  
HETATM   28  H   UNL     1     -12.343   4.430  64.538  1.00  0.00     0.000 HD 
HETATM   29  C   UNL     1      -9.585   4.220  62.680  1.00  0.00    -0.132 C  
HETATM   30  C   UNL     1      -8.393   4.782  63.426  1.00  0.00    -0.112 C  
HETATM   31  C   UNL     1      -7.170   4.882  62.862  1.00  0.00    -0.043 C  
ENDBRANCH  13  22
TORSDOF 3
ENDMDL
MODEL       29
REMARK 921   NORMALIZED FREE ENERGY PREDICTED BY IDOCK:   -6.43 KCAL/MOL
REMARK 922        TOTAL FREE ENERGY PREDICTED BY IDOCK:   -8.10 KCAL/MOL
REMARK 923 INTER-LIGAND FREE ENERGY PREDICTED BY IDOCK:   -6.56 KCAL/MOL
REMARK 924 INTRA-LIGAND FREE ENERGY PREDICTED BY IDOCK:   -1.54 KCAL/MOL
REMARK 927      BINDING AFFINITY PREDICTED BY RF-SCORE:    0.00 PKD
ROOT
HETATM    1  C   UNL     1      -9.679  13.434  68.442  1.00  0.00    -0.201 C  
HETATM    2  C   UNL     1     -10.374  12.178  67.863  1.00  0.00    -0.216 C  
HETATM    3  C   UNL     1     -11.903  12.593  67.695  1.00  0.00    -0.390 C  
HETATM    4  C   UNL     1     -10.091  10.814  68.660  1.00  0.00    -0.194 C  
HETATM    5  C   UNL     1     -10.876   9.652  68.031  1.00  0.00    -0.250 C  
HETATM    6  C   UNL     1      -8.574  10.249  68.632  1.00  0.00    -0.128 C  
HETATM    7  C   UNL     1      -9.938   8.976  67.042  1.00  0.00    -0.295 C  
HETATM    8  C   UNL     1      -8.195   9.209  69.737  1.00  0.00    -0.128 C  
HETATM    9  C   UNL     1      -6.742   8.696  69.548  1.00  0.00    -0.040 C  
HETATM   10  C   UNL     1      -8.506   9.531  67.252  1.00  0.00    -0.128 C  
HETATM   11  C   UNL     1      -7.490   8.394  67.105  1.00  0.00    -0.089 C  
HETATM   12  C   UNL     1      -7.595  11.393  68.837  1.00  0.00    -0.114 C  
HETATM   13  C   UNL     1      -7.494   7.474  66.107  1.00  0.00    -0.083 C  
HETATM   14  C   UNL     1      -6.371   8.335  68.111  1.00  0.00    -0.055 C  
ENDROOT
BRANCH   3  15
HETATM   15  C   UNL     1     -11.987  13.965  66.985  1.00  0.00    -0.459 C  
BRANCH  15  16
HETATM   16  C   UNL     1     -12.688  14.144  65.648  1.00  0.00    -0.469 C  
HETATM   17  C   UNL     1     -10.962  15.940  64.901  1.00  0.00    -0.427 C  
HETATM   18  O   UNL     1     -12.437  14.859  63.352  1.00  0.00    -0.856 OA 
HETATM   19  C   UNL     1     -11.689  14.628  64.547  1.00  0.00    -0.401 C  
HETATM   20  C   UNL     1     -10.635  13.563  64.217  1.00  0.00    -0.304 C  
HETATM   21  H   UNL     1     -11.830  15.153  62.683  1.00  0.00     0.000 HD 
ENDBRANCH  15  16
ENDBRANCH   3  15
BRANCH  13  22
HETATM   22  C   UNL     1      -8.138   7.675  64.832  1.00  0.00    -0.128 C  
HETATM   23  C   UNL     1      -8.620   8.940  62.780  1.00  0.00    -0.167 C  
HETATM   24  C   UNL     1      -8.430  10.465  62.776  1.00  0.00    -0.186 C  
HETATM   25  C   UNL     1      -7.645   8.318  63.768  1.00  0.00    -0.134 C  
HETATM   26  O   UNL     1      -8.774  11.027  64.042  1.00  0.00    -0.360 OA 
HETATM   27  C   UNL     1      -6.986  10.826  62.418  1.00  0.00    -0.097 C  
HETATM   28  H   UNL     1      -8.656  11.969  64.039  1.00  0.00     0.000 HD 
HETATM   29  C   UNL     1      -5.965  10.137  63.330  1.00  0.00    -0.141 C  
HETATM   30  C   UNL     1      -6.257   8.663  63.515  1.00  0.00    -0.081 C  
HETATM   31  C   UNL     1      -5.307   7.714  63.363  1.00  0.00    -0.038 C  
ENDBRANCH  13  22
TORSDOF 3
ENDMDL
MODEL       30
REMARK 921   NORMALIZED FREE ENERGY PREDICTED BY IDOCK:   -6.41 KCAL/MOL
REMARK 922        TOTAL FREE ENERGY PREDICTED BY IDOCK:   -8.07 KCAL/MOL
REMARK 923 INTER-LIGAND FREE ENERGY PREDICTED BY IDOCK:   -6.96 KCAL/MOL
REMARK 924 INTRA-LIGAND FREE ENERGY PREDICTED BY IDOCK:   -1.11 KCAL/MOL
REMARK 927      BINDING AFFINITY PREDICTED BY RF-SCORE:    0.00 PKD
ROOT
HETATM    1  C   UNL     1      -9.866  10.257  65.271  1.00  0.00    -0.372 C  
HETATM    2  C   UNL     1      -8.783  11.188  65.867  1.00  0.00    -0.167 C  
HETATM    3  C   UNL     1      -7.413  10.395  65.684  1.00  0.00    -0.149 C  
HETATM    4  C   UNL     1      -9.093  11.740  67.341  1.00  0.00    -0.175 C  
HETATM    5  C   UNL     1      -7.926  12.602  67.849  1.00  0.00    -0.156 C  
HETATM    6  C   UNL     1     -10.349  12.751  67.497  1.00  0.00    -0.219 C  
HETATM    7  C   UNL     1      -8.267  14.045  67.508  1.00  0.00    -0.195 C  
HETATM    8  C   UNL     1     -10.925  12.932  68.940  1.00  0.00    -0.271 C  
HETATM    9  C   UNL     1     -12.071  13.979  68.957  1.00  0.00    -0.358 C  
HETATM   10  C   UNL     1      -9.745  14.113  67.045  1.00  0.00    -0.258 C  
HETATM   11  C   UNL     1     -10.397  15.384  67.600  1.00  0.00    -0.262 C  
HETATM   12  C   UNL     1     -11.525  12.239  66.681  1.00  0.00    -0.431 C  
HETATM   13  C   UNL     1      -9.837  16.620  67.564  1.00  0.00    -0.253 C  
HETATM   14  C   UNL     1     -11.785  15.255  68.168  1.00  0.00    -0.297 C  
ENDROOT
BRANCH   3  15
HETATM   15  C   UNL     1      -7.317   9.864  64.234  1.00  0.00    -0.133 C  
BRANCH  15  16
HETATM   16  C   UNL     1      -6.387   8.725  63.848  1.00  0.00    -0.076 C  
HETATM   17  C   UNL     1      -8.009   6.964  64.864  1.00  0.00    -0.124 C  
HETATM   18  O   UNL     1      -6.236   6.360  63.368  1.00  0.00    -0.029 OA 
HETATM   19  C   UNL     1      -7.183   7.395  63.637  1.00  0.00    -0.072 C  
HETATM   20  C   UNL     1      -8.119   7.471  62.423  1.00  0.00    -0.125 C  
HETATM   21  H   UNL     1      -6.719   5.552  63.240  1.00  0.00     0.000 HD 
ENDBRANCH  15  16
ENDBRANCH   3  15
BRANCH  13  22
HETATM   22  C   UNL     1      -8.801  17.008  66.639  1.00  0.00    -0.282 C  
HETATM   23  C   UNL     1      -7.136  18.563  65.719  1.00  0.00    -0.255 C  
HETATM   24  C   UNL     1      -7.307  20.072  65.953  1.00  0.00    -0.309 C  
HETATM   25  C   UNL     1      -7.754  17.804  66.882  1.00  0.00    -0.242 C  
HETATM   26  O   UNL     1      -8.686  20.438  65.944  1.00  0.00    -0.577 OA 
HETATM   27  C   UNL     1      -6.664  20.487  67.279  1.00  0.00    -0.324 C  
HETATM   28  H   UNL     1      -8.792  21.371  66.089  1.00  0.00     0.000 HD 
HETATM   29  C   UNL     1      -7.189  19.673  68.466  1.00  0.00    -0.363 C  
HETATM   30  C   UNL     1      -7.224  18.187  68.178  1.00  0.00    -0.247 C  
HETATM   31  C   UNL     1      -6.709  17.274  69.031  1.00  0.00    -0.238 C  
ENDBRANCH  13  22
TORSDOF 3
ENDMDL
MODEL       31
REMARK 921   NORMALIZED FREE ENERGY PREDICTED BY IDOCK:   -6.38 KCAL/MOL
REMARK 922        TOTAL FREE ENERGY PREDICTED BY IDOCK:   -8.04 KCAL/MOL
REMARK 923 INTER-LIGAND FREE ENERGY PREDICTED BY IDOCK:   -6.62 KCAL/MOL
REMARK 924 INTRA-LIGAND FREE ENERGY PREDICTED BY IDOCK:   -1.42 KCAL/MOL
REMARK 927      BINDING AFFINITY PREDICTED BY RF-SCORE:    0.00 PKD
ROOT
HETATM    1  C   UNL     1     -10.366   8.366  66.414  1.00  0.00    -0.045 C  
HETATM    2  C   UNL     1      -9.228   8.407  67.462  1.00  0.00    -0.158 C  
HETATM    3  C   UNL     1      -8.504   9.808  67.230  1.00  0.00    -0.125 C  
HETATM    4  C   UNL     1      -8.279   7.113  67.490  1.00  0.00    -0.117 C  
HETATM    5  C   UNL     1      -7.156   7.292  68.524  1.00  0.00    -0.085 C  
HETATM    6  C   UNL     1      -8.953   5.720  67.964  1.00  0.00    -0.111 C  
HETATM    7  C   UNL     1      -7.646   6.653  69.815  1.00  0.00    -0.104 C  
HETATM    8  C   UNL     1      -8.194   4.409  67.576  1.00  0.00    -0.099 C  
HETATM    9  C   UNL     1      -8.907   3.157  68.155  1.00  0.00    -0.161 C  
HETATM   10  C   UNL     1      -8.934   5.845  69.516  1.00  0.00    -0.131 C  
HETATM   11  C   UNL     1      -8.920   4.542  70.322  1.00  0.00    -0.141 C  
HETATM   12  C   UNL     1     -10.324   5.567  67.325  1.00  0.00    -0.290 C  
HETATM   13  C   UNL     1      -8.604   4.449  71.639  1.00  0.00    -0.126 C  
HETATM   14  C   UNL     1      -9.349   3.287  69.611  1.00  0.00    -0.236 C  
ENDROOT
BRANCH   3  15
HETATM   15  C   UNL     1      -9.569  10.927  67.146  1.00  0.00    -0.187 C  
BRANCH  15  16
HETATM   16  C   UNL     1      -9.338  12.208  66.361  1.00  0.00    -0.225 C  
HETATM   17  C   UNL     1     -10.321  11.146  64.200  1.00  0.00    -0.423 C  
HETATM   18  O   UNL     1     -10.014  13.511  64.439  1.00  0.00    -0.644 OA 
HETATM   19  C   UNL     1     -10.353  12.336  65.178  1.00  0.00    -0.286 C  
HETATM   20  C   UNL     1     -11.794  12.519  65.674  1.00  0.00    -0.493 C  
HETATM   21  H   UNL     1     -10.631  13.589  63.721  1.00  0.00     0.000 HD 
ENDBRANCH  15  16
ENDBRANCH   3  15
BRANCH  13  22
HETATM   22  C   UNL     1      -8.676   5.554  72.563  1.00  0.00    -0.124 C  
HETATM   23  C   UNL     1      -9.618   7.657  73.416  1.00  0.00    -0.346 C  
HETATM   24  C   UNL     1     -10.381   8.584  72.455  1.00  0.00    -0.244 C  
HETATM   25  C   UNL     1      -9.770   6.218  72.949  1.00  0.00    -0.162 C  
HETATM   26  O   UNL     1      -9.803   8.554  71.151  1.00  0.00    -0.180 OA 
HETATM   27  C   UNL     1     -11.857   8.186  72.383  1.00  0.00    -0.448 C  
HETATM   28  H   UNL     1     -10.274   9.126  70.557  1.00  0.00     0.000 HD 
HETATM   29  C   UNL     1     -12.051   6.712  72.012  1.00  0.00    -0.353 C  
HETATM   30  C   UNL     1     -11.151   5.791  72.809  1.00  0.00    -0.327 C  
HETATM   31  C   UNL     1     -11.619   4.689  73.434  1.00  0.00    -0.245 C  
ENDBRANCH  13  22
TORSDOF 3
ENDMDL
MODEL       32
REMARK 921   NORMALIZED FREE ENERGY PREDICTED BY IDOCK:   -6.37 KCAL/MOL
REMARK 922        TOTAL FREE ENERGY PREDICTED BY IDOCK:   -8.03 KCAL/MOL
REMARK 923 INTER-LIGAND FREE ENERGY PREDICTED BY IDOCK:   -6.88 KCAL/MOL
REMARK 924 INTRA-LIGAND FREE ENERGY PREDICTED BY IDOCK:   -1.15 KCAL/MOL
REMARK 927      BINDING AFFINITY PREDICTED BY RF-SCORE:    0.00 PKD
ROOT
HETATM    1  C   UNL     1     -10.098   4.880  70.194  1.00  0.00    -0.332 C  
HETATM    2  C   UNL     1      -9.161   6.101  70.353  1.00  0.00    -0.162 C  
HETATM    3  C   UNL     1      -7.700   5.483  70.501  1.00  0.00    -0.093 C  
HETATM    4  C   UNL     1      -9.603   7.158  71.477  1.00  0.00    -0.161 C  
HETATM    5  C   UNL     1      -8.570   8.292  71.584  1.00  0.00    -0.202 C  
HETATM    6  C   UNL     1     -10.975   7.977  71.215  1.00  0.00    -0.269 C  
HETATM    7  C   UNL     1      -9.064   9.418  70.687  1.00  0.00    -0.292 C  
HETATM    8  C   UNL     1     -11.635   8.651  72.463  1.00  0.00    -0.310 C  
HETATM    9  C   UNL     1     -12.896   9.462  72.059  1.00  0.00    -0.496 C  
HETATM   10  C   UNL     1     -10.516   9.106  70.245  1.00  0.00    -0.257 C  
HETATM   11  C   UNL     1     -11.339  10.398  70.239  1.00  0.00    -0.406 C  
HETATM   12  C   UNL     1     -12.043   7.035  70.684  1.00  0.00    -0.332 C  
HETATM   13  C   UNL     1     -10.928  11.575  69.700  1.00  0.00    -0.129 C  
HETATM   14  C   UNL     1     -12.726  10.335  70.818  1.00  0.00    -0.434 C  
ENDROOT
BRANCH   3  15
HETATM   15  C   UNL     1      -7.475   4.429  69.391  1.00  0.00    -0.055 C  
BRANCH  15  16
HETATM   16  C   UNL     1      -7.091   4.815  67.972  1.00  0.00    -0.062 C  
HETATM   17  C   UNL     1      -7.397   2.368  67.147  1.00  0.00    -0.057 C  
HETATM   18  O   UNL     1      -7.268   4.223  65.634  1.00  0.00    -0.069 OA 
HETATM   19  C   UNL     1      -7.747   3.853  66.928  1.00  0.00    -0.085 C  
HETATM   20  C   UNL     1      -9.274   3.993  66.897  1.00  0.00    -0.182 C  
HETATM   21  H   UNL     1      -7.666   3.639  65.001  1.00  0.00     0.000 HD 
ENDBRANCH  15  16
ENDBRANCH   3  15
BRANCH  13  22
HETATM   22  C   UNL     1      -9.903  11.683  68.692  1.00  0.00    -0.173 C  
HETATM   23  C   UNL     1      -9.081  11.691  66.376  1.00  0.00    -0.209 C  
HETATM   24  C   UNL     1      -9.886  10.961  65.290  1.00  0.00    -0.265 C  
HETATM   25  C   UNL     1     -10.030  12.182  67.457  1.00  0.00    -0.202 C  
HETATM   26  O   UNL     1     -10.496   9.781  65.812  1.00  0.00    -0.132 OA 
HETATM   27  C   UNL     1     -10.955  11.884  64.700  1.00  0.00    -0.370 C  
HETATM   28  H   UNL     1     -10.994   9.329  65.141  1.00  0.00     0.000 HD 
HETATM   29  C   UNL     1     -11.873  12.481  65.772  1.00  0.00    -0.494 C  
HETATM   30  C   UNL     1     -11.102  13.025  66.957  1.00  0.00    -0.311 C  
HETATM   31  C   UNL     1     -11.329  14.257  67.461  1.00  0.00    -0.346 C  
ENDBRANCH  13  22
TORSDOF 3
ENDMDL
MODEL       33
REMARK 921   NORMALIZED FREE ENERGY PREDICTED BY IDOCK:   -6.36 KCAL/MOL
REMARK 922        TOTAL FREE ENERGY PREDICTED BY IDOCK:   -8.01 KCAL/MOL
REMARK 923 INTER-LIGAND FREE ENERGY PREDICTED BY IDOCK:   -6.91 KCAL/MOL
REMARK 924 INTRA-LIGAND FREE ENERGY PREDICTED BY IDOCK:   -1.10 KCAL/MOL
REMARK 927      BINDING AFFINITY PREDICTED BY RF-SCORE:    0.00 PKD
ROOT
HETATM    1  C   UNL     1     -11.627  14.197  69.511  1.00  0.00    -0.349 C  
HETATM    2  C   UNL     1     -11.019  12.930  68.865  1.00  0.00    -0.271 C  
HETATM    3  C   UNL     1     -10.535  13.396  67.420  1.00  0.00    -0.243 C  
HETATM    4  C   UNL     1     -11.951  11.624  68.915  1.00  0.00    -0.355 C  
HETATM    5  C   UNL     1     -11.270  10.449  68.194  1.00  0.00    -0.333 C  
HETATM    6  C   UNL     1     -12.251  10.993  70.375  1.00  0.00    -0.461 C  
HETATM    7  C   UNL     1     -10.528   9.655  69.258  1.00  0.00    -0.232 C  
HETATM    8  C   UNL     1     -13.480  10.031  70.481  1.00  0.00     0.152 C  
HETATM    9  C   UNL     1     -13.607   9.442  71.912  1.00  0.00    -0.482 C  
HETATM   10  C   UNL     1     -10.964  10.162  70.657  1.00  0.00    -0.357 C  
HETATM   11  C   UNL     1     -11.096   8.974  71.614  1.00  0.00    -0.433 C  
HETATM   12  C   UNL     1     -12.555  12.106  71.364  1.00  0.00    -0.314 C  
HETATM   13  C   UNL     1     -10.183   7.977  71.742  1.00  0.00    -0.260 C  
HETATM   14  C   UNL     1     -12.296   8.949  72.521  1.00  0.00    -0.325 C  
ENDROOT
BRANCH   3  15
HETATM   15  C   UNL     1      -9.725  14.708  67.549  1.00  0.00    -0.210 C  
BRANCH  15  16
HETATM   16  C   UNL     1      -9.679  15.745  66.439  1.00  0.00    -0.305 C  
HETATM   17  C   UNL     1     -10.770  17.539  67.973  1.00  0.00    -0.342 C  
HETATM   18  O   UNL     1      -9.660  18.108  65.926  1.00  0.00    -0.519 OA 
HETATM   19  C   UNL     1      -9.607  17.194  67.023  1.00  0.00    -0.260 C  
HETATM   20  C   UNL     1      -8.286  17.452  67.759  1.00  0.00    -0.216 C  
HETATM   21  H   UNL     1      -9.616  18.988  66.281  1.00  0.00     0.000 HD 
ENDBRANCH  15  16
ENDBRANCH   3  15
BRANCH  13  22
HETATM   22  C   UNL     1      -8.798   8.101  71.359  1.00  0.00    -0.185 C  
HETATM   23  C   UNL     1      -6.548   7.222  70.905  1.00  0.00    -0.044 C  
HETATM   24  C   UNL     1      -6.111   5.902  71.560  1.00  0.00    -0.038 C  
HETATM   25  C   UNL     1      -8.055   7.204  70.702  1.00  0.00    -0.113 C  
HETATM   26  O   UNL     1      -6.661   5.775  72.871  1.00  0.00    -0.070 OA 
HETATM   27  C   UNL     1      -6.532   4.709  70.698  1.00  0.00    -0.030 C  
HETATM   28  H   UNL     1      -6.391   4.959  73.275  1.00  0.00     0.000 HD 
HETATM   29  C   UNL     1      -8.032   4.709  70.386  1.00  0.00    -0.064 C  
HETATM   30  C   UNL     1      -8.528   6.066  69.933  1.00  0.00    -0.130 C  
HETATM   31  C   UNL     1      -9.287   6.225  68.827  1.00  0.00    -0.124 C  
ENDBRANCH  13  22
TORSDOF 3
ENDMDL
MODEL       34
REMARK 921   NORMALIZED FREE ENERGY PREDICTED BY IDOCK:   -6.21 KCAL/MOL
REMARK 922        TOTAL FREE ENERGY PREDICTED BY IDOCK:   -7.84 KCAL/MOL
REMARK 923 INTER-LIGAND FREE ENERGY PREDICTED BY IDOCK:   -7.59 KCAL/MOL
REMARK 924 INTRA-LIGAND FREE ENERGY PREDICTED BY IDOCK:   -0.26 KCAL/MOL
REMARK 927      BINDING AFFINITY PREDICTED BY RF-SCORE:    0.00 PKD
ROOT
HETATM    1  C   UNL     1     -11.455  14.704  65.898  1.00  0.00    -0.338 C  
HETATM    2  C   UNL     1     -11.093  14.977  67.377  1.00  0.00    -0.324 C  
HETATM    3  C   UNL     1     -11.806  13.812  68.198  1.00  0.00    -0.411 C  
HETATM    4  C   UNL     1     -11.371  16.475  67.882  1.00  0.00    -0.049 C  
HETATM    5  C   UNL     1     -11.030  16.610  69.375  1.00  0.00    -0.235 C  
HETATM    6  C   UNL     1     -10.472  17.649  67.225  1.00  0.00    -0.338 C  
HETATM    7  C   UNL     1      -9.598  17.117  69.451  1.00  0.00     0.097 C  
HETATM    8  C   UNL     1     -11.019  19.108  67.362  1.00  0.00    -0.419 C  
HETATM    9  C   UNL     1     -10.027  20.137  66.756  1.00  0.00    -0.604 C  
HETATM   10  C   UNL     1      -9.145  17.555  68.035  1.00  0.00    -0.269 C  
HETATM   11  C   UNL     1      -8.298  18.827  68.138  1.00  0.00    -0.334 C  
HETATM   12  C   UNL     1     -10.354  17.428  65.725  1.00  0.00    -0.226 C  
HETATM   13  C   UNL     1      -7.293  19.018  69.030  1.00  0.00    -0.341 C  
HETATM   14  C   UNL     1      -8.564  19.916  67.134  1.00  0.00    -0.384 C  
ENDROOT
BRANCH   3  15
HETATM   15  C   UNL     1     -11.501  12.451  67.527  1.00  0.00    -0.410 C  
BRANCH  15  16
HETATM   16  C   UNL     1     -11.767  11.127  68.224  1.00  0.00    -0.323 C  
HETATM   17  C   UNL     1     -10.253   9.853  66.535  1.00  0.00    -0.292 C  
HETATM   18  O   UNL     1     -10.941   8.888  68.618  1.00  0.00    -0.438 OA 
HETATM   19  C   UNL     1     -10.578  10.132  68.015  1.00  0.00    -0.231 C  
HETATM   20  C   UNL     1      -9.298  10.610  68.712  1.00  0.00    -0.183 C  
HETATM   21  H   UNL     1     -10.219   8.284  68.491  1.00  0.00     0.000 HD 
ENDBRANCH  15  16
ENDBRANCH   3  15
BRANCH  13  22
HETATM   22  C   UNL     1      -6.585  17.945  69.685  1.00  0.00    -0.072 C  
HETATM   23  C   UNL     1      -5.996  15.586  70.041  1.00  0.00    -0.146 C  
HETATM   24  C   UNL     1      -6.984  14.491  69.607  1.00  0.00    -0.122 C  
HETATM   25  C   UNL     1      -6.166  16.798  69.139  1.00  0.00    -0.188 C  
HETATM   26  O   UNL     1      -8.333  14.913  69.803  1.00  0.00    -0.437 OA 
HETATM   27  C   UNL     1      -6.761  14.116  68.140  1.00  0.00    -0.125 C  
HETATM   28  H   UNL     1      -8.943  14.237  69.535  1.00  0.00     0.000 HD 
HETATM   29  C   UNL     1      -6.824  15.330  67.207  1.00  0.00    -0.108 C  
HETATM   30  C   UNL     1      -6.017  16.502  67.725  1.00  0.00    -0.147 C  
HETATM   31  C   UNL     1      -5.140  17.174  66.949  1.00  0.00    -0.190 C  
ENDBRANCH  13  22
TORSDOF 3
ENDMDL
MODEL       35
REMARK 921   NORMALIZED FREE ENERGY PREDICTED BY IDOCK:   -6.18 KCAL/MOL
REMARK 922        TOTAL FREE ENERGY PREDICTED BY IDOCK:   -7.80 KCAL/MOL
REMARK 923 INTER-LIGAND FREE ENERGY PREDICTED BY IDOCK:   -6.53 KCAL/MOL
REMARK 924 INTRA-LIGAND FREE ENERGY PREDICTED BY IDOCK:   -1.27 KCAL/MOL
REMARK 927      BINDING AFFINITY PREDICTED BY RF-SCORE:    0.00 PKD
ROOT
HETATM    1  C   UNL     1     -12.145  14.261  67.698  1.00  0.00    -0.332 C  
HETATM    2  C   UNL     1     -10.908  13.795  68.503  1.00  0.00    -0.280 C  
HETATM    3  C   UNL     1     -10.397  15.099  69.264  1.00  0.00    -0.258 C  
HETATM    4  C   UNL     1      -9.808  12.989  67.657  1.00  0.00    -0.212 C  
HETATM    5  C   UNL     1      -8.604  12.631  68.544  1.00  0.00    -0.051 C  
HETATM    6  C   UNL     1     -10.242  11.540  67.081  1.00  0.00    -0.233 C  
HETATM    7  C   UNL     1      -8.857  11.230  69.078  1.00  0.00     0.026 C  
HETATM    8  C   UNL     1      -9.375  10.963  65.914  1.00  0.00    -0.226 C  
HETATM    9  C   UNL     1      -9.853   9.543  65.510  1.00  0.00    -0.304 C  
HETATM   10  C   UNL     1     -10.060  10.614  68.319  1.00  0.00    -0.176 C  
HETATM   11  C   UNL     1      -9.790   9.131  68.049  1.00  0.00    -0.197 C  
HETATM   12  C   UNL     1     -11.648  11.615  66.506  1.00  0.00    -0.166 C  
HETATM   13  C   UNL     1      -9.314   8.250  68.966  1.00  0.00    -0.147 C  
HETATM   14  C   UNL     1     -10.137   8.605  66.682  1.00  0.00    -0.364 C  
ENDROOT
BRANCH   3  15
HETATM   15  C   UNL     1     -11.596  15.793  69.952  1.00  0.00    -0.355 C  
BRANCH  15  16
HETATM   16  C   UNL     1     -11.756  15.825  71.463  1.00  0.00    -0.523 C  
HETATM   17  C   UNL     1     -14.271  15.188  71.282  1.00  0.00    -0.527 C  
HETATM   18  O   UNL     1     -13.055  15.030  73.342  1.00  0.00    -0.499 OA 
HETATM   19  C   UNL     1     -12.908  14.875  71.928  1.00  0.00    -0.328 C  
HETATM   20  C   UNL     1     -12.575  13.399  71.672  1.00  0.00    -0.284 C  
HETATM   21  H   UNL     1     -13.754  14.452  73.624  1.00  0.00     0.000 HD 
ENDBRANCH  15  16
ENDBRANCH   3  15
BRANCH  13  22
HETATM   22  C   UNL     1      -9.416   8.440  70.392  1.00  0.00    -0.179 C  
HETATM   23  C   UNL     1      -8.812   7.973  72.728  1.00  0.00    -0.277 C  
HETATM   24  C   UNL     1      -8.202   6.609  73.087  1.00  0.00    -0.112 C  
HETATM   25  C   UNL     1      -8.439   8.326  71.297  1.00  0.00    -0.164 C  
HETATM   26  O   UNL     1      -8.766   5.569  72.289  1.00  0.00    -0.128 OA 
HETATM   27  C   UNL     1      -6.681   6.637  72.911  1.00  0.00    -0.068 C  
HETATM   28  H   UNL     1      -8.388   4.726  72.511  1.00  0.00     0.000 HD 
HETATM   29  C   UNL     1      -6.260   7.087  71.508  1.00  0.00    -0.037 C  
HETATM   30  C   UNL     1      -7.008   8.321  71.048  1.00  0.00    -0.054 C  
HETATM   31  C   UNL     1      -6.376   9.393  70.523  1.00  0.00    -0.072 C  
ENDBRANCH  13  22
TORSDOF 3
ENDMDL
MODEL       36
REMARK 921   NORMALIZED FREE ENERGY PREDICTED BY IDOCK:   -6.10 KCAL/MOL
REMARK 922        TOTAL FREE ENERGY PREDICTED BY IDOCK:   -7.71 KCAL/MOL
REMARK 923 INTER-LIGAND FREE ENERGY PREDICTED BY IDOCK:   -6.86 KCAL/MOL
REMARK 924 INTRA-LIGAND FREE ENERGY PREDICTED BY IDOCK:   -0.85 KCAL/MOL
REMARK 927      BINDING AFFINITY PREDICTED BY RF-SCORE:    0.00 PKD
ROOT
HETATM    1  C   UNL     1     -12.023  12.996  67.179  1.00  0.00    -0.389 C  
HETATM    2  C   UNL     1     -10.754  12.702  68.014  1.00  0.00    -0.243 C  
HETATM    3  C   UNL     1     -10.558  13.989  68.933  1.00  0.00    -0.241 C  
HETATM    4  C   UNL     1      -9.474  12.232  67.167  1.00  0.00    -0.196 C  
HETATM    5  C   UNL     1      -8.263  12.027  68.092  1.00  0.00    -0.163 C  
HETATM    6  C   UNL     1      -9.574  10.798  66.422  1.00  0.00    -0.226 C  
HETATM    7  C   UNL     1      -8.245  10.552  68.467  1.00  0.00    -0.123 C  
HETATM    8  C   UNL     1      -8.554  10.540  65.264  1.00  0.00    -0.185 C  
HETATM    9  C   UNL     1      -8.710   9.106  64.690  1.00  0.00    -0.199 C  
HETATM   10  C   UNL     1      -9.260   9.796  67.572  1.00  0.00    -0.145 C  
HETATM   11  C   UNL     1      -8.677   8.436  67.173  1.00  0.00    -0.131 C  
HETATM   12  C   UNL     1     -10.937  10.653  65.765  1.00  0.00     0.091 C  
HETATM   13  C   UNL     1      -8.072   7.572  68.028  1.00  0.00    -0.124 C  
HETATM   14  C   UNL     1      -8.847   8.006  65.741  1.00  0.00    -0.170 C  
ENDROOT
BRANCH   3  15
HETATM   15  C   UNL     1     -11.904  14.348  69.605  1.00  0.00    -0.372 C  
BRANCH  15  16
HETATM   16  C   UNL     1     -12.414  13.621  70.839  1.00  0.00    -0.448 C  
HETATM   17  C   UNL     1     -12.217  15.778  72.279  1.00  0.00    -0.555 C  
HETATM   18  O   UNL     1     -13.482  13.871  72.994  1.00  0.00    -0.637 OA 
HETATM   19  C   UNL     1     -13.115  14.610  71.827  1.00  0.00    -0.341 C  
HETATM   20  C   UNL     1     -14.408  15.190  71.240  1.00  0.00    -0.512 C  
HETATM   21  H   UNL     1     -13.907  14.471  73.594  1.00  0.00     0.000 HD 
ENDBRANCH  15  16
ENDBRANCH   3  15
BRANCH  13  22
HETATM   22  C   UNL     1      -8.275   7.579  69.456  1.00  0.00    -0.130 C  
HETATM   23  C   UNL     1      -9.214   6.708  71.554  1.00  0.00    -0.146 C  
HETATM   24  C   UNL     1     -10.495   5.861  71.509  1.00  0.00    -0.233 C  
HETATM   25  C   UNL     1      -8.445   6.521  70.255  1.00  0.00    -0.135 C  
HETATM   26  O   UNL     1     -11.377   6.320  70.485  1.00  0.00    -0.337 OA 
HETATM   27  C   UNL     1     -10.156   4.385  71.283  1.00  0.00    -0.202 C  
HETATM   28  H   UNL     1     -12.168   5.797  70.457  1.00  0.00     0.000 HD 
HETATM   29  C   UNL     1      -9.294   4.164  70.036  1.00  0.00    -0.237 C  
HETATM   30  C   UNL     1      -8.134   5.134  69.955  1.00  0.00    -0.082 C  
HETATM   31  C   UNL     1      -6.870   4.728  69.711  1.00  0.00    -0.051 C  
ENDBRANCH  13  22
TORSDOF 3
ENDMDL
MODEL       37
REMARK 921   NORMALIZED FREE ENERGY PREDICTED BY IDOCK:   -6.09 KCAL/MOL
REMARK 922        TOTAL FREE ENERGY PREDICTED BY IDOCK:   -7.70 KCAL/MOL
REMARK 923 INTER-LIGAND FREE ENERGY PREDICTED BY IDOCK:   -7.13 KCAL/MOL
REMARK 924 INTRA-LIGAND FREE ENERGY PREDICTED BY IDOCK:   -0.57 KCAL/MOL
REMARK 927      BINDING AFFINITY PREDICTED BY RF-SCORE:    0.00 PKD
ROOT
HETATM    1  C   UNL     1     -10.354  14.222  65.049  1.00  0.00    -0.448 C  
HETATM    2  C   UNL     1      -9.803  13.781  66.426  1.00  0.00    -0.305 C  
HETATM    3  C   UNL     1      -9.308  15.126  67.122  1.00  0.00    -0.223 C  
HETATM    4  C   UNL     1      -8.748  12.572  66.384  1.00  0.00     0.046 C  
HETATM    5  C   UNL     1      -8.230  12.262  67.797  1.00  0.00    -0.161 C  
HETATM    6  C   UNL     1      -9.305  11.128  65.907  1.00  0.00    -0.235 C  
HETATM    7  C   UNL     1      -9.106  11.148  68.350  1.00  0.00    -0.168 C  
HETATM    8  C   UNL     1      -8.237  10.087  65.439  1.00  0.00    -0.149 C  
HETATM    9  C   UNL     1      -8.898   8.728  65.083  1.00  0.00    -0.177 C  
HETATM   10  C   UNL     1      -9.978  10.580  67.200  1.00  0.00    -0.234 C  
HETATM   11  C   UNL     1     -10.084   9.059  67.341  1.00  0.00    -0.291 C  
HETATM   12  C   UNL     1     -10.218  11.301  64.703  1.00  0.00    -0.357 C  
HETATM   13  C   UNL     1     -10.353   8.405  68.500  1.00  0.00    -0.232 C  
HETATM   14  C   UNL     1      -9.938   8.238  66.088  1.00  0.00    -0.061 C  
ENDROOT
BRANCH   3  15
HETATM   15  C   UNL     1     -10.411  16.204  66.997  1.00  0.00    -0.290 C  
BRANCH  15  16
HETATM   16  C   UNL     1     -11.126  16.774  68.211  1.00  0.00    -0.259 C  
HETATM   17  C   UNL     1     -12.083  14.436  68.834  1.00  0.00    -0.288 C  
HETATM   18  O   UNL     1     -12.073  16.269  70.379  1.00  0.00    -0.397 OA 
HETATM   19  C   UNL     1     -11.317  15.684  69.317  1.00  0.00    -0.345 C  
HETATM   20  C   UNL     1      -9.979  15.231  69.916  1.00  0.00    -0.176 C  
HETATM   21  H   UNL     1     -12.189  15.607  71.050  1.00  0.00     0.000 HD 
ENDBRANCH  15  16
ENDBRANCH   3  15
BRANCH  13  22
HETATM   22  C   UNL     1     -11.007   9.013  69.633  1.00  0.00    -0.147 C  
HETATM   23  C   UNL     1     -11.776   9.069  71.966  1.00  0.00    -0.417 C  
HETATM   24  C   UNL     1     -11.998   7.746  72.716  1.00  0.00    -0.129 C  
HETATM   25  C   UNL     1     -10.686   8.875  70.924  1.00  0.00    -0.292 C  
HETATM   26  O   UNL     1     -12.499   6.738  71.839  1.00  0.00    -0.375 OA 
HETATM   27  C   UNL     1     -10.697   7.271  73.368  1.00  0.00    -0.415 C  
HETATM   28  H   UNL     1     -12.636   5.921  72.302  1.00  0.00     0.000 HD 
HETATM   29  C   UNL     1      -9.544   7.160  72.365  1.00  0.00    -0.168 C  
HETATM   30  C   UNL     1      -9.436   8.376  71.470  1.00  0.00    -0.267 C  
HETATM   31  C   UNL     1      -8.266   9.019  71.263  1.00  0.00    -0.165 C  
ENDBRANCH  13  22
TORSDOF 3
ENDMDL
MODEL       38
REMARK 921   NORMALIZED FREE ENERGY PREDICTED BY IDOCK:   -6.08 KCAL/MOL
REMARK 922        TOTAL FREE ENERGY PREDICTED BY IDOCK:   -7.68 KCAL/MOL
REMARK 923 INTER-LIGAND FREE ENERGY PREDICTED BY IDOCK:   -7.06 KCAL/MOL
REMARK 924 INTRA-LIGAND FREE ENERGY PREDICTED BY IDOCK:   -0.63 KCAL/MOL
REMARK 927      BINDING AFFINITY PREDICTED BY RF-SCORE:    0.00 PKD
ROOT
HETATM    1  C   UNL     1     -12.550  14.633  68.201  1.00  0.00     0.552 C  
HETATM    2  C   UNL     1     -11.082  14.179  68.387  1.00  0.00    -0.273 C  
HETATM    3  C   UNL     1     -10.508  15.106  69.549  1.00  0.00    -0.268 C  
HETATM    4  C   UNL     1     -10.214  14.110  67.039  1.00  0.00    -0.260 C  
HETATM    5  C   UNL     1      -8.764  13.706  67.353  1.00  0.00    -0.214 C  
HETATM    6  C   UNL     1     -10.643  12.996  65.946  1.00  0.00    -0.288 C  
HETATM    7  C   UNL     1      -8.685  12.196  67.185  1.00  0.00    -0.190 C  
HETATM    8  C   UNL     1     -10.118  13.208  64.488  1.00  0.00    -0.244 C  
HETATM    9  C   UNL     1     -10.539  12.033  63.565  1.00  0.00    -0.514 C  
HETATM   10  C   UNL     1      -9.989  11.699  66.509  1.00  0.00    -0.230 C  
HETATM   11  C   UNL     1      -9.654  10.593  65.503  1.00  0.00    -0.271 C  
HETATM   12  C   UNL     1     -12.157  12.971  65.804  1.00  0.00    -0.510 C  
HETATM   13  C   UNL     1      -8.826   9.546  65.751  1.00  0.00    -0.193 C  
HETATM   14  C   UNL     1     -10.345  10.643  64.167  1.00  0.00    -0.293 C  
ENDROOT
BRANCH   3  15
HETATM   15  C   UNL     1     -11.506  15.123  70.731  1.00  0.00    -0.350 C  
BRANCH  15  16
HETATM   16  C   UNL     1     -12.245  13.874  71.186  1.00  0.00    -0.390 C  
HETATM   17  C   UNL     1     -12.595  14.863  73.566  1.00  0.00    -0.622 C  
HETATM   18  O   UNL     1     -13.834  12.971  72.769  1.00  0.00    -0.733 OA 
HETATM   19  C   UNL     1     -13.251  14.202  72.338  1.00  0.00    -0.472 C  
HETATM   20  C   UNL     1     -14.400  15.099  71.859  1.00  0.00    -0.693 C  
HETATM   21  H   UNL     1     -14.445  13.171  73.468  1.00  0.00     0.000 HD 
ENDBRANCH  15  16
ENDBRANCH   3  15
BRANCH  13  22
HETATM   22  C   UNL     1      -8.505   9.070  67.074  1.00  0.00    -0.120 C  
HETATM   23  C   UNL     1      -7.349   7.600  68.669  1.00  0.00    -0.091 C  
HETATM   24  C   UNL     1      -6.849   6.225  68.197  1.00  0.00    -0.070 C  
HETATM   25  C   UNL     1      -7.340   8.565  67.493  1.00  0.00    -0.089 C  
HETATM   26  O   UNL     1      -7.744   5.656  67.243  1.00  0.00    -0.098 OA 
HETATM   27  C   UNL     1      -5.446   6.340  67.595  1.00  0.00    -0.005 C  
HETATM   28  H   UNL     1      -7.435   4.806  66.951  1.00  0.00     0.000 HD 
HETATM   29  C   UNL     1      -5.372   7.379  66.471  1.00  0.00    -0.024 C  
HETATM   30  C   UNL     1      -6.047   8.682  66.843  1.00  0.00    -0.058 C  
HETATM   31  C   UNL     1      -5.448   9.880  66.668  1.00  0.00    -0.045 C  
ENDBRANCH  13  22
TORSDOF 3
ENDMDL
MODEL       39
REMARK 921   NORMALIZED FREE ENERGY PREDICTED BY IDOCK:   -6.06 KCAL/MOL
REMARK 922        TOTAL FREE ENERGY PREDICTED BY IDOCK:   -7.67 KCAL/MOL
REMARK 923 INTER-LIGAND FREE ENERGY PREDICTED BY IDOCK:   -6.93 KCAL/MOL
REMARK 924 INTRA-LIGAND FREE ENERGY PREDICTED BY IDOCK:   -0.74 KCAL/MOL
REMARK 927      BINDING AFFINITY PREDICTED BY RF-SCORE:    0.00 PKD
ROOT
HETATM    1  C   UNL     1     -11.208  11.875  66.141  1.00  0.00    -0.387 C  
HETATM    2  C   UNL     1     -10.199  11.912  67.313  1.00  0.00    -0.220 C  
HETATM    3  C   UNL     1     -10.162  13.436  67.777  1.00  0.00    -0.235 C  
HETATM    4  C   UNL     1      -8.779  11.225  67.013  1.00  0.00    -0.152 C  
HETATM    5  C   UNL     1      -7.844  11.374  68.223  1.00  0.00    -0.132 C  
HETATM    6  C   UNL     1      -8.774   9.623  66.780  1.00  0.00    -0.144 C  
HETATM    7  C   UNL     1      -7.999  10.109  69.054  1.00  0.00    -0.115 C  
HETATM    8  C   UNL     1      -7.519   9.026  66.062  1.00  0.00    -0.094 C  
HETATM    9  C   UNL     1      -7.610   7.479  65.971  1.00  0.00    -0.088 C  
HETATM   10  C   UNL     1      -8.806   9.069  68.235  1.00  0.00    -0.134 C  
HETATM   11  C   UNL     1      -8.220   7.672  68.462  1.00  0.00    -0.125 C  
HETATM   12  C   UNL     1      -9.943   9.229  65.891  1.00  0.00    -0.289 C  
HETATM   13  C   UNL     1      -7.889   7.158  69.675  1.00  0.00    -0.118 C  
HETATM   14  C   UNL     1      -8.059   6.786  67.256  1.00  0.00    -0.118 C  
ENDROOT
BRANCH   3  15
HETATM   15  C   UNL     1     -11.609  13.958  67.938  1.00  0.00    -0.377 C  
BRANCH  15  16
HETATM   16  C   UNL     1     -12.055  14.747  69.158  1.00  0.00    -0.278 C  
HETATM   17  C   UNL     1      -9.620  15.531  69.628  1.00  0.00    -0.264 C  
HETATM   18  O   UNL     1     -11.522  16.579  70.644  1.00  0.00    -0.541 OA 
HETATM   19  C   UNL     1     -11.091  15.947  69.436  1.00  0.00    -0.322 C  
HETATM   20  C   UNL     1     -11.157  17.006  68.328  1.00  0.00    -0.172 C  
HETATM   21  H   UNL     1     -10.937  17.308  70.812  1.00  0.00     0.000 HD 
ENDBRANCH  15  16
ENDBRANCH   3  15
BRANCH  13  22
HETATM   22  C   UNL     1      -8.433   7.633  70.924  1.00  0.00    -0.124 C  
HETATM   23  C   UNL     1     -10.253   8.400  72.386  1.00  0.00    -0.399 C  
HETATM   24  C   UNL     1     -11.516   9.010  71.757  1.00  0.00    -0.372 C  
HETATM   25  C   UNL     1      -9.651   7.392  71.421  1.00  0.00    -0.167 C  
HETATM   26  O   UNL     1     -11.194   9.762  70.588  1.00  0.00    -0.280 OA 
HETATM   27  C   UNL     1     -12.528   7.914  71.411  1.00  0.00    -0.330 C  
HETATM   28  H   UNL     1     -11.974  10.138  70.199  1.00  0.00     0.000 HD 
HETATM   29  C   UNL     1     -11.929   6.822  70.520  1.00  0.00    -0.385 C  
HETATM   30  C   UNL     1     -10.577   6.350  71.011  1.00  0.00    -0.282 C  
HETATM   31  C   UNL     1     -10.277   5.040  71.152  1.00  0.00    -0.281 C  
ENDBRANCH  13  22
TORSDOF 3
ENDMDL
MODEL       40
REMARK 921   NORMALIZED FREE ENERGY PREDICTED BY IDOCK:   -5.93 KCAL/MOL
REMARK 922        TOTAL FREE ENERGY PREDICTED BY IDOCK:   -7.51 KCAL/MOL
REMARK 923 INTER-LIGAND FREE ENERGY PREDICTED BY IDOCK:   -6.29 KCAL/MOL
REMARK 924 INTRA-LIGAND FREE ENERGY PREDICTED BY IDOCK:   -1.22 KCAL/MOL
REMARK 927      BINDING AFFINITY PREDICTED BY RF-SCORE:    0.00 PKD
ROOT
HETATM    1  C   UNL     1     -11.500  11.266  69.598  1.00  0.00    -0.380 C  
HETATM    2  C   UNL     1     -10.603  10.175  68.966  1.00  0.00    -0.245 C  
HETATM    3  C   UNL     1     -10.344  10.669  67.473  1.00  0.00    -0.254 C  
HETATM    4  C   UNL     1     -11.137   8.671  69.134  1.00  0.00     0.158 C  
HETATM    5  C   UNL     1     -10.200   7.685  68.419  1.00  0.00    -0.226 C  
HETATM    6  C   UNL     1     -11.174   8.070  70.637  1.00  0.00    -0.266 C  
HETATM    7  C   UNL     1      -9.212   7.186  69.464  1.00  0.00    -0.149 C  
HETATM    8  C   UNL     1     -12.084   6.819  70.867  1.00  0.00    -0.421 C  
HETATM    9  C   UNL     1     -11.968   6.303  72.327  1.00  0.00    -0.296 C  
HETATM   10  C   UNL     1      -9.695   7.638  70.866  1.00  0.00    -0.175 C  
HETATM   11  C   UNL     1      -9.444   6.518  71.880  1.00  0.00    -0.153 C  
HETATM   12  C   UNL     1     -11.718   9.116  71.597  1.00  0.00    -0.448 C  
HETATM   13  C   UNL     1      -8.287   5.815  71.987  1.00  0.00    -0.122 C  
HETATM   14  C   UNL     1     -10.541   6.221  72.866  1.00  0.00    -0.257 C  
ENDROOT
BRANCH   3  15
HETATM   15  C   UNL     1      -9.919  12.156  67.492  1.00  0.00    -0.202 C  
BRANCH  15  16
HETATM   16  C   UNL     1      -9.672  12.944  66.215  1.00  0.00    -0.268 C  
HETATM   17  C   UNL     1     -12.211  12.954  65.647  1.00  0.00    -0.519 C  
HETATM   18  O   UNL     1     -10.653  14.426  64.574  1.00  0.00    -0.592 OA 
HETATM   19  C   UNL     1     -10.929  13.790  65.824  1.00  0.00    -0.280 C  
HETATM   20  C   UNL     1     -11.212  14.904  66.840  1.00  0.00    -0.343 C  
HETATM   21  H   UNL     1     -11.415  14.939  64.336  1.00  0.00     0.000 HD 
ENDBRANCH  15  16
ENDBRANCH   3  15
BRANCH  13  22
HETATM   22  C   UNL     1      -7.012   6.287  71.506  1.00  0.00    -0.076 C  
HETATM   23  C   UNL     1      -5.150   7.887  71.403  1.00  0.00    -0.030 C  
HETATM   24  C   UNL     1      -5.396   9.353  71.794  1.00  0.00    -0.071 C  
HETATM   25  C   UNL     1      -6.102   6.995  72.184  1.00  0.00    -0.041 C  
HETATM   26  O   UNL     1      -6.703   9.774  71.404  1.00  0.00    -0.322 OA 
HETATM   27  C   UNL     1      -5.213   9.546  73.302  1.00  0.00    -0.056 C  
HETATM   28  H   UNL     1      -6.855  10.680  71.645  1.00  0.00     0.000 HD 
HETATM   29  C   UNL     1      -6.084   8.593  74.126  1.00  0.00    -0.142 C  
HETATM   30  C   UNL     1      -6.016   7.166  73.624  1.00  0.00    -0.057 C  
HETATM   31  C   UNL     1      -5.794   6.120  74.449  1.00  0.00    -0.063 C  
ENDBRANCH  13  22
TORSDOF 3
ENDMDL
MODEL       41
REMARK 921   NORMALIZED FREE ENERGY PREDICTED BY IDOCK:   -5.92 KCAL/MOL
REMARK 922        TOTAL FREE ENERGY PREDICTED BY IDOCK:   -7.50 KCAL/MOL
REMARK 923 INTER-LIGAND FREE ENERGY PREDICTED BY IDOCK:   -6.11 KCAL/MOL
REMARK 924 INTRA-LIGAND FREE ENERGY PREDICTED BY IDOCK:   -1.38 KCAL/MOL
REMARK 927      BINDING AFFINITY PREDICTED BY RF-SCORE:    0.00 PKD
ROOT
HETATM    1  C   UNL     1     -11.233  12.027  68.217  1.00  0.00    -0.315 C  
HETATM    2  C   UNL     1     -10.592  10.750  67.625  1.00  0.00    -0.271 C  
HETATM    3  C   UNL     1     -10.724  10.915  66.046  1.00  0.00    -0.208 C  
HETATM    4  C   UNL     1     -11.128   9.368  68.242  1.00  0.00     0.005 C  
HETATM    5  C   UNL     1     -10.464   8.173  67.539  1.00  0.00    -0.326 C  
HETATM    6  C   UNL     1     -10.783   9.077  69.797  1.00  0.00    -0.233 C  
HETATM    7  C   UNL     1      -9.255   7.789  68.379  1.00  0.00    -0.137 C  
HETATM    8  C   UNL     1     -11.653   7.993  70.514  1.00  0.00    -0.141 C  
HETATM    9  C   UNL     1     -11.169   7.761  71.971  1.00  0.00    -0.327 C  
HETATM   10  C   UNL     1      -9.319   8.551  69.727  1.00  0.00    -0.161 C  
HETATM   11  C   UNL     1      -8.854   7.629  70.859  1.00  0.00    -0.146 C  
HETATM   12  C   UNL     1     -10.999  10.339  70.617  1.00  0.00    -0.287 C  
HETATM   13  C   UNL     1      -7.744   6.848  70.815  1.00  0.00    -0.092 C  
HETATM   14  C   UNL     1      -9.655   7.642  72.132  1.00  0.00    -0.207 C  
ENDROOT
BRANCH   3  15
HETATM   15  C   UNL     1     -10.243  12.328  65.636  1.00  0.00    -0.287 C  
BRANCH  15  16
HETATM   16  C   UNL     1     -10.739  13.019  64.377  1.00  0.00    -0.414 C  
HETATM   17  C   UNL     1     -12.810  13.970  65.630  1.00  0.00    -0.442 C  
HETATM   18  O   UNL     1     -12.102  14.815  63.501  1.00  0.00    -0.837 OA 
HETATM   19  C   UNL     1     -11.600  14.277  64.727  1.00  0.00    -0.401 C  
HETATM   20  C   UNL     1     -10.765  15.380  65.390  1.00  0.00    -0.416 C  
HETATM   21  H   UNL     1     -12.625  15.579  63.714  1.00  0.00     0.000 HD 
ENDBRANCH  15  16
ENDBRANCH   3  15
BRANCH  13  22
HETATM   22  C   UNL     1      -6.627   7.087  69.934  1.00  0.00    -0.044 C  
HETATM   23  C   UNL     1      -5.132   8.517  68.608  1.00  0.00    -0.029 C  
HETATM   24  C   UNL     1      -5.635   9.887  68.126  1.00  0.00    -0.039 C  
HETATM   25  C   UNL     1      -5.829   8.160  69.911  1.00  0.00    -0.022 C  
HETATM   26  O   UNL     1      -7.024   9.837  67.802  1.00  0.00    -0.083 OA 
HETATM   27  C   UNL     1      -5.384  10.958  69.191  1.00  0.00    -0.041 C  
HETATM   28  H   UNL     1      -7.335  10.683  67.504  1.00  0.00     0.000 HD 
HETATM   29  C   UNL     1      -5.986  10.587  70.550  1.00  0.00    -0.117 C  
HETATM   30  C   UNL     1      -5.673   9.161  70.952  1.00  0.00    -0.043 C  
HETATM   31  C   UNL     1      -5.188   8.845  72.172  1.00  0.00    -0.051 C  
ENDBRANCH  13  22
TORSDOF 3
ENDMDL
MODEL       42
REMARK 921   NORMALIZED FREE ENERGY PREDICTED BY IDOCK:   -5.91 KCAL/MOL
REMARK 922        TOTAL FREE ENERGY PREDICTED BY IDOCK:   -7.49 KCAL/MOL
REMARK 923 INTER-LIGAND FREE ENERGY PREDICTED BY IDOCK:   -6.27 KCAL/MOL
REMARK 924 INTRA-LIGAND FREE ENERGY PREDICTED BY IDOCK:   -1.22 KCAL/MOL
REMARK 927      BINDING AFFINITY PREDICTED BY RF-SCORE:    0.00 PKD
ROOT
HETATM    1  C   UNL     1      -7.398   7.517  71.574  1.00  0.00    -0.075 C  
HETATM    2  C   UNL     1      -7.992   7.562  70.146  1.00  0.00    -0.111 C  
HETATM    3  C   UNL     1      -8.556   6.094  69.887  1.00  0.00    -0.132 C  
HETATM    4  C   UNL     1      -7.016   8.157  69.019  1.00  0.00    -0.061 C  
HETATM    5  C   UNL     1      -7.690   8.098  67.639  1.00  0.00    -0.102 C  
HETATM    6  C   UNL     1      -6.630   9.725  69.137  1.00  0.00    -0.052 C  
HETATM    7  C   UNL     1      -8.356   9.448  67.420  1.00  0.00    -0.125 C  
HETATM    8  C   UNL     1      -5.366  10.195  68.344  1.00  0.00    -0.035 C  
HETATM    9  C   UNL     1      -5.155  11.727  68.484  1.00  0.00    -0.042 C  
HETATM   10  C   UNL     1      -7.875  10.429  68.520  1.00  0.00    -0.107 C  
HETATM   11  C   UNL     1      -7.661  11.817  67.910  1.00  0.00    -0.125 C  
HETATM   12  C   UNL     1      -6.319  10.071  70.585  1.00  0.00    -0.100 C  
HETATM   13  C   UNL     1      -8.534  12.440  67.077  1.00  0.00    -0.170 C  
HETATM   14  C   UNL     1      -6.421  12.566  68.317  1.00  0.00    -0.067 C  
ENDROOT
BRANCH   3  15
HETATM   15  C   UNL     1      -9.403   5.649  71.103  1.00  0.00    -0.180 C  
BRANCH  15  16
HETATM   16  C   UNL     1     -10.922   5.698  71.094  1.00  0.00    -0.248 C  
HETATM   17  C   UNL     1     -11.018   5.416  73.678  1.00  0.00    -0.274 C  
HETATM   18  O   UNL     1     -12.904   6.163  72.400  1.00  0.00    -0.519 OA 
HETATM   19  C   UNL     1     -11.477   6.233  72.455  1.00  0.00    -0.293 C  
HETATM   20  C   UNL     1     -11.110   7.704  72.687  1.00  0.00    -0.412 C  
HETATM   21  H   UNL     1     -13.241   6.488  73.226  1.00  0.00     0.000 HD 
ENDBRANCH  15  16
ENDBRANCH   3  15
BRANCH  13  22
HETATM   22  C   UNL     1      -9.938  12.120  66.998  1.00  0.00    -0.213 C  
HETATM   23  C   UNL     1     -12.160  12.193  65.952  1.00  0.00    -0.128 C  
HETATM   24  C   UNL     1     -12.507  13.351  65.003  1.00  0.00    -0.428 C  
HETATM   25  C   UNL     1     -10.664  11.928  65.892  1.00  0.00    -0.326 C  
HETATM   26  O   UNL     1     -11.897  14.566  65.435  1.00  0.00    -0.354 OA 
HETATM   27  C   UNL     1     -12.067  13.025  63.573  1.00  0.00    -0.617 C  
HETATM   28  H   UNL     1     -12.111  15.282  64.849  1.00  0.00     0.000 HD 
HETATM   29  C   UNL     1     -10.583  12.653  63.486  1.00  0.00    -0.301 C  
HETATM   30  C   UNL     1     -10.171  11.661  64.552  1.00  0.00    -0.337 C  
HETATM   31  C   UNL     1      -9.467  10.544  64.266  1.00  0.00    -0.337 C  
ENDBRANCH  13  22
TORSDOF 3
ENDMDL
MODEL       43
REMARK 921   NORMALIZED FREE ENERGY PREDICTED BY IDOCK:   -5.87 KCAL/MOL
REMARK 922        TOTAL FREE ENERGY PREDICTED BY IDOCK:   -7.44 KCAL/MOL
REMARK 923 INTER-LIGAND FREE ENERGY PREDICTED BY IDOCK:   -6.38 KCAL/MOL
REMARK 924 INTRA-LIGAND FREE ENERGY PREDICTED BY IDOCK:   -1.06 KCAL/MOL
REMARK 927      BINDING AFFINITY PREDICTED BY RF-SCORE:    0.00 PKD
ROOT
HETATM    1  C   UNL     1     -12.415   8.390  72.117  1.00  0.00    -0.422 C  
HETATM    2  C   UNL     1     -11.030   8.388  71.428  1.00  0.00    -0.311 C  
HETATM    3  C   UNL     1     -10.093   7.529  72.389  1.00  0.00    -0.252 C  
HETATM    4  C   UNL     1     -10.476   9.833  71.003  1.00  0.00    -0.230 C  
HETATM    5  C   UNL     1      -9.074   9.711  70.384  1.00  0.00    -0.245 C  
HETATM    6  C   UNL     1     -11.288  10.616  69.841  1.00  0.00    -0.386 C  
HETATM    7  C   UNL     1      -9.268   9.618  68.878  1.00  0.00    -0.147 C  
HETATM    8  C   UNL     1     -11.046  12.158  69.738  1.00  0.00     0.042 C  
HETATM    9  C   UNL     1     -11.824  12.768  68.541  1.00  0.00    -0.345 C  
HETATM   10  C   UNL     1     -10.743   9.955  68.541  1.00  0.00    -0.260 C  
HETATM   11  C   UNL     1     -10.797  10.789  67.258  1.00  0.00    -0.344 C  
HETATM   12  C   UNL     1     -12.784  10.483  70.080  1.00  0.00    -0.191 C  
HETATM   13  C   UNL     1     -10.110  10.508  66.121  1.00  0.00    -0.306 C  
HETATM   14  C   UNL     1     -11.730  11.970  67.242  1.00  0.00    -0.339 C  
ENDROOT
BRANCH   3  15
HETATM   15  C   UNL     1     -10.814   6.212  72.765  1.00  0.00    -0.282 C  
BRANCH  15  16
HETATM   16  C   UNL     1     -10.831   5.006  71.839  1.00  0.00    -0.118 C  
HETATM   17  C   UNL     1      -8.613   4.105  72.857  1.00  0.00    -0.100 C  
HETATM   18  O   UNL     1     -10.055   2.738  71.516  1.00  0.00    -0.112 OA 
HETATM   19  C   UNL     1     -10.074   3.795  72.478  1.00  0.00    -0.167 C  
HETATM   20  C   UNL     1     -10.795   3.257  73.721  1.00  0.00    -0.310 C  
HETATM   21  H   UNL     1      -9.596   2.003  71.904  1.00  0.00     0.000 HD 
ENDBRANCH  15  16
ENDBRANCH   3  15
BRANCH  13  22
HETATM   22  C   UNL     1      -9.604   9.198  65.791  1.00  0.00    -0.323 C  
HETATM   23  C   UNL     1      -8.282   7.619  64.450  1.00  0.00    -0.032 C  
HETATM   24  C   UNL     1      -7.936   7.974  62.995  1.00  0.00    -0.148 C  
HETATM   25  C   UNL     1      -8.414   8.900  65.259  1.00  0.00    -0.185 C  
HETATM   26  O   UNL     1      -9.002   8.694  62.378  1.00  0.00    -0.433 OA 
HETATM   27  C   UNL     1      -6.645   8.794  62.934  1.00  0.00    -0.091 C  
HETATM   28  H   UNL     1      -8.789   8.914  61.479  1.00  0.00     0.000 HD 
HETATM   29  C   UNL     1      -6.701  10.045  63.817  1.00  0.00    -0.128 C  
HETATM   30  C   UNL     1      -7.239   9.752  65.202  1.00  0.00    -0.122 C  
HETATM   31  C   UNL     1      -6.615  10.175  66.323  1.00  0.00    -0.094 C  
ENDBRANCH  13  22
TORSDOF 3
ENDMDL
MODEL       44
REMARK 921   NORMALIZED FREE ENERGY PREDICTED BY IDOCK:   -5.84 KCAL/MOL
REMARK 922        TOTAL FREE ENERGY PREDICTED BY IDOCK:   -7.41 KCAL/MOL
REMARK 923 INTER-LIGAND FREE ENERGY PREDICTED BY IDOCK:   -6.74 KCAL/MOL
REMARK 924 INTRA-LIGAND FREE ENERGY PREDICTED BY IDOCK:   -0.67 KCAL/MOL
REMARK 927      BINDING AFFINITY PREDICTED BY RF-SCORE:    0.00 PKD
ROOT
HETATM    1  C   UNL     1      -5.778  17.311  67.165  1.00  0.00    -0.180 C  
HETATM    2  C   UNL     1      -7.167  17.032  67.787  1.00  0.00    -0.165 C  
HETATM    3  C   UNL     1      -7.849  18.465  67.932  1.00  0.00    -0.267 C  
HETATM    4  C   UNL     1      -7.153  16.115  69.104  1.00  0.00    -0.209 C  
HETATM    5  C   UNL     1      -8.576  15.956  69.663  1.00  0.00     0.044 C  
HETATM    6  C   UNL     1      -6.690  14.574  68.920  1.00  0.00    -0.099 C  
HETATM    7  C   UNL     1      -9.134  14.668  69.076  1.00  0.00    -0.097 C  
HETATM    8  C   UNL     1      -6.248  13.818  70.216  1.00  0.00    -0.090 C  
HETATM    9  C   UNL     1      -5.904  12.336  69.909  1.00  0.00    -0.140 C  
HETATM   10  C   UNL     1      -7.984  13.894  68.383  1.00  0.00    -0.144 C  
HETATM   11  C   UNL     1      -8.144  12.393  68.647  1.00  0.00    -0.020 C  
HETATM   12  C   UNL     1      -5.475  14.507  68.009  1.00  0.00    -0.122 C  
HETATM   13  C   UNL     1      -9.310  11.706  68.529  1.00  0.00    -0.169 C  
HETATM   14  C   UNL     1      -6.904  11.619  69.005  1.00  0.00    -0.105 C  
ENDROOT
BRANCH   3  15
HETATM   15  C   UNL     1      -7.698  19.241  66.602  1.00  0.00    -0.267 C  
BRANCH  15  16
HETATM   16  C   UNL     1      -8.883  19.883  65.900  1.00  0.00    -0.170 C  
HETATM   17  C   UNL     1     -10.170  17.623  65.856  1.00  0.00    -0.240 C  
HETATM   18  O   UNL     1     -11.256  19.723  65.457  1.00  0.00    -0.262 OA 
HETATM   19  C   UNL     1     -10.210  19.119  66.222  1.00  0.00    -0.452 C  
HETATM   20  C   UNL     1     -10.604  19.248  67.699  1.00  0.00    -0.553 C  
HETATM   21  H   UNL     1     -12.061  19.259  65.653  1.00  0.00     0.000 HD 
ENDBRANCH  15  16
ENDBRANCH   3  15
BRANCH  13  22
HETATM   22  C   UNL     1     -10.427  12.150  67.731  1.00  0.00    -0.222 C  
HETATM   23  C   UNL     1     -11.516  12.782  65.621  1.00  0.00    -0.379 C  
HETATM   24  C   UNL     1     -10.654  13.276  64.449  1.00  0.00    -0.419 C  
HETATM   25  C   UNL     1     -10.703  11.815  66.467  1.00  0.00    -0.304 C  
HETATM   26  O   UNL     1      -9.541  14.036  64.917  1.00  0.00    -0.498 OA 
HETATM   27  C   UNL     1     -10.163  12.095  63.607  1.00  0.00    -0.459 C  
HETATM   28  H   UNL     1      -9.008  14.341  64.193  1.00  0.00     0.000 HD 
HETATM   29  C   UNL     1      -9.424  11.045  64.443  1.00  0.00    -0.273 C  
HETATM   30  C   UNL     1     -10.164  10.694  65.717  1.00  0.00    -0.317 C  
HETATM   31  C   UNL     1     -10.393   9.416  66.090  1.00  0.00    -0.162 C  
ENDBRANCH  13  22
TORSDOF 3
ENDMDL
MODEL       45
REMARK 921   NORMALIZED FREE ENERGY PREDICTED BY IDOCK:   -5.69 KCAL/MOL
REMARK 922        TOTAL FREE ENERGY PREDICTED BY IDOCK:   -7.23 KCAL/MOL
REMARK 923 INTER-LIGAND FREE ENERGY PREDICTED BY IDOCK:   -5.68 KCAL/MOL
REMARK 924 INTRA-LIGAND FREE ENERGY PREDICTED BY IDOCK:   -1.56 KCAL/MOL
REMARK 927      BINDING AFFINITY PREDICTED BY RF-SCORE:    0.00 PKD
ROOT
HETATM    1  C   UNL     1      -8.801  10.339  69.147  1.00  0.00    -0.182 C  
HETATM    2  C   UNL     1      -9.943   9.304  69.284  1.00  0.00    -0.180 C  
HETATM    3  C   UNL     1     -11.106   9.846  68.339  1.00  0.00    -0.193 C  
HETATM    4  C   UNL     1     -10.361   8.945  70.792  1.00  0.00    -0.283 C  
HETATM    5  C   UNL     1     -11.538   7.957  70.802  1.00  0.00    -0.258 C  
HETATM    6  C   UNL     1      -9.263   8.169  71.693  1.00  0.00    -0.220 C  
HETATM    7  C   UNL     1     -10.937   6.563  70.903  1.00  0.00    -0.325 C  
HETATM    8  C   UNL     1      -9.471   8.215  73.242  1.00  0.00    -0.290 C  
HETATM    9  C   UNL     1      -8.395   7.372  73.977  1.00  0.00    -0.217 C  
HETATM   10  C   UNL     1      -9.427   6.692  71.229  1.00  0.00    -0.166 C  
HETATM   11  C   UNL     1      -9.023   5.599  72.223  1.00  0.00    -0.141 C  
HETATM   12  C   UNL     1      -7.891   8.787  71.477  1.00  0.00    -0.147 C  
HETATM   13  C   UNL     1      -9.370   4.290  72.119  1.00  0.00    -0.174 C  
HETATM   14  C   UNL     1      -8.125   6.000  73.362  1.00  0.00    -0.111 C  
ENDROOT
BRANCH   3  15
HETATM   15  C   UNL     1     -10.513  10.220  66.960  1.00  0.00    -0.304 C  
BRANCH  15  16
HETATM   16  C   UNL     1     -10.028   9.169  65.975  1.00  0.00    -0.293 C  
HETATM   17  C   UNL     1     -10.065  10.883  64.019  1.00  0.00    -0.419 C  
HETATM   18  O   UNL     1      -8.908   8.789  63.865  1.00  0.00    -0.426 OA 
HETATM   19  C   UNL     1      -9.250   9.826  64.788  1.00  0.00    -0.261 C  
HETATM   20  C   UNL     1      -7.934  10.467  65.247  1.00  0.00    -0.143 C  
HETATM   21  H   UNL     1      -8.436   9.188  63.144  1.00  0.00     0.000 HD 
ENDBRANCH  15  16
ENDBRANCH   3  15
BRANCH  13  22
HETATM   22  C   UNL     1      -9.762   3.658  70.883  1.00  0.00    -0.229 C  
HETATM   23  C   UNL     1      -9.588   3.243  68.467  1.00  0.00    -0.125 C  
HETATM   24  C   UNL     1      -8.952   4.313  67.565  1.00  0.00    -0.117 C  
HETATM   25  C   UNL     1      -8.972   3.330  69.855  1.00  0.00    -0.173 C  
HETATM   26  O   UNL     1      -9.266   5.625  68.029  1.00  0.00    -0.108 OA 
HETATM   27  C   UNL     1      -7.434   4.130  67.501  1.00  0.00    -0.069 C  
HETATM   28  H   UNL     1      -8.874   6.286  67.471  1.00  0.00     0.000 HD 
HETATM   29  C   UNL     1      -6.786   4.111  68.889  1.00  0.00    -0.046 C  
HETATM   30  C   UNL     1      -7.525   3.215  69.861  1.00  0.00    -0.044 C  
HETATM   31  C   UNL     1      -6.890   2.296  70.621  1.00  0.00    -0.033 C  
ENDBRANCH  13  22
TORSDOF 3
ENDMDL
MODEL       46
REMARK 921   NORMALIZED FREE ENERGY PREDICTED BY IDOCK:   -5.67 KCAL/MOL
REMARK 922        TOTAL FREE ENERGY PREDICTED BY IDOCK:   -7.20 KCAL/MOL
REMARK 923 INTER-LIGAND FREE ENERGY PREDICTED BY IDOCK:   -5.60 KCAL/MOL
REMARK 924 INTRA-LIGAND FREE ENERGY PREDICTED BY IDOCK:   -1.61 KCAL/MOL
REMARK 927      BINDING AFFINITY PREDICTED BY RF-SCORE:    0.00 PKD
ROOT
HETATM    1  C   UNL     1      -6.329   9.668  70.967  1.00  0.00    -0.063 C  
HETATM    2  C   UNL     1      -7.031   9.627  69.589  1.00  0.00    -0.071 C  
HETATM    3  C   UNL     1      -7.273   8.079  69.295  1.00  0.00    -0.076 C  
HETATM    4  C   UNL     1      -6.305  10.465  68.428  1.00  0.00    -0.051 C  
HETATM    5  C   UNL     1      -7.057  10.302  67.097  1.00  0.00    -0.089 C  
HETATM    6  C   UNL     1      -6.269  12.074  68.598  1.00  0.00    -0.055 C  
HETATM    7  C   UNL     1      -8.023  11.474  66.995  1.00  0.00    -0.161 C  
HETATM    8  C   UNL     1      -5.209  12.844  67.743  1.00  0.00    -0.108 C  
HETATM    9  C   UNL     1      -5.333  14.378  67.946  1.00  0.00    -0.076 C  
HETATM   10  C   UNL     1      -7.684  12.499  68.107  1.00  0.00    -0.141 C  
HETATM   11  C   UNL     1      -7.834  13.921  67.556  1.00  0.00    -0.193 C  
HETATM   12  C   UNL     1      -5.927  12.432  70.036  1.00  0.00    -0.149 C  
HETATM   13  C   UNL     1      -8.887  14.359  66.819  1.00  0.00    -0.225 C  
HETATM   14  C   UNL     1      -6.762  14.915  67.912  1.00  0.00    -0.175 C  
ENDROOT
BRANCH   3  15
HETATM   15  C   UNL     1      -7.900   7.413  70.544  1.00  0.00    -0.097 C  
BRANCH  15  16
HETATM   16  C   UNL     1      -9.130   6.524  70.456  1.00  0.00    -0.152 C  
HETATM   17  C   UNL     1     -10.616   8.351  71.561  1.00  0.00    -0.307 C  
HETATM   18  O   UNL     1     -11.547   6.477  70.392  1.00  0.00    -0.375 OA 
HETATM   19  C   UNL     1     -10.438   7.378  70.379  1.00  0.00    -0.221 C  
HETATM   20  C   UNL     1     -10.527   8.179  69.073  1.00  0.00    -0.211 C  
HETATM   21  H   UNL     1     -12.341   6.995  70.345  1.00  0.00     0.000 HD 
ENDBRANCH  15  16
ENDBRANCH   3  15
BRANCH  13  22
HETATM   22  C   UNL     1     -10.187  13.733  66.823  1.00  0.00    -0.268 C  
HETATM   23  C   UNL     1     -12.146  12.727  67.914  1.00  0.00    -0.187 C  
HETATM   24  C   UNL     1     -11.995  12.118  69.317  1.00  0.00    -0.262 C  
HETATM   25  C   UNL     1     -11.143  13.858  67.750  1.00  0.00    -0.281 C  
HETATM   26  O   UNL     1     -10.715  11.506  69.473  1.00  0.00    -0.428 OA 
HETATM   27  C   UNL     1     -12.198  13.188  70.392  1.00  0.00    -0.389 C  
HETATM   28  H   UNL     1     -10.621  11.129  70.340  1.00  0.00     0.000 HD 
HETATM   29  C   UNL     1     -11.273  14.394  70.203  1.00  0.00    -0.152 C  
HETATM   30  C   UNL     1     -11.248  14.885  68.771  1.00  0.00    -0.288 C  
HETATM   31  C   UNL     1     -11.408  16.188  68.452  1.00  0.00    -0.345 C  
ENDBRANCH  13  22
TORSDOF 3
ENDMDL
MODEL       47
REMARK 921   NORMALIZED FREE ENERGY PREDICTED BY IDOCK:   -5.61 KCAL/MOL
REMARK 922        TOTAL FREE ENERGY PREDICTED BY IDOCK:   -7.14 KCAL/MOL
REMARK 923 INTER-LIGAND FREE ENERGY PREDICTED BY IDOCK:   -6.10 KCAL/MOL
REMARK 924 INTRA-LIGAND FREE ENERGY PREDICTED BY IDOCK:   -1.04 KCAL/MOL
REMARK 927      BINDING AFFINITY PREDICTED BY RF-SCORE:    0.00 PKD
ROOT
HETATM    1  C   UNL     1      -9.429   5.868  67.615  1.00  0.00    -0.110 C  
HETATM    2  C   UNL     1      -8.525   7.121  67.528  1.00  0.00    -0.123 C  
HETATM    3  C   UNL     1      -7.098   6.570  67.083  1.00  0.00    -0.076 C  
HETATM    4  C   UNL     1      -8.549   8.071  68.821  1.00  0.00    -0.128 C  
HETATM    5  C   UNL     1      -7.573   9.245  68.644  1.00  0.00    -0.081 C  
HETATM    6  C   UNL     1      -9.939   8.835  69.145  1.00  0.00    -0.193 C  
HETATM    7  C   UNL     1      -8.384  10.406  68.086  1.00  0.00    -0.117 C  
HETATM    8  C   UNL     1     -10.113   9.383  70.600  1.00  0.00    -0.356 C  
HETATM    9  C   UNL     1     -11.451  10.155  70.750  1.00  0.00    -0.442 C  
HETATM   10  C   UNL     1      -9.891  10.052  68.175  1.00  0.00    -0.162 C  
HETATM   11  C   UNL     1     -10.686  11.297  68.577  1.00  0.00    -0.235 C  
HETATM   12  C   UNL     1     -11.107   7.880  68.958  1.00  0.00     0.201 C  
HETATM   13  C   UNL     1     -10.526  12.530  68.029  1.00  0.00    -0.227 C  
HETATM   14  C   UNL     1     -11.765  11.122  69.611  1.00  0.00    -0.410 C  
ENDROOT
BRANCH   3  15
HETATM   15  C   UNL     1      -7.270   5.610  65.882  1.00  0.00    -0.072 C  
BRANCH  15  16
HETATM   16  C   UNL     1      -8.084   5.988  64.654  1.00  0.00    -0.132 C  
HETATM   17  C   UNL     1      -7.508   3.733  63.492  1.00  0.00    -0.058 C  
HETATM   18  O   UNL     1      -9.289   5.147  62.733  1.00  0.00    -0.353 OA 
HETATM   19  C   UNL     1      -8.617   4.715  63.918  1.00  0.00    -0.132 C  
HETATM   20  C   UNL     1      -9.645   3.951  64.762  1.00  0.00    -0.177 C  
HETATM   21  H   UNL     1      -9.613   4.374  62.286  1.00  0.00     0.000 HD 
ENDBRANCH  15  16
ENDBRANCH   3  15
BRANCH  13  22
HETATM   22  C   UNL     1      -9.942  12.762  66.731  1.00  0.00    -0.237 C  
HETATM   23  C   UNL     1      -9.841  12.534  64.286  1.00  0.00    -0.114 C  
HETATM   24  C   UNL     1     -10.533  11.338  63.614  1.00  0.00    -0.405 C  
HETATM   25  C   UNL     1     -10.584  12.888  65.564  1.00  0.00    -0.298 C  
HETATM   26  O   UNL     1     -10.444  10.171  64.430  1.00  0.00    -0.333 OA 
HETATM   27  C   UNL     1     -12.001  11.661  63.320  1.00  0.00    -0.235 C  
HETATM   28  H   UNL     1     -10.872   9.431  64.014  1.00  0.00     0.000 HD 
HETATM   29  C   UNL     1     -12.762  12.120  64.568  1.00  0.00    -0.245 C  
HETATM   30  C   UNL     1     -11.997  13.157  65.364  1.00  0.00    -0.448 C  
HETATM   31  C   UNL     1     -12.566  14.308  65.783  1.00  0.00    -0.405 C  
ENDBRANCH  13  22
TORSDOF 3
ENDMDL
MODEL       48
REMARK 921   NORMALIZED FREE ENERGY PREDICTED BY IDOCK:   -5.60 KCAL/MOL
REMARK 922        TOTAL FREE ENERGY PREDICTED BY IDOCK:   -7.12 KCAL/MOL
REMARK 923 INTER-LIGAND FREE ENERGY PREDICTED BY IDOCK:   -6.65 KCAL/MOL
REMARK 924 INTRA-LIGAND FREE ENERGY PREDICTED BY IDOCK:   -0.48 KCAL/MOL
REMARK 927      BINDING AFFINITY PREDICTED BY RF-SCORE:    0.00 PKD
ROOT
HETATM    1  C   UNL     1      -7.336   6.418  70.006  1.00  0.00    -0.086 C  
HETATM    2  C   UNL     1      -8.807   6.733  69.644  1.00  0.00    -0.144 C  
HETATM    3  C   UNL     1      -9.674   5.738  70.537  1.00  0.00    -0.225 C  
HETATM    4  C   UNL     1      -9.136   6.747  68.073  1.00  0.00    -0.119 C  
HETATM    5  C   UNL     1     -10.632   7.012  67.839  1.00  0.00    -0.276 C  
HETATM    6  C   UNL     1      -8.446   7.915  67.190  1.00  0.00    -0.117 C  
HETATM    7  C   UNL     1     -10.782   8.511  67.629  1.00  0.00    -0.189 C  
HETATM    8  C   UNL     1      -8.389   7.682  65.644  1.00  0.00    -0.143 C  
HETATM    9  C   UNL     1      -7.774   8.907  64.915  1.00  0.00    -0.112 C  
HETATM   10  C   UNL     1      -9.374   9.137  67.458  1.00  0.00    -0.157 C  
HETATM   11  C   UNL     1      -9.425  10.226  66.383  1.00  0.00    -0.218 C  
HETATM   12  C   UNL     1      -6.992   8.081  67.601  1.00  0.00    -0.075 C  
HETATM   13  C   UNL     1     -10.378  11.189  66.299  1.00  0.00    -0.299 C  
HETATM   14  C   UNL     1      -8.298  10.262  65.385  1.00  0.00    -0.164 C  
ENDROOT
BRANCH   3  15
HETATM   15  C   UNL     1      -9.170   5.791  71.999  1.00  0.00    -0.156 C  
BRANCH  15  16
HETATM   16  C   UNL     1      -8.394   4.646  72.630  1.00  0.00    -0.114 C  
HETATM   17  C   UNL     1     -10.255   4.270  74.408  1.00  0.00    -0.273 C  
HETATM   18  O   UNL     1      -8.550   2.642  73.974  1.00  0.00    -0.070 OA 
HETATM   19  C   UNL     1      -9.356   3.632  73.331  1.00  0.00    -0.104 C  
HETATM   20  C   UNL     1     -10.250   2.896  72.324  1.00  0.00    -0.180 C  
HETATM   21  H   UNL     1      -9.134   2.026  74.400  1.00  0.00     0.000 HD 
ENDBRANCH  15  16
ENDBRANCH   3  15
BRANCH  13  22
HETATM   22  C   UNL     1     -11.195  11.610  67.411  1.00  0.00    -0.358 C  
HETATM   23  C   UNL     1     -12.019  13.249  69.045  1.00  0.00    -0.336 C  
HETATM   24  C   UNL     1     -11.141  14.459  69.404  1.00  0.00    -0.261 C  
HETATM   25  C   UNL     1     -11.720  12.822  67.617  1.00  0.00    -0.422 C  
HETATM   26  O   UNL     1      -9.758  14.105  69.403  1.00  0.00    -0.396 OA 
HETATM   27  C   UNL     1     -11.386  15.611  68.427  1.00  0.00    -0.365 C  
HETATM   28  H   UNL     1      -9.215  14.852  69.625  1.00  0.00     0.000 HD 
HETATM   29  C   UNL     1     -11.194  15.193  66.965  1.00  0.00    -0.308 C  
HETATM   30  C   UNL     1     -11.885  13.885  66.642  1.00  0.00    -0.447 C  
HETATM   31  C   UNL     1     -12.684  13.739  65.562  1.00  0.00    -0.530 C  
ENDBRANCH  13  22
TORSDOF 3
ENDMDL
MODEL       49
REMARK 921   NORMALIZED FREE ENERGY PREDICTED BY IDOCK:   -5.56 KCAL/MOL
REMARK 922        TOTAL FREE ENERGY PREDICTED BY IDOCK:   -7.08 KCAL/MOL
REMARK 923 INTER-LIGAND FREE ENERGY PREDICTED BY IDOCK:   -5.59 KCAL/MOL
REMARK 924 INTRA-LIGAND FREE ENERGY PREDICTED BY IDOCK:   -1.49 KCAL/MOL
REMARK 927      BINDING AFFINITY PREDICTED BY RF-SCORE:    0.00 PKD
ROOT
HETATM    1  C   UNL     1      -7.324   7.613  66.280  1.00  0.00    -0.079 C  
HETATM    2  C   UNL     1      -8.602   6.797  66.590  1.00  0.00    -0.123 C  
HETATM    3  C   UNL     1      -8.690   5.711  65.428  1.00  0.00    -0.139 C  
HETATM    4  C   UNL     1      -9.923   7.670  66.848  1.00  0.00    -0.325 C  
HETATM    5  C   UNL     1     -11.135   6.754  67.087  1.00  0.00    -0.404 C  
HETATM    6  C   UNL     1      -9.941   8.601  68.173  1.00  0.00    -0.210 C  
HETATM    7  C   UNL     1     -11.259   6.579  68.593  1.00  0.00    -0.302 C  
HETATM    8  C   UNL     1     -10.990   9.760  68.198  1.00  0.00    -0.228 C  
HETATM    9  C   UNL     1     -10.949  10.523  69.550  1.00  0.00    -0.312 C  
HETATM   10  C   UNL     1     -10.315   7.588  69.295  1.00  0.00    -0.209 C  
HETATM   11  C   UNL     1     -11.003   8.150  70.542  1.00  0.00    -0.248 C  
HETATM   12  C   UNL     1      -8.600   9.301  68.327  1.00  0.00    -0.125 C  
HETATM   13  C   UNL     1     -11.661   7.405  71.467  1.00  0.00    -0.314 C  
HETATM   14  C   UNL     1     -10.883   9.631  70.788  1.00  0.00    -0.400 C  
ENDROOT
BRANCH   3  15
HETATM   15  C   UNL     1      -7.312   5.026  65.261  1.00  0.00    -0.072 C  
BRANCH  15  16
HETATM   16  C   UNL     1      -7.151   3.515  65.275  1.00  0.00    -0.066 C  
HETATM   17  C   UNL     1      -6.617   3.525  67.820  1.00  0.00    -0.042 C  
HETATM   18  O   UNL     1      -7.213   1.522  66.645  1.00  0.00    -0.048 OA 
HETATM   19  C   UNL     1      -7.474   2.927  66.688  1.00  0.00    -0.071 C  
HETATM   20  C   UNL     1      -8.953   3.096  67.057  1.00  0.00    -0.181 C  
HETATM   21  H   UNL     1      -7.409   1.166  67.503  1.00  0.00     0.000 HD 
ENDBRANCH  15  16
ENDBRANCH   3  15
BRANCH  13  22
HETATM   22  C   UNL     1     -11.441   5.994  71.666  1.00  0.00    -0.293 C  
HETATM   23  C   UNL     1     -10.032   3.997  71.927  1.00  0.00    -0.246 C  
HETATM   24  C   UNL     1      -8.606   4.004  71.352  1.00  0.00    -0.096 C  
HETATM   25  C   UNL     1     -10.422   5.416  72.311  1.00  0.00    -0.272 C  
HETATM   26  O   UNL     1      -8.548   4.747  70.136  1.00  0.00    -0.081 OA 
HETATM   27  C   UNL     1      -7.619   4.585  72.368  1.00  0.00    -0.084 C  
HETATM   28  H   UNL     1      -7.667   4.751  69.781  1.00  0.00     0.000 HD 
HETATM   29  C   UNL     1      -8.032   5.977  72.858  1.00  0.00    -0.106 C  
HETATM   30  C   UNL     1      -9.497   6.047  73.236  1.00  0.00    -0.142 C  
HETATM   31  C   UNL     1      -9.916   6.577  74.405  1.00  0.00    -0.374 C  
ENDBRANCH  13  22
TORSDOF 3
ENDMDL
MODEL       50
REMARK 921   NORMALIZED FREE ENERGY PREDICTED BY IDOCK:   -5.52 KCAL/MOL
REMARK 922        TOTAL FREE ENERGY PREDICTED BY IDOCK:   -7.03 KCAL/MOL
REMARK 923 INTER-LIGAND FREE ENERGY PREDICTED BY IDOCK:   -5.26 KCAL/MOL
REMARK 924 INTRA-LIGAND FREE ENERGY PREDICTED BY IDOCK:   -1.76 KCAL/MOL
REMARK 927      BINDING AFFINITY PREDICTED BY RF-SCORE:    0.00 PKD
ROOT
HETATM    1  C   UNL     1      -5.132  13.439  67.517  1.00  0.00     0.094 C  
HETATM    2  C   UNL     1      -6.395  13.165  68.369  1.00  0.00    -0.084 C  
HETATM    3  C   UNL     1      -6.173  13.993  69.712  1.00  0.00    -0.137 C  
HETATM    4  C   UNL     1      -6.777  11.616  68.544  1.00  0.00    -0.069 C  
HETATM    5  C   UNL     1      -8.008  11.466  69.452  1.00  0.00     0.257 C  
HETATM    6  C   UNL     1      -7.244  10.821  67.213  1.00  0.00    -0.096 C  
HETATM    7  C   UNL     1      -9.222  11.405  68.537  1.00  0.00    -0.174 C  
HETATM    8  C   UNL     1      -7.183   9.260  67.274  1.00  0.00    -0.087 C  
HETATM    9  C   UNL     1      -7.726   8.626  65.965  1.00  0.00    -0.100 C  
HETATM   10  C   UNL     1      -8.737  11.240  67.073  1.00  0.00    -0.152 C  
HETATM   11  C   UNL     1      -9.667  10.274  66.332  1.00  0.00    -0.252 C  
HETATM   12  C   UNL     1      -6.337  11.190  66.049  1.00  0.00    -0.004 C  
HETATM   13  C   UNL     1     -11.024  10.319  66.374  1.00  0.00     0.077 C  
HETATM   14  C   UNL     1      -9.024   9.242  65.445  1.00  0.00    -0.253 C  
ENDROOT
BRANCH   3  15
HETATM   15  C   UNL     1      -5.730  15.433  69.360  1.00  0.00    -0.102 C  
BRANCH  15  16
HETATM   16  C   UNL     1      -6.620  16.639  69.614  1.00  0.00    -0.154 C  
HETATM   17  C   UNL     1      -5.357  18.037  67.820  1.00  0.00    -0.146 C  
HETATM   18  O   UNL     1      -7.494  18.694  68.686  1.00  0.00    -0.291 OA 
HETATM   19  C   UNL     1      -6.721  17.543  68.341  1.00  0.00    -0.193 C  
HETATM   20  C   UNL     1      -7.454  16.839  67.192  1.00  0.00    -0.216 C  
HETATM   21  H   UNL     1      -7.555  19.243  67.913  1.00  0.00     0.000 HD 
ENDBRANCH  15  16
ENDBRANCH   3  15
BRANCH  13  22
HETATM   22  C   UNL     1     -11.779  11.496  66.727  1.00  0.00     0.008 C  
HETATM   23  C   UNL     1     -12.217  13.914  66.735  1.00  0.00    -0.438 C  
HETATM   24  C   UNL     1     -11.051  14.890  66.515  1.00  0.00    -0.341 C  
HETATM   25  C   UNL     1     -11.924  12.612  66.006  1.00  0.00    -0.478 C  
HETATM   26  O   UNL     1      -9.851  14.395  67.108  1.00  0.00    -0.245 OA 
HETATM   27  C   UNL     1     -10.832  15.138  65.020  1.00  0.00    -0.457 C  
HETATM   28  H   UNL     1      -9.130  14.998  66.972  1.00  0.00     0.000 HD 
HETATM   29  C   UNL     1     -10.632  13.840  64.232  1.00  0.00    -0.172 C  
HETATM   30  C   UNL     1     -11.655  12.783  64.588  1.00  0.00    -0.384 C  
HETATM   31  C   UNL     1     -12.348  12.104  63.649  1.00  0.00    -0.673 C  
ENDBRANCH  13  22
TORSDOF 3
ENDMDL
MODEL       51
REMARK 921   NORMALIZED FREE ENERGY PREDICTED BY IDOCK:   -5.47 KCAL/MOL
REMARK 922        TOTAL FREE ENERGY PREDICTED BY IDOCK:   -6.97 KCAL/MOL
REMARK 923 INTER-LIGAND FREE ENERGY PREDICTED BY IDOCK:   -5.51 KCAL/MOL
REMARK 924 INTRA-LIGAND FREE ENERGY PREDICTED BY IDOCK:   -1.47 KCAL/MOL
REMARK 927      BINDING AFFINITY PREDICTED BY RF-SCORE:    0.00 PKD
ROOT
HETATM    1  C   UNL     1      -9.472  10.821  69.796  1.00  0.00     0.328 C  
HETATM    2  C   UNL     1     -10.534   9.700  69.713  1.00  0.00    -0.263 C  
HETATM    3  C   UNL     1     -11.780  10.367  68.976  1.00  0.00    -0.167 C  
HETATM    4  C   UNL     1     -10.845   8.951  71.098  1.00  0.00    -0.352 C  
HETATM    5  C   UNL     1     -11.953   7.903  70.905  1.00  0.00    -0.211 C  
HETATM    6  C   UNL     1      -9.651   8.063  71.736  1.00  0.00    -0.231 C  
HETATM    7  C   UNL     1     -11.258   6.577  70.632  1.00  0.00    -0.386 C  
HETATM    8  C   UNL     1      -9.777   7.711  73.254  1.00  0.00    -0.346 C  
HETATM    9  C   UNL     1      -8.610   6.798  73.716  1.00  0.00    -0.153 C  
HETATM   10  C   UNL     1      -9.744   6.737  70.925  1.00  0.00    -0.186 C  
HETATM   11  C   UNL     1      -9.216   5.467  71.599  1.00  0.00    -0.159 C  
HETATM   12  C   UNL     1      -8.336   8.818  71.630  1.00  0.00    -0.190 C  
HETATM   13  C   UNL     1      -9.482   4.202  71.185  1.00  0.00    -0.234 C  
HETATM   14  C   UNL     1      -8.285   5.644  72.769  1.00  0.00    -0.112 C  
ENDROOT
BRANCH   3  15
HETATM   15  C   UNL     1     -11.289  11.113  67.713  1.00  0.00    -0.364 C  
BRANCH  15  16
HETATM   16  C   UNL     1     -11.901  12.429  67.261  1.00  0.00    -0.357 C  
HETATM   17  C   UNL     1      -9.659  13.687  67.656  1.00  0.00    -0.221 C  
HETATM   18  O   UNL     1     -11.444  14.627  66.362  1.00  0.00    -0.349 OA 
HETATM   19  C   UNL     1     -10.809  13.386  66.677  1.00  0.00    -0.282 C  
HETATM   20  C   UNL     1     -10.209  12.846  65.373  1.00  0.00    -0.301 C  
HETATM   21  H   UNL     1     -10.781  15.208  66.007  1.00  0.00     0.000 HD 
ENDBRANCH  15  16
ENDBRANCH   3  15
BRANCH  13  22
HETATM   22  C   UNL     1      -9.899   3.865  69.846  1.00  0.00    -0.136 C  
HETATM   23  C   UNL     1      -9.840   4.080  67.399  1.00  0.00    -0.124 C  
HETATM   24  C   UNL     1      -9.340   5.391  66.772  1.00  0.00    -0.134 C  
HETATM   25  C   UNL     1      -9.150   3.873  68.738  1.00  0.00    -0.195 C  
HETATM   26  O   UNL     1      -9.722   6.515  67.563  1.00  0.00    -0.119 OA 
HETATM   27  C   UNL     1      -7.819   5.362  66.604  1.00  0.00    -0.101 C  
HETATM   28  H   UNL     1      -9.413   7.325  67.176  1.00  0.00     0.000 HD 
HETATM   29  C   UNL     1      -7.089   5.055  67.916  1.00  0.00    -0.062 C  
HETATM   30  C   UNL     1      -7.700   3.885  68.658  1.00  0.00    -0.060 C  
HETATM   31  C   UNL     1      -6.955   2.865  69.137  1.00  0.00    -0.041 C  
ENDBRANCH  13  22
TORSDOF 3
ENDMDL
MODEL       52
REMARK 921   NORMALIZED FREE ENERGY PREDICTED BY IDOCK:   -5.46 KCAL/MOL
REMARK 922        TOTAL FREE ENERGY PREDICTED BY IDOCK:   -6.96 KCAL/MOL
REMARK 923 INTER-LIGAND FREE ENERGY PREDICTED BY IDOCK:   -5.53 KCAL/MOL
REMARK 924 INTRA-LIGAND FREE ENERGY PREDICTED BY IDOCK:   -1.43 KCAL/MOL
REMARK 927      BINDING AFFINITY PREDICTED BY RF-SCORE:    0.00 PKD
ROOT
HETATM    1  C   UNL     1     -10.924  10.347  67.623  1.00  0.00    -0.374 C  
HETATM    2  C   UNL     1      -9.530   9.805  68.019  1.00  0.00    -0.144 C  
HETATM    3  C   UNL     1      -9.358  10.190  69.555  1.00  0.00    -0.230 C  
HETATM    4  C   UNL     1      -8.329  10.230  67.042  1.00  0.00    -0.126 C  
HETATM    5  C   UNL     1      -6.991   9.684  67.565  1.00  0.00    -0.084 C  
HETATM    6  C   UNL     1      -8.366   9.639  65.535  1.00  0.00    -0.143 C  
HETATM    7  C   UNL     1      -6.758   8.354  66.864  1.00  0.00    -0.062 C  
HETATM    8  C   UNL     1      -7.488  10.378  64.473  1.00  0.00    -0.024 C  
HETATM    9  C   UNL     1      -7.558   9.666  63.095  1.00  0.00    -0.117 C  
HETATM   10  C   UNL     1      -7.792   8.203  65.719  1.00  0.00    -0.096 C  
HETATM   11  C   UNL     1      -7.119   7.559  64.503  1.00  0.00    -0.065 C  
HETATM   12  C   UNL     1      -9.780   9.725  64.983  1.00  0.00    -0.303 C  
HETATM   13  C   UNL     1      -6.312   6.468  64.552  1.00  0.00    -0.038 C  
HETATM   14  C   UNL     1      -7.429   8.145  63.152  1.00  0.00    -0.117 C  
ENDROOT
BRANCH   3  15
HETATM   15  C   UNL     1     -10.635   9.786  70.331  1.00  0.00    -0.365 C  
BRANCH  15  16
HETATM   16  C   UNL     1     -10.576   9.091  71.682  1.00  0.00    -0.434 C  
HETATM   17  C   UNL     1     -13.166   9.169  71.913  1.00  0.00    -0.479 C  
HETATM   18  O   UNL     1     -11.799   7.754  73.283  1.00  0.00    -0.651 OA 
HETATM   19  C   UNL     1     -11.895   8.299  71.965  1.00  0.00    -0.347 C  
HETATM   20  C   UNL     1     -12.074   7.117  71.004  1.00  0.00    -0.391 C  
HETATM   21  H   UNL     1     -12.600   7.273  73.455  1.00  0.00     0.000 HD 
ENDBRANCH  15  16
ENDBRANCH   3  15
BRANCH  13  22
HETATM   22  C   UNL     1      -6.322   5.507  65.628  1.00  0.00    -0.039 C  
HETATM   23  C   UNL     1      -7.411   4.172  67.381  1.00  0.00    -0.069 C  
HETATM   24  C   UNL     1      -8.742   4.656  67.977  1.00  0.00    -0.103 C  
HETATM   25  C   UNL     1      -7.303   4.654  65.943  1.00  0.00    -0.077 C  
HETATM   26  O   UNL     1      -8.778   6.081  68.059  1.00  0.00    -0.114 OA 
HETATM   27  C   UNL     1      -9.921   4.151  67.142  1.00  0.00    -0.102 C  
HETATM   28  H   UNL     1      -9.600   6.380  68.427  1.00  0.00     0.000 HD 
HETATM   29  C   UNL     1      -9.798   4.530  65.662  1.00  0.00    -0.227 C  
HETATM   30  C   UNL     1      -8.419   4.250  65.105  1.00  0.00    -0.116 C  
HETATM   31  C   UNL     1      -8.230   3.583  63.947  1.00  0.00    -0.090 C  
ENDBRANCH  13  22
TORSDOF 3
ENDMDL
MODEL       53
REMARK 921   NORMALIZED FREE ENERGY PREDICTED BY IDOCK:   -5.42 KCAL/MOL
REMARK 922        TOTAL FREE ENERGY PREDICTED BY IDOCK:   -6.91 KCAL/MOL
REMARK 923 INTER-LIGAND FREE ENERGY PREDICTED BY IDOCK:   -6.25 KCAL/MOL
REMARK 924 INTRA-LIGAND FREE ENERGY PREDICTED BY IDOCK:   -0.66 KCAL/MOL
REMARK 927      BINDING AFFINITY PREDICTED BY RF-SCORE:    0.00 PKD
ROOT
HETATM    1  C   UNL     1      -7.958   6.856  72.881  1.00  0.00    -0.109 C  
HETATM    2  C   UNL     1      -8.562   6.928  71.459  1.00  0.00    -0.122 C  
HETATM    3  C   UNL     1      -9.358   5.559  71.280  1.00  0.00    -0.176 C  
HETATM    4  C   UNL     1      -7.523   7.303  70.294  1.00  0.00    -0.084 C  
HETATM    5  C   UNL     1      -8.222   7.287  68.925  1.00  0.00    -0.125 C  
HETATM    6  C   UNL     1      -6.889   8.793  70.330  1.00  0.00    -0.042 C  
HETATM    7  C   UNL     1      -8.667   8.714  68.645  1.00  0.00    -0.138 C  
HETATM    8  C   UNL     1      -5.581   9.015  69.502  1.00  0.00    -0.034 C  
HETATM    9  C   UNL     1      -5.125  10.498  69.563  1.00  0.00    -0.038 C  
HETATM   10  C   UNL     1      -8.016   9.656  69.690  1.00  0.00    -0.137 C  
HETATM   11  C   UNL     1      -7.594  10.962  69.009  1.00  0.00    -0.135 C  
HETATM   12  C   UNL     1      -6.502   9.153  71.755  1.00  0.00     0.012 C  
HETATM   13  C   UNL     1      -8.370  11.676  68.154  1.00  0.00    -0.154 C  
HETATM   14  C   UNL     1      -6.243  11.520  69.366  1.00  0.00    -0.094 C  
ENDROOT
BRANCH   3  15
HETATM   15  C   UNL     1     -10.244   5.314  72.524  1.00  0.00    -0.237 C  
BRANCH  15  16
HETATM   16  C   UNL     1     -11.752   5.497  72.494  1.00  0.00    -0.222 C  
HETATM   17  C   UNL     1     -11.510   8.087  72.529  1.00  0.00    -0.471 C  
HETATM   18  O   UNL     1     -13.561   7.001  71.929  1.00  0.00    -0.511 OA 
HETATM   19  C   UNL     1     -12.141   6.863  71.838  1.00  0.00    -0.333 C  
HETATM   20  C   UNL     1     -11.781   6.908  70.347  1.00  0.00    -0.377 C  
HETATM   21  H   UNL     1     -13.796   7.830  71.530  1.00  0.00     0.000 HD 
ENDBRANCH  15  16
ENDBRANCH   3  15
BRANCH  13  22
HETATM   22  C   UNL     1      -9.809  11.582  68.105  1.00  0.00    -0.197 C  
HETATM   23  C   UNL     1     -12.010  11.976  67.086  1.00  0.00    -0.105 C  
HETATM   24  C   UNL     1     -12.185  13.143  66.102  1.00  0.00    -0.385 C  
HETATM   25  C   UNL     1     -10.577  11.473  67.016  1.00  0.00    -0.277 C  
HETATM   26  O   UNL     1     -11.381  14.259  66.484  1.00  0.00    -0.326 OA 
HETATM   27  C   UNL     1     -11.829  12.705  64.679  1.00  0.00    -0.437 C  
HETATM   28  H   UNL     1     -11.489  14.980  65.876  1.00  0.00     0.000 HD 
HETATM   29  C   UNL     1     -10.425  12.099  64.585  1.00  0.00    -0.336 C  
HETATM   30  C   UNL     1     -10.157  11.088  65.680  1.00  0.00    -0.310 C  
HETATM   31  C   UNL     1      -9.645   9.865  65.423  1.00  0.00    -0.350 C  
ENDBRANCH  13  22
TORSDOF 3
ENDMDL
MODEL       54
REMARK 921   NORMALIZED FREE ENERGY PREDICTED BY IDOCK:   -5.40 KCAL/MOL
REMARK 922        TOTAL FREE ENERGY PREDICTED BY IDOCK:   -6.90 KCAL/MOL
REMARK 923 INTER-LIGAND FREE ENERGY PREDICTED BY IDOCK:   -5.27 KCAL/MOL
REMARK 924 INTRA-LIGAND FREE ENERGY PREDICTED BY IDOCK:   -1.62 KCAL/MOL
REMARK 927      BINDING AFFINITY PREDICTED BY RF-SCORE:    0.00 PKD
ROOT
HETATM    1  C   UNL     1     -11.633   8.993  71.059  1.00  0.00    -0.360 C  
HETATM    2  C   UNL     1     -10.106   8.802  70.907  1.00  0.00    -0.276 C  
HETATM    3  C   UNL     1      -9.559   8.647  72.395  1.00  0.00    -0.305 C  
HETATM    4  C   UNL     1      -9.369   9.894  69.990  1.00  0.00    -0.232 C  
HETATM    5  C   UNL     1      -7.854   9.637  69.960  1.00  0.00    -0.173 C  
HETATM    6  C   UNL     1      -9.740   9.899  68.414  1.00  0.00    -0.161 C  
HETATM    7  C   UNL     1      -7.580   8.785  68.729  1.00  0.00    -0.095 C  
HETATM    8  C   UNL     1      -9.392  11.200  67.618  1.00  0.00    -0.169 C  
HETATM    9  C   UNL     1      -9.730  11.041  66.111  1.00  0.00    -0.257 C  
HETATM   10  C   UNL     1      -8.859   8.743  67.855  1.00  0.00    -0.136 C  
HETATM   11  C   UNL     1      -8.470   8.814  66.375  1.00  0.00    -0.127 C  
HETATM   12  C   UNL     1     -11.241   9.737  68.238  1.00  0.00    -0.074 C  
HETATM   13  C   UNL     1      -7.483   8.082  65.797  1.00  0.00    -0.081 C  
HETATM   14  C   UNL     1      -9.285   9.718  65.490  1.00  0.00    -0.270 C  
ENDROOT
BRANCH   3  15
HETATM   15  C   UNL     1     -10.432   7.621  73.158  1.00  0.00    -0.433 C  
BRANCH  15  16
HETATM   16  C   UNL     1      -9.840   6.634  74.151  1.00  0.00    -0.335 C  
HETATM   17  C   UNL     1     -10.779   4.613  72.808  1.00  0.00    -0.273 C  
HETATM   18  O   UNL     1      -9.081   4.362  74.481  1.00  0.00    -0.102 OA 
HETATM   19  C   UNL     1      -9.545   5.257  73.469  1.00  0.00    -0.134 C  
HETATM   20  C   UNL     1      -8.431   5.363  72.419  1.00  0.00    -0.119 C  
HETATM   21  H   UNL     1      -8.901   3.526  74.067  1.00  0.00     0.000 HD 
ENDBRANCH  15  16
ENDBRANCH   3  15
BRANCH  13  22
HETATM   22  C   UNL     1      -6.973   6.848  66.342  1.00  0.00    -0.069 C  
HETATM   23  C   UNL     1      -7.207   4.638  67.390  1.00  0.00    -0.073 C  
HETATM   24  C   UNL     1      -8.468   4.325  68.211  1.00  0.00    -0.093 C  
HETATM   25  C   UNL     1      -7.555   5.645  66.305  1.00  0.00    -0.091 C  
HETATM   26  O   UNL     1      -8.923   5.483  68.911  1.00  0.00    -0.113 OA 
HETATM   27  C   UNL     1      -9.581   3.791  67.306  1.00  0.00    -0.213 C  
HETATM   28  H   UNL     1      -9.702   5.290  69.418  1.00  0.00     0.000 HD 
HETATM   29  C   UNL     1      -9.892   4.733  66.138  1.00  0.00    -0.234 C  
HETATM   30  C   UNL     1      -8.641   5.220  65.439  1.00  0.00    -0.149 C  
HETATM   31  C   UNL     1      -8.502   5.178  64.096  1.00  0.00    -0.127 C  
ENDBRANCH  13  22
TORSDOF 3
ENDMDL
MODEL       55
REMARK 921   NORMALIZED FREE ENERGY PREDICTED BY IDOCK:   -5.38 KCAL/MOL
REMARK 922        TOTAL FREE ENERGY PREDICTED BY IDOCK:   -6.87 KCAL/MOL
REMARK 923 INTER-LIGAND FREE ENERGY PREDICTED BY IDOCK:   -5.73 KCAL/MOL
REMARK 924 INTRA-LIGAND FREE ENERGY PREDICTED BY IDOCK:   -1.13 KCAL/MOL
REMARK 927      BINDING AFFINITY PREDICTED BY RF-SCORE:    0.00 PKD
ROOT
HETATM    1  C   UNL     1      -7.301   4.664  68.915  1.00  0.00    -0.056 C  
HETATM    2  C   UNL     1      -8.766   5.072  68.632  1.00  0.00    -0.101 C  
HETATM    3  C   UNL     1      -9.650   4.012  69.427  1.00  0.00    -0.257 C  
HETATM    4  C   UNL     1      -9.129   5.280  67.082  1.00  0.00    -0.112 C  
HETATM    5  C   UNL     1     -10.619   5.624  66.920  1.00  0.00    -0.367 C  
HETATM    6  C   UNL     1      -8.414   6.517  66.321  1.00  0.00    -0.129 C  
HETATM    7  C   UNL     1     -10.715   7.142  66.889  1.00  0.00    -0.363 C  
HETATM    8  C   UNL     1      -8.402   6.463  64.757  1.00  0.00    -0.035 C  
HETATM    9  C   UNL     1      -7.756   7.740  64.158  1.00  0.00    -0.125 C  
HETATM   10  C   UNL     1      -9.288   7.732  66.753  1.00  0.00    -0.227 C  
HETATM   11  C   UNL     1      -9.320   8.939  65.811  1.00  0.00    -0.286 C  
HETATM   12  C   UNL     1      -6.946   6.580  66.709  1.00  0.00    -0.067 C  
HETATM   13  C   UNL     1     -10.236   9.940  65.865  1.00  0.00    -0.264 C  
HETATM   14  C   UNL     1      -8.215   9.050  64.795  1.00  0.00    -0.161 C  
ENDROOT
BRANCH   3  15
HETATM   15  C   UNL     1      -9.112   3.877  70.871  1.00  0.00    -0.179 C  
BRANCH  15  16
HETATM   16  C   UNL     1     -10.001   3.459  72.032  1.00  0.00    -0.222 C  
HETATM   17  C   UNL     1      -9.269   5.526  73.430  1.00  0.00    -0.131 C  
HETATM   18  O   UNL     1     -11.196   4.216  73.993  1.00  0.00    -0.168 OA 
HETATM   19  C   UNL     1     -10.445   4.698  72.877  1.00  0.00    -0.194 C  
HETATM   20  C   UNL     1     -11.368   5.633  72.085  1.00  0.00    -0.277 C  
HETATM   21  H   UNL     1     -11.466   4.969  74.506  1.00  0.00     0.000 HD 
ENDBRANCH  15  16
ENDBRANCH   3  15
BRANCH  13  22
HETATM   22  C   UNL     1     -11.011  10.258  67.040  1.00  0.00    -0.189 C  
HETATM   23  C   UNL     1     -11.470  10.224  69.453  1.00  0.00    -0.248 C  
HETATM   24  C   UNL     1     -10.865   9.107  70.318  1.00  0.00    -0.246 C  
HETATM   25  C   UNL     1     -10.552  10.496  68.273  1.00  0.00    -0.240 C  
HETATM   26  O   UNL     1     -10.811   7.876  69.598  1.00  0.00    -0.309 OA 
HETATM   27  C   UNL     1      -9.463   9.496  70.795  1.00  0.00    -0.237 C  
HETATM   28  H   UNL     1     -10.436   7.185  70.132  1.00  0.00     0.000 HD 
HETATM   29  C   UNL     1      -8.533   9.876  69.638  1.00  0.00    -0.198 C  
HETATM   30  C   UNL     1      -9.189  10.822  68.655  1.00  0.00    -0.184 C  
HETATM   31  C   UNL     1      -8.585  11.953  68.229  1.00  0.00    -0.162 C  
ENDBRANCH  13  22
TORSDOF 3
ENDMDL
MODEL       56
REMARK 921   NORMALIZED FREE ENERGY PREDICTED BY IDOCK:   -5.33 KCAL/MOL
REMARK 922        TOTAL FREE ENERGY PREDICTED BY IDOCK:   -6.80 KCAL/MOL
REMARK 923 INTER-LIGAND FREE ENERGY PREDICTED BY IDOCK:   -5.60 KCAL/MOL
REMARK 924 INTRA-LIGAND FREE ENERGY PREDICTED BY IDOCK:   -1.20 KCAL/MOL
REMARK 927      BINDING AFFINITY PREDICTED BY RF-SCORE:    0.00 PKD
ROOT
HETATM    1  C   UNL     1     -10.004  15.233  68.627  1.00  0.00    -0.216 C  
HETATM    2  C   UNL     1     -10.426  14.432  67.372  1.00  0.00    -0.261 C  
HETATM    3  C   UNL     1     -10.729  15.534  66.262  1.00  0.00    -0.307 C  
HETATM    4  C   UNL     1     -11.572  13.335  67.616  1.00  0.00    -0.386 C  
HETATM    5  C   UNL     1     -11.947  12.647  66.293  1.00  0.00    -0.439 C  
HETATM    6  C   UNL     1     -11.190  12.072  68.554  1.00  0.00    -0.306 C  
HETATM    7  C   UNL     1     -11.105  11.383  66.204  1.00  0.00    -0.259 C  
HETATM    8  C   UNL     1     -12.385  11.260  69.153  1.00  0.00    -0.115 C  
HETATM    9  C   UNL     1     -11.880  10.038  69.967  1.00  0.00    -0.196 C  
HETATM   10  C   UNL     1     -10.419  11.141  67.573  1.00  0.00    -0.239 C  
HETATM   11  C   UNL     1     -10.419   9.642  67.887  1.00  0.00    -0.296 C  
HETATM   12  C   UNL     1     -10.411  12.551  69.769  1.00  0.00     0.957 C  
HETATM   13  C   UNL     1     -10.071   8.666  67.009  1.00  0.00    -0.342 C  
HETATM   14  C   UNL     1     -10.773   9.231  69.291  1.00  0.00    -0.211 C  
ENDROOT
BRANCH   3  15
HETATM   15  C   UNL     1      -9.566  16.553  66.220  1.00  0.00    -0.333 C  
BRANCH  15  16
HETATM   16  C   UNL     1      -9.763  18.022  66.556  1.00  0.00    -0.338 C  
HETATM   17  C   UNL     1      -7.800  17.968  68.262  1.00  0.00    -0.292 C  
HETATM   18  O   UNL     1      -8.713  20.020  67.424  1.00  0.00    -0.323 OA 
HETATM   19  C   UNL     1      -8.426  18.673  67.043  1.00  0.00    -0.271 C  
HETATM   20  C   UNL     1      -7.376  18.737  65.926  1.00  0.00    -0.261 C  
HETATM   21  H   UNL     1      -7.901  20.415  67.720  1.00  0.00     0.000 HD 
ENDBRANCH  15  16
ENDBRANCH   3  15
BRANCH  13  22
HETATM   22  C   UNL     1      -9.245   8.887  65.848  1.00  0.00    -0.290 C  
HETATM   23  C   UNL     1      -7.200   9.632  64.706  1.00  0.00    -0.119 C  
HETATM   24  C   UNL     1      -6.305  10.685  65.380  1.00  0.00    -0.052 C  
HETATM   25  C   UNL     1      -7.911   8.821  65.778  1.00  0.00    -0.099 C  
HETATM   26  O   UNL     1      -7.087  11.633  66.106  1.00  0.00    -0.368 OA 
HETATM   27  C   UNL     1      -5.296  10.013  66.315  1.00  0.00    -0.045 C  
HETATM   28  H   UNL     1      -6.533  12.283  66.522  1.00  0.00     0.000 HD 
HETATM   29  C   UNL     1      -5.968   9.105  67.350  1.00  0.00    -0.050 C  
HETATM   30  C   UNL     1      -7.011   8.197  66.732  1.00  0.00    -0.073 C  
HETATM   31  C   UNL     1      -7.048   6.869  66.977  1.00  0.00    -0.076 C  
ENDBRANCH  13  22
TORSDOF 3
ENDMDL
MODEL       57
REMARK 921   NORMALIZED FREE ENERGY PREDICTED BY IDOCK:   -5.27 KCAL/MOL
REMARK 922        TOTAL FREE ENERGY PREDICTED BY IDOCK:   -6.74 KCAL/MOL
REMARK 923 INTER-LIGAND FREE ENERGY PREDICTED BY IDOCK:   -5.29 KCAL/MOL
REMARK 924 INTRA-LIGAND FREE ENERGY PREDICTED BY IDOCK:   -1.45 KCAL/MOL
REMARK 927      BINDING AFFINITY PREDICTED BY RF-SCORE:    0.00 PKD
ROOT
HETATM    1  C   UNL     1     -11.789  11.297  70.449  1.00  0.00    -0.443 C  
HETATM    2  C   UNL     1     -10.907  10.405  69.543  1.00  0.00    -0.295 C  
HETATM    3  C   UNL     1     -10.849  11.168  68.145  1.00  0.00    -0.266 C  
HETATM    4  C   UNL     1     -11.329   8.857  69.491  1.00  0.00     0.206 C  
HETATM    5  C   UNL     1     -10.423   8.086  68.519  1.00  0.00    -0.200 C  
HETATM    6  C   UNL     1     -11.159   8.005  70.857  1.00  0.00    -0.271 C  
HETATM    7  C   UNL     1      -9.295   7.492  69.350  1.00  0.00    -0.152 C  
HETATM    8  C   UNL     1     -11.961   6.666  70.950  1.00  0.00    -0.413 C  
HETATM    9  C   UNL     1     -11.649   5.916  72.273  1.00  0.00    -0.338 C  
HETATM   10  C   UNL     1      -9.641   7.656  70.852  1.00  0.00    -0.167 C  
HETATM   11  C   UNL     1      -9.210   6.401  71.617  1.00  0.00    -0.144 C  
HETATM   12  C   UNL     1     -11.651   8.824  72.040  1.00  0.00    -0.436 C  
HETATM   13  C   UNL     1      -8.009   5.783  71.478  1.00  0.00    -0.113 C  
HETATM   14  C   UNL     1     -10.168   5.854  72.641  1.00  0.00    -0.209 C  
ENDROOT
BRANCH   3  15
HETATM   15  C   UNL     1     -10.513  12.658  68.388  1.00  0.00    -0.248 C  
BRANCH  15  16
HETATM   16  C   UNL     1      -9.849  13.522  67.328  1.00  0.00    -0.237 C  
HETATM   17  C   UNL     1      -8.591  14.901  69.139  1.00  0.00    -0.148 C  
HETATM   18  O   UNL     1      -7.967  14.955  66.825  1.00  0.00    -0.340 OA 
HETATM   19  C   UNL     1      -8.481  14.086  67.836  1.00  0.00    -0.170 C  
HETATM   20  C   UNL     1      -7.443  12.976  68.043  1.00  0.00    -0.134 C  
HETATM   21  H   UNL     1      -7.137  15.297  67.133  1.00  0.00     0.000 HD 
ENDBRANCH  15  16
ENDBRANCH   3  15
BRANCH  13  22
HETATM   22  C   UNL     1      -6.827   6.430  70.962  1.00  0.00    -0.066 C  
HETATM   23  C   UNL     1      -5.155   8.228  70.884  1.00  0.00    -0.025 C  
HETATM   24  C   UNL     1      -5.526   9.623  71.413  1.00  0.00    -0.073 C  
HETATM   25  C   UNL     1      -5.952   7.178  71.642  1.00  0.00    -0.037 C  
HETATM   26  O   UNL     1      -6.893   9.926  71.141  1.00  0.00    -0.337 OA 
HETATM   27  C   UNL     1      -5.259   9.715  72.918  1.00  0.00    -0.023 C  
HETATM   28  H   UNL     1      -7.122  10.788  71.468  1.00  0.00     0.000 HD 
HETATM   29  C   UNL     1      -5.966   8.610  73.709  1.00  0.00    -0.126 C  
HETATM   30  C   UNL     1      -5.784   7.243  73.083  1.00  0.00    -0.045 C  
HETATM   31  C   UNL     1      -5.396   6.167  73.800  1.00  0.00    -0.040 C  
ENDBRANCH  13  22
TORSDOF 3
ENDMDL
MODEL       58
REMARK 921   NORMALIZED FREE ENERGY PREDICTED BY IDOCK:   -5.26 KCAL/MOL
REMARK 922        TOTAL FREE ENERGY PREDICTED BY IDOCK:   -6.72 KCAL/MOL
REMARK 923 INTER-LIGAND FREE ENERGY PREDICTED BY IDOCK:   -5.75 KCAL/MOL
REMARK 924 INTRA-LIGAND FREE ENERGY PREDICTED BY IDOCK:   -0.98 KCAL/MOL
REMARK 927      BINDING AFFINITY PREDICTED BY RF-SCORE:    0.00 PKD
ROOT
HETATM    1  C   UNL     1     -11.328  13.769  68.845  1.00  0.00    -0.328 C  
HETATM    2  C   UNL     1     -10.885  12.427  68.216  1.00  0.00    -0.264 C  
HETATM    3  C   UNL     1     -10.687  12.743  66.667  1.00  0.00    -0.279 C  
HETATM    4  C   UNL     1     -11.813  11.167  68.571  1.00  0.00    -0.330 C  
HETATM    5  C   UNL     1     -11.311   9.907  67.847  1.00  0.00     0.053 C  
HETATM    6  C   UNL     1     -11.831  10.681  70.115  1.00  0.00    -0.421 C  
HETATM    7  C   UNL     1     -10.389   9.184  68.817  1.00  0.00    -0.235 C  
HETATM    8  C   UNL     1     -13.033   9.780  70.551  1.00  0.00     0.008 C  
HETATM    9  C   UNL     1     -12.887   9.326  72.028  1.00  0.00    -0.495 C  
HETATM   10  C   UNL     1     -10.530   9.831  70.219  1.00  0.00    -0.345 C  
HETATM   11  C   UNL     1     -10.493   8.739  71.292  1.00  0.00    -0.326 C  
HETATM   12  C   UNL     1     -11.912  11.889  71.034  1.00  0.00     0.083 C  
HETATM   13  C   UNL     1      -9.592   7.724  71.334  1.00  0.00    -0.182 C  
HETATM   14  C   UNL     1     -11.491   8.841  72.414  1.00  0.00    -0.301 C  
ENDROOT
BRANCH   3  15
HETATM   15  C   UNL     1      -9.841  14.029  66.510  1.00  0.00    -0.298 C  
BRANCH  15  16
HETATM   16  C   UNL     1      -9.931  14.912  65.276  1.00  0.00    -0.328 C  
HETATM   17  C   UNL     1     -12.529  14.951  65.406  1.00  0.00     0.093 C  
HETATM   18  O   UNL     1     -11.290  16.507  64.068  1.00  0.00    -1.475 OA 
HETATM   19  C   UNL     1     -11.234  15.778  65.296  1.00  0.00    -0.190 C  
HETATM   20  C   UNL     1     -11.219  16.812  66.430  1.00  0.00     0.509 C  
HETATM   21  H   UNL     1     -12.080  17.033  64.081  1.00  0.00     0.000 HD 
ENDBRANCH  15  16
ENDBRANCH   3  15
BRANCH  13  22
HETATM   22  C   UNL     1      -8.308   7.761  70.678  1.00  0.00    -0.124 C  
HETATM   23  C   UNL     1      -6.006   8.568  70.382  1.00  0.00    -0.027 C  
HETATM   24  C   UNL     1      -5.619   9.952  70.927  1.00  0.00    -0.078 C  
HETATM   25  C   UNL     1      -7.117   7.985  71.242  1.00  0.00    -0.057 C  
HETATM   26  O   UNL     1      -6.705  10.871  70.805  1.00  0.00    -0.458 OA 
HETATM   27  C   UNL     1      -5.181   9.851  72.390  1.00  0.00     0.011 C  
HETATM   28  H   UNL     1      -6.466  11.727  71.142  1.00  0.00     0.000 HD 
HETATM   29  C   UNL     1      -6.235   9.176  73.274  1.00  0.00     0.190 C  
HETATM   30  C   UNL     1      -6.784   7.908  72.653  1.00  0.00    -0.078 C  
HETATM   31  C   UNL     1      -6.874   6.749  73.340  1.00  0.00    -0.075 C  
ENDBRANCH  13  22
TORSDOF 3
ENDMDL
MODEL       59
REMARK 921   NORMALIZED FREE ENERGY PREDICTED BY IDOCK:   -5.25 KCAL/MOL
REMARK 922        TOTAL FREE ENERGY PREDICTED BY IDOCK:   -6.71 KCAL/MOL
REMARK 923 INTER-LIGAND FREE ENERGY PREDICTED BY IDOCK:   -5.86 KCAL/MOL
REMARK 924 INTRA-LIGAND FREE ENERGY PREDICTED BY IDOCK:   -0.86 KCAL/MOL
REMARK 927      BINDING AFFINITY PREDICTED BY RF-SCORE:    0.00 PKD
ROOT
HETATM    1  C   UNL     1      -9.544  12.498  65.596  1.00  0.00    -0.099 C  
HETATM    2  C   UNL     1      -8.659  12.085  66.796  1.00  0.00    -0.177 C  
HETATM    3  C   UNL     1      -7.883  13.413  67.213  1.00  0.00    -0.107 C  
HETATM    4  C   UNL     1      -7.756  10.779  66.560  1.00  0.00    -0.145 C  
HETATM    5  C   UNL     1      -6.880  10.501  67.793  1.00  0.00    -0.073 C  
HETATM    6  C   UNL     1      -8.535   9.372  66.378  1.00  0.00    -0.131 C  
HETATM    7  C   UNL     1      -7.645   9.510  68.657  1.00  0.00    -0.080 C  
HETATM    8  C   UNL     1      -7.727   8.207  65.717  1.00  0.00    -0.092 C  
HETATM    9  C   UNL     1      -8.565   6.901  65.672  1.00  0.00    -0.119 C  
HETATM   10  C   UNL     1      -8.850   8.966  67.848  1.00  0.00    -0.133 C  
HETATM   11  C   UNL     1      -9.028   7.472  68.137  1.00  0.00    -0.129 C  
HETATM   12  C   UNL     1      -9.737   9.564  65.467  1.00  0.00    -0.344 C  
HETATM   13  C   UNL     1      -9.005   6.914  69.374  1.00  0.00    -0.138 C  
HETATM   14  C   UNL     1      -9.310   6.571  66.964  1.00  0.00    -0.155 C  
ENDROOT
BRANCH   3  15
HETATM   15  C   UNL     1      -8.890  14.584  67.314  1.00  0.00    -0.221 C  
BRANCH  15  16
HETATM   16  C   UNL     1      -8.557  15.983  66.820  1.00  0.00    -0.292 C  
HETATM   17  C   UNL     1     -10.728  16.069  65.388  1.00  0.00    -0.399 C  
HETATM   18  O   UNL     1      -9.457  18.034  65.908  1.00  0.00    -0.520 OA 
HETATM   19  C   UNL     1      -9.856  16.772  66.447  1.00  0.00    -0.297 C  
HETATM   20  C   UNL     1     -10.725  17.064  67.677  1.00  0.00    -0.295 C  
HETATM   21  H   UNL     1     -10.245  18.513  65.682  1.00  0.00     0.000 HD 
ENDBRANCH  15  16
ENDBRANCH   3  15
BRANCH  13  22
HETATM   22  C   UNL     1      -9.259   7.646  70.591  1.00  0.00    -0.162 C  
HETATM   23  C   UNL     1      -9.937   7.842  72.945  1.00  0.00    -0.360 C  
HETATM   24  C   UNL     1     -10.853   6.769  73.555  1.00  0.00    -0.214 C  
HETATM   25  C   UNL     1      -9.095   7.214  71.846  1.00  0.00    -0.144 C  
HETATM   26  O   UNL     1     -11.793   6.292  72.593  1.00  0.00    -0.482 OA 
HETATM   27  C   UNL     1     -10.025   5.603  74.101  1.00  0.00    -0.232 C  
HETATM   28  H   UNL     1     -12.359   5.629  72.970  1.00  0.00     0.000 HD 
HETATM   29  C   UNL     1      -9.087   5.005  73.047  1.00  0.00    -0.128 C  
HETATM   30  C   UNL     1      -8.321   6.066  72.285  1.00  0.00    -0.113 C  
HETATM   31  C   UNL     1      -6.985   6.001  72.104  1.00  0.00    -0.078 C  
ENDBRANCH  13  22
TORSDOF 3
ENDMDL
MODEL       60
REMARK 921   NORMALIZED FREE ENERGY PREDICTED BY IDOCK:   -5.23 KCAL/MOL
REMARK 922        TOTAL FREE ENERGY PREDICTED BY IDOCK:   -6.69 KCAL/MOL
REMARK 923 INTER-LIGAND FREE ENERGY PREDICTED BY IDOCK:   -5.27 KCAL/MOL
REMARK 924 INTRA-LIGAND FREE ENERGY PREDICTED BY IDOCK:   -1.42 KCAL/MOL
REMARK 927      BINDING AFFINITY PREDICTED BY RF-SCORE:    0.00 PKD
ROOT
HETATM    1  C   UNL     1      -7.134   8.056  66.808  1.00  0.00    -0.081 C  
HETATM    2  C   UNL     1      -8.355   7.120  66.974  1.00  0.00    -0.118 C  
HETATM    3  C   UNL     1      -8.267   6.104  65.750  1.00  0.00    -0.138 C  
HETATM    4  C   UNL     1      -9.763   7.865  67.178  1.00  0.00    -0.249 C  
HETATM    5  C   UNL     1     -10.904   6.841  67.273  1.00  0.00    -0.443 C  
HETATM    6  C   UNL     1      -9.954   8.709  68.547  1.00  0.00    -0.201 C  
HETATM    7  C   UNL     1     -11.120   6.564  68.754  1.00  0.00    -0.357 C  
HETATM    8  C   UNL     1     -11.099   9.775  68.556  1.00  0.00    -0.138 C  
HETATM    9  C   UNL     1     -11.219  10.454  69.947  1.00  0.00    -0.371 C  
HETATM   10  C   UNL     1     -10.319   7.602  69.579  1.00  0.00    -0.217 C  
HETATM   11  C   UNL     1     -11.139   8.029  70.800  1.00  0.00    -0.269 C  
HETATM   12  C   UNL     1      -8.693   9.505  68.841  1.00  0.00    -0.133 C  
HETATM   13  C   UNL     1     -11.795   7.177  71.629  1.00  0.00    -0.340 C  
HETATM   14  C   UNL     1     -11.165   9.496  71.135  1.00  0.00    -0.446 C  
ENDROOT
BRANCH   3  15
HETATM   15  C   UNL     1      -6.827   5.546  65.651  1.00  0.00    -0.064 C  
BRANCH  15  16
HETATM   16  C   UNL     1      -6.142   5.304  64.315  1.00  0.00    -0.022 C  
HETATM   17  C   UNL     1      -5.349   2.945  65.070  1.00  0.00    -0.009 C  
HETATM   18  O   UNL     1      -5.334   3.627  62.772  1.00  0.00    -0.005 OA 
HETATM   19  C   UNL     1      -6.067   3.776  63.990  1.00  0.00    -0.018 C  
HETATM   20  C   UNL     1      -7.456   3.169  63.753  1.00  0.00    -0.066 C  
HETATM   21  H   UNL     1      -5.288   2.699  62.574  1.00  0.00     0.000 HD 
ENDBRANCH  15  16
ENDBRANCH   3  15
BRANCH  13  22
HETATM   22  C   UNL     1     -11.469   5.778  71.767  1.00  0.00    -0.199 C  
HETATM   23  C   UNL     1      -9.913   3.885  71.948  1.00  0.00    -0.238 C  
HETATM   24  C   UNL     1      -8.490   4.025  71.384  1.00  0.00    -0.085 C  
HETATM   25  C   UNL     1     -10.411   5.251  72.392  1.00  0.00    -0.268 C  
HETATM   26  O   UNL     1      -8.485   4.825  70.202  1.00  0.00    -0.080 OA 
HETATM   27  C   UNL     1      -7.554   4.633  72.431  1.00  0.00    -0.085 C  
HETATM   28  H   UNL     1      -7.606   4.912  69.854  1.00  0.00     0.000 HD 
HETATM   29  C   UNL     1      -8.074   5.966  72.980  1.00  0.00    -0.117 C  
HETATM   30  C   UNL     1      -9.540   5.908  73.351  1.00  0.00    -0.143 C  
HETATM   31  C   UNL     1     -10.002   6.352  74.540  1.00  0.00    -0.370 C  
ENDBRANCH  13  22
TORSDOF 3
ENDMDL
MODEL       61
REMARK 921   NORMALIZED FREE ENERGY PREDICTED BY IDOCK:   -5.22 KCAL/MOL
REMARK 922        TOTAL FREE ENERGY PREDICTED BY IDOCK:   -6.68 KCAL/MOL
REMARK 923 INTER-LIGAND FREE ENERGY PREDICTED BY IDOCK:   -5.21 KCAL/MOL
REMARK 924 INTRA-LIGAND FREE ENERGY PREDICTED BY IDOCK:   -1.47 KCAL/MOL
REMARK 927      BINDING AFFINITY PREDICTED BY RF-SCORE:    0.00 PKD
ROOT
HETATM    1  C   UNL     1     -10.748  10.167  69.855  1.00  0.00    -0.340 C  
HETATM    2  C   UNL     1     -10.591   8.830  69.093  1.00  0.00    -0.200 C  
HETATM    3  C   UNL     1     -10.901   9.185  67.570  1.00  0.00    -0.151 C  
HETATM    4  C   UNL     1     -11.403   7.592  69.713  1.00  0.00     0.048 C  
HETATM    5  C   UNL     1     -11.219   6.339  68.842  1.00  0.00    -0.387 C  
HETATM    6  C   UNL     1     -10.932   7.061  71.168  1.00  0.00    -0.275 C  
HETATM    7  C   UNL     1     -10.060   5.557  69.442  1.00  0.00    -0.306 C  
HETATM    8  C   UNL     1     -11.961   6.188  71.959  1.00  0.00    -0.310 C  
HETATM    9  C   UNL     1     -11.355   5.687  73.298  1.00  0.00    -0.156 C  
HETATM   10  C   UNL     1      -9.706   6.166  70.822  1.00  0.00    -0.205 C  
HETATM   11  C   UNL     1      -9.363   5.043  71.805  1.00  0.00    -0.184 C  
HETATM   12  C   UNL     1     -10.657   8.245  72.082  1.00  0.00    -0.380 C  
HETATM   13  C   UNL     1      -8.541   3.997  71.530  1.00  0.00    -0.127 C  
HETATM   14  C   UNL     1      -9.931   5.144  73.195  1.00  0.00    -0.183 C  
ENDROOT
BRANCH   3  15
HETATM   15  C   UNL     1     -10.102  10.447  67.166  1.00  0.00    -0.254 C  
BRANCH  15  16
HETATM   16  C   UNL     1     -10.551  11.364  66.040  1.00  0.00    -0.319 C  
HETATM   17  C   UNL     1     -11.908  12.845  67.692  1.00  0.00    -0.400 C  
HETATM   18  O   UNL     1     -11.353  13.576  65.478  1.00  0.00    -0.295 OA 
HETATM   19  C   UNL     1     -10.852  12.804  66.572  1.00  0.00    -0.256 C  
HETATM   20  C   UNL     1      -9.584  13.508  67.073  1.00  0.00    -0.248 C  
HETATM   21  H   UNL     1     -11.535  14.450  65.801  1.00  0.00     0.000 HD 
ENDBRANCH  15  16
ENDBRANCH   3  15
BRANCH  13  22
HETATM   22  C   UNL     1      -7.543   4.011  70.489  1.00  0.00    -0.045 C  
HETATM   23  C   UNL     1      -5.844   5.088  69.078  1.00  0.00    -0.020 C  
HETATM   24  C   UNL     1      -5.902   6.608  68.859  1.00  0.00    -0.021 C  
HETATM   25  C   UNL     1      -6.434   4.756  70.439  1.00  0.00    -0.031 C  
HETATM   26  O   UNL     1      -7.253   7.065  68.800  1.00  0.00    -0.085 OA 
HETATM   27  C   UNL     1      -5.151   7.341  69.973  1.00  0.00    -0.019 C  
HETATM   28  H   UNL     1      -7.289   8.004  68.665  1.00  0.00     0.000 HD 
HETATM   29  C   UNL     1      -5.649   6.956  71.370  1.00  0.00    -0.028 C  
HETATM   30  C   UNL     1      -5.798   5.459  71.539  1.00  0.00    -0.024 C  
HETATM   31  C   UNL     1      -5.289   4.799  72.602  1.00  0.00    -0.008 C  
ENDBRANCH  13  22
TORSDOF 3
ENDMDL
MODEL       62
REMARK 921   NORMALIZED FREE ENERGY PREDICTED BY IDOCK:   -5.17 KCAL/MOL
REMARK 922        TOTAL FREE ENERGY PREDICTED BY IDOCK:   -6.62 KCAL/MOL
REMARK 923 INTER-LIGAND FREE ENERGY PREDICTED BY IDOCK:   -5.24 KCAL/MOL
REMARK 924 INTRA-LIGAND FREE ENERGY PREDICTED BY IDOCK:   -1.38 KCAL/MOL
REMARK 927      BINDING AFFINITY PREDICTED BY RF-SCORE:    0.00 PKD
ROOT
HETATM    1  C   UNL     1      -9.180   9.869  66.343  1.00  0.00    -0.195 C  
HETATM    2  C   UNL     1      -8.463  10.189  67.676  1.00  0.00    -0.118 C  
HETATM    3  C   UNL     1      -8.424  11.781  67.750  1.00  0.00    -0.147 C  
HETATM    4  C   UNL     1      -7.065   9.433  67.898  1.00  0.00    -0.081 C  
HETATM    5  C   UNL     1      -6.421   9.872  69.223  1.00  0.00    -0.048 C  
HETATM    6  C   UNL     1      -7.121   7.824  68.070  1.00  0.00    -0.085 C  
HETATM    7  C   UNL     1      -6.850   8.860  70.274  1.00  0.00    -0.045 C  
HETATM    8  C   UNL     1      -5.782   7.049  67.838  1.00  0.00    -0.024 C  
HETATM    9  C   UNL     1      -5.960   5.531  68.108  1.00  0.00    -0.018 C  
HETATM   10  C   UNL     1      -7.522   7.656  69.565  1.00  0.00    -0.092 C  
HETATM   11  C   UNL     1      -7.104   6.356  70.259  1.00  0.00    -0.078 C  
HETATM   12  C   UNL     1      -8.082   7.231  67.052  1.00  0.00    -0.117 C  
HETATM   13  C   UNL     1      -7.096   6.162  71.603  1.00  0.00    -0.082 C  
HETATM   14  C   UNL     1      -6.738   5.192  69.378  1.00  0.00    -0.052 C  
ENDROOT
BRANCH   3  15
HETATM   15  C   UNL     1      -9.829  12.344  67.430  1.00  0.00    -0.199 C  
BRANCH  15  16
HETATM   16  C   UNL     1     -10.392  13.566  68.137  1.00  0.00    -0.247 C  
HETATM   17  C   UNL     1      -9.772  15.099  66.129  1.00  0.00    -0.338 C  
HETATM   18  O   UNL     1     -11.299  15.789  67.844  1.00  0.00    -0.338 OA 
HETATM   19  C   UNL     1     -10.872  14.641  67.107  1.00  0.00    -0.303 C  
HETATM   20  C   UNL     1     -12.078  14.158  66.291  1.00  0.00    -0.463 C  
HETATM   21  H   UNL     1     -11.591  16.441  67.218  1.00  0.00     0.000 HD 
ENDBRANCH  15  16
ENDBRANCH   3  15
BRANCH  13  22
HETATM   22  C   UNL     1      -7.874   6.944  72.532  1.00  0.00    -0.095 C  
HETATM   23  C   UNL     1      -9.916   8.086  73.283  1.00  0.00    -0.251 C  
HETATM   24  C   UNL     1     -10.949   8.541  72.241  1.00  0.00    -0.355 C  
HETATM   25  C   UNL     1      -9.188   6.857  72.762  1.00  0.00    -0.152 C  
HETATM   26  O   UNL     1     -10.308   8.971  71.040  1.00  0.00    -0.231 OA 
HETATM   27  C   UNL     1     -11.936   7.412  71.932  1.00  0.00    -0.337 C  
HETATM   28  H   UNL     1     -10.947   9.252  70.395  1.00  0.00     0.000 HD 
HETATM   29  C   UNL     1     -11.234   6.121  71.499  1.00  0.00    -0.346 C  
HETATM   30  C   UNL     1     -10.073   5.763  72.401  1.00  0.00    -0.207 C  
HETATM   31  C   UNL     1      -9.916   4.525  72.918  1.00  0.00    -0.198 C  
ENDBRANCH  13  22
TORSDOF 3
ENDMDL
MODEL       63
REMARK 921   NORMALIZED FREE ENERGY PREDICTED BY IDOCK:   -5.16 KCAL/MOL
REMARK 922        TOTAL FREE ENERGY PREDICTED BY IDOCK:   -6.61 KCAL/MOL
REMARK 923 INTER-LIGAND FREE ENERGY PREDICTED BY IDOCK:   -4.87 KCAL/MOL
REMARK 924 INTRA-LIGAND FREE ENERGY PREDICTED BY IDOCK:   -1.75 KCAL/MOL
REMARK 927      BINDING AFFINITY PREDICTED BY RF-SCORE:    0.00 PKD
ROOT
HETATM    1  C   UNL     1      -8.408   6.207  64.915  1.00  0.00    -0.092 C  
HETATM    2  C   UNL     1      -7.498   6.468  66.139  1.00  0.00    -0.081 C  
HETATM    3  C   UNL     1      -6.436   7.547  65.641  1.00  0.00    -0.045 C  
HETATM    4  C   UNL     1      -6.901   5.153  66.839  1.00  0.00    -0.063 C  
HETATM    5  C   UNL     1      -5.971   5.538  68.001  1.00  0.00    -0.018 C  
HETATM    6  C   UNL     1      -7.957   4.166  67.567  1.00  0.00    -0.091 C  
HETATM    7  C   UNL     1      -6.819   5.520  69.263  1.00  0.00    -0.061 C  
HETATM    8  C   UNL     1      -7.470   2.706  67.846  1.00  0.00    -0.056 C  
HETATM    9  C   UNL     1      -8.549   1.893  68.612  1.00  0.00    -0.095 C  
HETATM   10  C   UNL     1      -8.187   4.867  68.938  1.00  0.00    -0.083 C  
HETATM   11  C   UNL     1      -8.624   3.983  70.110  1.00  0.00    -0.103 C  
HETATM   12  C   UNL     1      -9.188   3.994  66.692  1.00  0.00    -0.173 C  
HETATM   13  C   UNL     1      -8.579   4.350  71.417  1.00  0.00    -0.125 C  
HETATM   14  C   UNL     1      -9.201   2.633  69.778  1.00  0.00    -0.199 C  
ENDROOT
BRANCH   3  15
HETATM   15  C   UNL     1      -7.175   8.699  64.920  1.00  0.00    -0.084 C  
BRANCH  15  16
HETATM   16  C   UNL     1      -7.344  10.072  65.550  1.00  0.00    -0.137 C  
HETATM   17  C   UNL     1      -9.330  10.633  63.967  1.00  0.00    -0.303 C  
HETATM   18  O   UNL     1      -8.876  11.901  65.950  1.00  0.00    -0.390 OA 
HETATM   19  C   UNL     1      -8.820  10.575  65.419  1.00  0.00    -0.187 C  
HETATM   20  C   UNL     1      -9.793   9.721  66.243  1.00  0.00    -0.315 C  
HETATM   21  H   UNL     1      -9.772  12.205  65.870  1.00  0.00     0.000 HD 
ENDBRANCH  15  16
ENDBRANCH   3  15
BRANCH  13  22
HETATM   22  C   UNL     1      -8.552   5.721  71.866  1.00  0.00    -0.134 C  
HETATM   23  C   UNL     1      -9.323   8.054  71.872  1.00  0.00    -0.225 C  
HETATM   24  C   UNL     1     -10.032   8.614  70.628  1.00  0.00    -0.192 C  
HETATM   25  C   UNL     1      -9.588   6.560  71.967  1.00  0.00    -0.154 C  
HETATM   26  O   UNL     1      -9.481   8.062  69.433  1.00  0.00    -0.159 OA 
HETATM   27  C   UNL     1     -11.535   8.330  70.692  1.00  0.00    -0.236 C  
HETATM   28  H   UNL     1      -9.919   8.408  68.665  1.00  0.00     0.000 HD 
HETATM   29  C   UNL     1     -11.843   6.842  70.890  1.00  0.00    -0.438 C  
HETATM   30  C   UNL     1     -10.999   6.216  71.980  1.00  0.00    -0.305 C  
HETATM   31  C   UNL     1     -11.535   5.461  72.963  1.00  0.00    -0.324 C  
ENDBRANCH  13  22
TORSDOF 3
ENDMDL
MODEL       64
REMARK 921   NORMALIZED FREE ENERGY PREDICTED BY IDOCK:   -5.13 KCAL/MOL
REMARK 922        TOTAL FREE ENERGY PREDICTED BY IDOCK:   -6.57 KCAL/MOL
REMARK 923 INTER-LIGAND FREE ENERGY PREDICTED BY IDOCK:   -4.96 KCAL/MOL
REMARK 924 INTRA-LIGAND FREE ENERGY PREDICTED BY IDOCK:   -1.61 KCAL/MOL
REMARK 927      BINDING AFFINITY PREDICTED BY RF-SCORE:    0.00 PKD
ROOT
HETATM    1  C   UNL     1      -6.487   8.338  69.633  1.00  0.00    -0.037 C  
HETATM    2  C   UNL     1      -6.892   9.007  68.298  1.00  0.00    -0.065 C  
HETATM    3  C   UNL     1      -6.886   7.827  67.227  1.00  0.00    -0.069 C  
HETATM    4  C   UNL     1      -6.054  10.321  67.912  1.00  0.00    -0.051 C  
HETATM    5  C   UNL     1      -6.502  10.862  66.544  1.00  0.00    -0.128 C  
HETATM    6  C   UNL     1      -6.243  11.617  68.863  1.00  0.00    -0.057 C  
HETATM    7  C   UNL     1      -7.560  11.921  66.819  1.00  0.00    -0.034 C  
HETATM    8  C   UNL     1      -5.133  12.715  68.776  1.00  0.00    -0.056 C  
HETATM    9  C   UNL     1      -5.475  13.930  69.680  1.00  0.00    -0.088 C  
HETATM   10  C   UNL     1      -7.572  12.233  68.337  1.00  0.00    -0.128 C  
HETATM   11  C   UNL     1      -7.777  13.736  68.549  1.00  0.00    -0.138 C  
HETATM   12  C   UNL     1      -6.238  11.189  70.322  1.00  0.00    -0.134 C  
HETATM   13  C   UNL     1      -8.707  14.490  67.908  1.00  0.00    -0.165 C  
HETATM   14  C   UNL     1      -6.922  14.409  69.589  1.00  0.00    -0.086 C  
ENDROOT
BRANCH   3  15
HETATM   15  C   UNL     1      -7.665   6.616  67.794  1.00  0.00    -0.107 C  
BRANCH  15  16
HETATM   16  C   UNL     1      -8.630   5.804  66.946  1.00  0.00    -0.111 C  
HETATM   17  C   UNL     1     -10.465   5.932  68.785  1.00  0.00    -0.314 C  
HETATM   18  O   UNL     1     -10.954   5.280  66.530  1.00  0.00    -0.506 OA 
HETATM   19  C   UNL     1     -10.115   6.144  67.299  1.00  0.00    -0.165 C  
HETATM   20  C   UNL     1     -10.482   7.583  66.914  1.00  0.00    -0.385 C  
HETATM   21  H   UNL     1     -11.855   5.487  66.745  1.00  0.00     0.000 HD 
ENDBRANCH  15  16
ENDBRANCH   3  15
BRANCH  13  22
HETATM   22  C   UNL     1      -9.899  13.950  67.300  1.00  0.00    -0.244 C  
HETATM   23  C   UNL     1     -11.874  12.489  67.237  1.00  0.00    -0.381 C  
HETATM   24  C   UNL     1     -11.892  11.213  68.093  1.00  0.00    -0.164 C  
HETATM   25  C   UNL     1     -11.009  13.536  67.920  1.00  0.00    -0.275 C  
HETATM   26  O   UNL     1     -10.592  10.629  68.169  1.00  0.00    -0.176 OA 
HETATM   27  C   UNL     1     -12.412  11.517  69.501  1.00  0.00    -0.060 C  
HETATM   28  H   UNL     1     -10.604   9.840  68.698  1.00  0.00     0.000 HD 
HETATM   29  C   UNL     1     -11.628  12.640  70.187  1.00  0.00    -0.141 C  
HETATM   30  C   UNL     1     -11.417  13.835  69.282  1.00  0.00    -0.344 C  
HETATM   31  C   UNL     1     -11.683  15.098  69.680  1.00  0.00    -0.353 C  
ENDBRANCH  13  22
TORSDOF 3
ENDMDL
MODEL       65
REMARK 921   NORMALIZED FREE ENERGY PREDICTED BY IDOCK:   -5.11 KCAL/MOL
REMARK 922        TOTAL FREE ENERGY PREDICTED BY IDOCK:   -6.55 KCAL/MOL
REMARK 923 INTER-LIGAND FREE ENERGY PREDICTED BY IDOCK:   -5.48 KCAL/MOL
REMARK 924 INTRA-LIGAND FREE ENERGY PREDICTED BY IDOCK:   -1.07 KCAL/MOL
REMARK 927      BINDING AFFINITY PREDICTED BY RF-SCORE:    0.00 PKD
ROOT
HETATM    1  C   UNL     1     -11.764   9.258  71.966  1.00  0.00    -0.336 C  
HETATM    2  C   UNL     1     -10.405   8.855  71.345  1.00  0.00    -0.377 C  
HETATM    3  C   UNL     1      -9.556   8.268  72.559  1.00  0.00    -0.365 C  
HETATM    4  C   UNL     1      -9.693   9.992  70.464  1.00  0.00     0.070 C  
HETATM    5  C   UNL     1      -8.330   9.499  69.951  1.00  0.00    -0.180 C  
HETATM    6  C   UNL     1     -10.432  10.426  69.091  1.00  0.00    -0.248 C  
HETATM    7  C   UNL     1      -8.568   8.924  68.563  1.00  0.00    -0.133 C  
HETATM    8  C   UNL     1     -10.009  11.799  68.474  1.00  0.00    -0.203 C  
HETATM    9  C   UNL     1     -10.737  12.055  67.126  1.00  0.00    -0.277 C  
HETATM   10  C   UNL     1     -10.000   9.301  68.103  1.00  0.00    -0.206 C  
HETATM   11  C   UNL     1      -9.984   9.650  66.612  1.00  0.00    -0.301 C  
HETATM   12  C   UNL     1     -11.927  10.562  69.332  1.00  0.00    -0.230 C  
HETATM   13  C   UNL     1      -9.361   8.919  65.652  1.00  0.00    -0.259 C  
HETATM   14  C   UNL     1     -10.769  10.858  66.178  1.00  0.00    -0.225 C  
ENDROOT
BRANCH   3  15
HETATM   15  C   UNL     1     -10.420   7.253  73.346  1.00  0.00    -0.423 C  
BRANCH  15  16
HETATM   16  C   UNL     1      -9.815   6.051  74.053  1.00  0.00    -0.215 C  
HETATM   17  C   UNL     1     -11.646   4.475  73.089  1.00  0.00    -0.221 C  
HETATM   18  O   UNL     1      -9.618   3.641  74.058  1.00  0.00    -0.094 OA 
HETATM   19  C   UNL     1     -10.139   4.726  73.287  1.00  0.00    -0.160 C  
HETATM   20  C   UNL     1      -9.452   4.671  71.917  1.00  0.00    -0.197 C  
HETATM   21  H   UNL     1      -9.815   2.836  73.593  1.00  0.00     0.000 HD 
ENDBRANCH  15  16
ENDBRANCH   3  15
BRANCH  13  22
HETATM   22  C   UNL     1      -9.023   7.524  65.797  1.00  0.00    -0.077 C  
HETATM   23  C   UNL     1      -8.015   5.411  65.050  1.00  0.00    -0.110 C  
HETATM   24  C   UNL     1      -7.800   5.171  63.547  1.00  0.00    -0.084 C  
HETATM   25  C   UNL     1      -7.933   6.902  65.334  1.00  0.00    -0.125 C  
HETATM   26  O   UNL     1      -8.853   5.753  62.780  1.00  0.00    -0.338 OA 
HETATM   27  C   UNL     1      -6.451   5.739  63.099  1.00  0.00    -0.028 C  
HETATM   28  H   UNL     1      -8.720   5.605  61.851  1.00  0.00     0.000 HD 
HETATM   29  C   UNL     1      -6.288   7.219  63.459  1.00  0.00    -0.049 C  
HETATM   30  C   UNL     1      -6.695   7.516  64.887  1.00  0.00    -0.047 C  
HETATM   31  C   UNL     1      -5.914   8.229  65.727  1.00  0.00    -0.041 C  
ENDBRANCH  13  22
TORSDOF 3
ENDMDL
MODEL       66
REMARK 921   NORMALIZED FREE ENERGY PREDICTED BY IDOCK:   -5.08 KCAL/MOL
REMARK 922        TOTAL FREE ENERGY PREDICTED BY IDOCK:   -6.51 KCAL/MOL
REMARK 923 INTER-LIGAND FREE ENERGY PREDICTED BY IDOCK:   -6.42 KCAL/MOL
REMARK 924 INTRA-LIGAND FREE ENERGY PREDICTED BY IDOCK:   -0.09 KCAL/MOL
REMARK 927      BINDING AFFINITY PREDICTED BY RF-SCORE:    0.00 PKD
ROOT
HETATM    1  C   UNL     1      -9.153   7.484  69.979  1.00  0.00    -0.148 C  
HETATM    2  C   UNL     1      -9.977   8.791  70.065  1.00  0.00    -0.196 C  
HETATM    3  C   UNL     1     -10.928   8.596  71.328  1.00  0.00    -0.333 C  
HETATM    4  C   UNL     1     -10.692   9.238  68.699  1.00  0.00    -0.180 C  
HETATM    5  C   UNL     1     -11.525  10.511  68.920  1.00  0.00    -0.292 C  
HETATM    6  C   UNL     1      -9.727   9.677  67.476  1.00  0.00    -0.195 C  
HETATM    7  C   UNL     1     -10.634  11.687  68.546  1.00  0.00    -0.241 C  
HETATM    8  C   UNL     1     -10.365   9.677  66.048  1.00  0.00    -0.160 C  
HETATM    9  C   UNL     1      -9.357  10.188  64.984  1.00  0.00    -0.299 C  
HETATM   10  C   UNL     1      -9.364  11.147  67.840  1.00  0.00    -0.161 C  
HETATM   11  C   UNL     1      -8.984  12.080  66.686  1.00  0.00    -0.204 C  
HETATM   12  C   UNL     1      -8.560   8.709  67.368  1.00  0.00    -0.134 C  
HETATM   13  C   UNL     1      -8.934  13.434  66.769  1.00  0.00    -0.190 C  
HETATM   14  C   UNL     1      -8.578  11.439  65.387  1.00  0.00     0.155 C  
ENDROOT
BRANCH   3  15
HETATM   15  C   UNL     1     -10.092   8.085  72.525  1.00  0.00    -0.346 C  
BRANCH  15  16
HETATM   16  C   UNL     1     -10.585   6.979  73.444  1.00  0.00    -0.399 C  
HETATM   17  C   UNL     1     -12.551   6.422  71.836  1.00  0.00    -0.148 C  
HETATM   18  O   UNL     1     -11.861   4.929  73.580  1.00  0.00    -0.372 OA 
HETATM   19  C   UNL     1     -11.354   5.880  72.641  1.00  0.00    -0.292 C  
HETATM   20  C   UNL     1     -10.431   5.115  71.684  1.00  0.00    -0.255 C  
HETATM   21  H   UNL     1     -12.328   4.262  73.092  1.00  0.00     0.000 HD 
ENDBRANCH  15  16
ENDBRANCH   3  15
BRANCH  13  22
HETATM   22  C   UNL     1      -8.786  14.159  68.007  1.00  0.00    -0.182 C  
HETATM   23  C   UNL     1      -8.750  16.199  69.376  1.00  0.00    -0.101 C  
HETATM   24  C   UNL     1      -8.459  17.551  68.704  1.00  0.00    -0.258 C  
HETATM   25  C   UNL     1      -9.423  15.277  68.372  1.00  0.00    -0.206 C  
HETATM   26  O   UNL     1      -7.514  17.402  67.644  1.00  0.00    -0.178 OA 
HETATM   27  C   UNL     1      -9.750  18.175  68.169  1.00  0.00    -0.331 C  
HETATM   28  H   UNL     1      -7.334  18.237  67.229  1.00  0.00     0.000 HD 
HETATM   29  C   UNL     1     -10.512  17.234  67.230  1.00  0.00    -0.319 C  
HETATM   30  C   UNL     1     -10.631  15.831  67.787  1.00  0.00    -0.292 C  
HETATM   31  C   UNL     1     -11.806  15.167  67.825  1.00  0.00    -0.165 C  
ENDBRANCH  13  22
TORSDOF 3
ENDMDL
MODEL       67
REMARK 921   NORMALIZED FREE ENERGY PREDICTED BY IDOCK:   -5.03 KCAL/MOL
REMARK 922        TOTAL FREE ENERGY PREDICTED BY IDOCK:   -6.45 KCAL/MOL
REMARK 923 INTER-LIGAND FREE ENERGY PREDICTED BY IDOCK:   -5.10 KCAL/MOL
REMARK 924 INTRA-LIGAND FREE ENERGY PREDICTED BY IDOCK:   -1.35 KCAL/MOL
REMARK 927      BINDING AFFINITY PREDICTED BY RF-SCORE:    0.00 PKD
ROOT
HETATM    1  C   UNL     1      -6.323   8.778  71.385  1.00  0.00    -0.068 C  
HETATM    2  C   UNL     1      -6.988   8.658  69.993  1.00  0.00    -0.043 C  
HETATM    3  C   UNL     1      -7.208   7.095  69.775  1.00  0.00    -0.079 C  
HETATM    4  C   UNL     1      -6.240   9.442  68.809  1.00  0.00    -0.044 C  
HETATM    5  C   UNL     1      -6.955   9.203  67.470  1.00  0.00    -0.078 C  
HETATM    6  C   UNL     1      -6.224  11.059  68.897  1.00  0.00    -0.042 C  
HETATM    7  C   UNL     1      -7.929  10.357  67.282  1.00  0.00    -0.110 C  
HETATM    8  C   UNL     1      -5.150  11.794  68.030  1.00  0.00    -0.047 C  
HETATM    9  C   UNL     1      -5.294  13.335  68.149  1.00  0.00    -0.102 C  
HETATM   10  C   UNL     1      -7.630  11.442  68.348  1.00  0.00    -0.123 C  
HETATM   11  C   UNL     1      -7.779  12.831  67.719  1.00  0.00    -0.152 C  
HETATM   12  C   UNL     1      -5.924  11.494  70.322  1.00  0.00    -0.160 C  
HETATM   13  C   UNL     1      -8.817  13.219  66.934  1.00  0.00    -0.186 C  
HETATM   14  C   UNL     1      -6.727  13.855  68.051  1.00  0.00    -0.146 C  
ENDROOT
BRANCH   3  15
HETATM   15  C   UNL     1      -7.860   6.487  71.040  1.00  0.00    -0.110 C  
BRANCH  15  16
HETATM   16  C   UNL     1      -9.272   6.846  71.475  1.00  0.00    -0.151 C  
HETATM   17  C   UNL     1     -10.301   5.300  69.654  1.00  0.00    -0.348 C  
HETATM   18  O   UNL     1     -11.585   6.139  71.497  1.00  0.00    -0.295 OA 
HETATM   19  C   UNL     1     -10.274   5.691  71.144  1.00  0.00    -0.220 C  
HETATM   20  C   UNL     1      -9.993   4.431  71.973  1.00  0.00    -0.252 C  
HETATM   21  H   UNL     1     -12.193   5.438  71.296  1.00  0.00     0.000 HD 
ENDBRANCH  15  16
ENDBRANCH   3  15
BRANCH  13  22
HETATM   22  C   UNL     1     -10.110  12.580  66.937  1.00  0.00    -0.232 C  
HETATM   23  C   UNL     1     -12.144  11.725  68.020  1.00  0.00    -0.003 C  
HETATM   24  C   UNL     1     -12.101  11.347  69.509  1.00  0.00    -0.302 C  
HETATM   25  C   UNL     1     -11.137  12.833  67.756  1.00  0.00    -0.289 C  
HETATM   26  O   UNL     1     -10.835  10.789  69.858  1.00  0.00    -0.360 OA 
HETATM   27  C   UNL     1     -12.393  12.570  70.383  1.00  0.00    -0.311 C  
HETATM   28  H   UNL     1     -10.808  10.556  70.779  1.00  0.00     0.000 HD 
HETATM   29  C   UNL     1     -11.461  13.747  70.076  1.00  0.00    -0.188 C  
HETATM   30  C   UNL     1     -11.326  14.007  68.590  1.00  0.00    -0.307 C  
HETATM   31  C   UNL     1     -11.467  15.240  68.058  1.00  0.00    -0.351 C  
ENDBRANCH  13  22
TORSDOF 3
ENDMDL
MODEL       68
REMARK 921   NORMALIZED FREE ENERGY PREDICTED BY IDOCK:   -4.99 KCAL/MOL
REMARK 922        TOTAL FREE ENERGY PREDICTED BY IDOCK:   -6.40 KCAL/MOL
REMARK 923 INTER-LIGAND FREE ENERGY PREDICTED BY IDOCK:   -5.28 KCAL/MOL
REMARK 924 INTRA-LIGAND FREE ENERGY PREDICTED BY IDOCK:   -1.12 KCAL/MOL
REMARK 927      BINDING AFFINITY PREDICTED BY RF-SCORE:    0.00 PKD
ROOT
HETATM    1  C   UNL     1      -8.841   9.685  69.236  1.00  0.00    -0.164 C  
HETATM    2  C   UNL     1      -9.744   8.909  68.247  1.00  0.00    -0.174 C  
HETATM    3  C   UNL     1     -10.573  10.032  67.478  1.00  0.00    -0.336 C  
HETATM    4  C   UNL     1     -10.598   7.715  68.896  1.00  0.00    -0.176 C  
HETATM    5  C   UNL     1     -11.496   7.058  67.836  1.00  0.00     0.374 C  
HETATM    6  C   UNL     1      -9.769   6.446  69.466  1.00  0.00    -0.167 C  
HETATM    7  C   UNL     1     -10.723   5.870  67.283  1.00  0.00    -0.380 C  
HETATM    8  C   UNL     1     -10.520   5.516  70.474  1.00  0.00    -0.347 C  
HETATM    9  C   UNL     1      -9.640   4.304  70.880  1.00  0.00    -0.253 C  
HETATM   10  C   UNL     1      -9.480   5.623  68.176  1.00  0.00    -0.125 C  
HETATM   11  C   UNL     1      -9.262   4.116  68.343  1.00  0.00    -0.198 C  
HETATM   12  C   UNL     1      -8.550   6.930  70.233  1.00  0.00    -0.140 C  
HETATM   13  C   UNL     1      -9.300   3.210  67.332  1.00  0.00    -0.232 C  
HETATM   14  C   UNL     1      -8.920   3.617  69.721  1.00  0.00    -0.171 C  
ENDROOT
BRANCH   3  15
HETATM   15  C   UNL     1      -9.608  11.140  66.994  1.00  0.00    -0.201 C  
BRANCH  15  16
HETATM   16  C   UNL     1      -9.827  11.894  65.692  1.00  0.00    -0.266 C  
HETATM   17  C   UNL     1     -11.435  13.576  66.855  1.00  0.00    -0.374 C  
HETATM   18  O   UNL     1     -10.471  14.004  64.702  1.00  0.00    -0.452 OA 
HETATM   19  C   UNL     1     -10.192  13.391  65.962  1.00  0.00    -0.300 C  
HETATM   20  C   UNL     1      -9.024  14.164  66.588  1.00  0.00    -0.193 C  
HETATM   21  H   UNL     1     -10.693  14.913  64.866  1.00  0.00     0.000 HD 
ENDBRANCH  15  16
ENDBRANCH   3  15
BRANCH  13  22
HETATM   22  C   UNL     1      -9.103   3.547  65.943  1.00  0.00    -0.156 C  
HETATM   23  C   UNL     1      -8.223   4.933  64.115  1.00  0.00    -0.122 C  
HETATM   24  C   UNL     1      -7.894   6.411  64.383  1.00  0.00    -0.115 C  
HETATM   25  C   UNL     1      -8.035   4.139  65.397  1.00  0.00    -0.097 C  
HETATM   26  O   UNL     1      -8.817   6.980  65.310  1.00  0.00    -0.369 OA 
HETATM   27  C   UNL     1      -6.465   6.556  64.910  1.00  0.00    -0.041 C  
HETATM   28  H   UNL     1      -8.614   7.892  65.476  1.00  0.00     0.000 HD 
HETATM   29  C   UNL     1      -6.204   5.691  66.148  1.00  0.00    -0.034 C  
HETATM   30  C   UNL     1      -6.712   4.274  65.980  1.00  0.00    -0.049 C  
HETATM   31  C   UNL     1      -5.949   3.196  66.266  1.00  0.00    -0.024 C  
ENDBRANCH  13  22
TORSDOF 3
ENDMDL
MODEL       69
REMARK 921   NORMALIZED FREE ENERGY PREDICTED BY IDOCK:   -4.97 KCAL/MOL
REMARK 922        TOTAL FREE ENERGY PREDICTED BY IDOCK:   -6.39 KCAL/MOL
REMARK 923 INTER-LIGAND FREE ENERGY PREDICTED BY IDOCK:   -5.82 KCAL/MOL
REMARK 924 INTRA-LIGAND FREE ENERGY PREDICTED BY IDOCK:   -0.57 KCAL/MOL
REMARK 927      BINDING AFFINITY PREDICTED BY RF-SCORE:    0.00 PKD
ROOT
HETATM    1  C   UNL     1     -10.561  10.691  65.386  1.00  0.00    -0.185 C  
HETATM    2  C   UNL     1      -9.379  11.331  66.153  1.00  0.00    -0.230 C  
HETATM    3  C   UNL     1      -8.080  10.595  65.596  1.00  0.00    -0.146 C  
HETATM    4  C   UNL     1      -9.543  11.371  67.749  1.00  0.00    -0.177 C  
HETATM    5  C   UNL     1      -8.289  11.972  68.403  1.00  0.00    -0.151 C  
HETATM    6  C   UNL     1     -10.716  12.316  68.342  1.00  0.00    -0.255 C  
HETATM    7  C   UNL     1      -8.561  13.457  68.588  1.00  0.00     0.010 C  
HETATM    8  C   UNL     1     -11.171  12.027  69.810  1.00  0.00    -0.105 C  
HETATM    9  C   UNL     1     -12.243  13.049  70.276  1.00  0.00    -0.368 C  
HETATM   10  C   UNL     1     -10.062  13.729  68.311  1.00  0.00    -0.239 C  
HETATM   11  C   UNL     1     -10.588  14.764  69.309  1.00  0.00    -0.248 C  
HETATM   12  C   UNL     1     -11.980  12.149  67.514  1.00  0.00    -0.175 C  
HETATM   13  C   UNL     1      -9.954  15.921  69.632  1.00  0.00    -0.255 C  
HETATM   14  C   UNL     1     -11.935  14.504  69.928  1.00  0.00    -0.382 C  
ENDROOT
BRANCH   3  15
HETATM   15  C   UNL     1      -8.126  10.576  64.049  1.00  0.00    -0.023 C  
BRANCH  15  16
HETATM   16  C   UNL     1      -8.384   9.300  63.263  1.00  0.00    -0.193 C  
HETATM   17  C   UNL     1      -5.880   9.133  62.579  1.00  0.00    -0.090 C  
HETATM   18  O   UNL     1      -7.393   7.286  62.364  1.00  0.00    -0.079 OA 
HETATM   19  C   UNL     1      -7.097   8.413  63.191  1.00  0.00    -0.091 C  
HETATM   20  C   UNL     1      -6.697   7.867  64.567  1.00  0.00    -0.056 C  
HETATM   21  H   UNL     1      -6.612   6.747  62.320  1.00  0.00     0.000 HD 
ENDBRANCH  15  16
ENDBRANCH   3  15
BRANCH  13  22
HETATM   22  C   UNL     1      -8.967  16.557  68.795  1.00  0.00    -0.250 C  
HETATM   23  C   UNL     1      -8.248  17.978  66.923  1.00  0.00    -0.259 C  
HETATM   24  C   UNL     1      -9.202  18.197  65.737  1.00  0.00     0.413 C  
HETATM   25  C   UNL     1      -9.065  17.742  68.184  1.00  0.00    -0.274 C  
HETATM   26  O   UNL     1      -9.966  17.022  65.471  1.00  0.00    -0.567 OA 
HETATM   27  C   UNL     1     -10.137  19.378  66.011  1.00  0.00    -0.488 C  
HETATM   28  H   UNL     1     -10.555  17.157  64.739  1.00  0.00     0.000 HD 
HETATM   29  C   UNL     1     -10.906  19.226  67.327  1.00  0.00    -0.554 C  
HETATM   30  C   UNL     1     -10.012  18.805  68.474  1.00  0.00    -0.450 C  
HETATM   31  C   UNL     1     -10.023  19.437  69.668  1.00  0.00     0.050 C  
ENDBRANCH  13  22
TORSDOF 3
ENDMDL
MODEL       70
REMARK 921   NORMALIZED FREE ENERGY PREDICTED BY IDOCK:   -4.95 KCAL/MOL
REMARK 922        TOTAL FREE ENERGY PREDICTED BY IDOCK:   -6.37 KCAL/MOL
REMARK 923 INTER-LIGAND FREE ENERGY PREDICTED BY IDOCK:   -5.37 KCAL/MOL
REMARK 924 INTRA-LIGAND FREE ENERGY PREDICTED BY IDOCK:   -1.00 KCAL/MOL
REMARK 927      BINDING AFFINITY PREDICTED BY RF-SCORE:    0.00 PKD
ROOT
HETATM    1  C   UNL     1     -10.348  10.767  65.222  1.00  0.00    -0.327 C  
HETATM    2  C   UNL     1      -9.483  11.007  66.482  1.00  0.00    -0.211 C  
HETATM    3  C   UNL     1      -9.912  12.449  67.009  1.00  0.00    -0.218 C  
HETATM    4  C   UNL     1      -7.909  10.762  66.286  1.00  0.00    -0.156 C  
HETATM    5  C   UNL     1      -7.149  11.086  67.582  1.00  0.00    -0.088 C  
HETATM    6  C   UNL     1      -7.435   9.242  65.991  1.00  0.00    -0.095 C  
HETATM    7  C   UNL     1      -7.004   9.777  68.344  1.00  0.00    -0.068 C  
HETATM    8  C   UNL     1      -6.012   9.063  65.368  1.00  0.00    -0.055 C  
HETATM    9  C   UNL     1      -5.656   7.560  65.207  1.00  0.00    -0.033 C  
HETATM   10  C   UNL     1      -7.420   8.609  67.413  1.00  0.00    -0.089 C  
HETATM   11  C   UNL     1      -6.484   7.417  67.638  1.00  0.00    -0.056 C  
HETATM   12  C   UNL     1      -8.373   8.597  64.984  1.00  0.00    -0.181 C  
HETATM   13  C   UNL     1      -6.117   6.939  68.854  1.00  0.00    -0.026 C  
HETATM   14  C   UNL     1      -5.989   6.690  66.417  1.00  0.00    -0.029 C  
ENDROOT
BRANCH   3  15
HETATM   15  C   UNL     1     -11.456  12.538  67.057  1.00  0.00    -0.419 C  
BRANCH  15  16
HETATM   16  C   UNL     1     -12.183  13.840  67.355  1.00  0.00    -0.290 C  
HETATM   17  C   UNL     1     -12.101  13.382  69.914  1.00  0.00    -0.389 C  
HETATM   18  O   UNL     1     -12.601  15.548  69.015  1.00  0.00    -0.553 OA 
HETATM   19  C   UNL     1     -11.813  14.380  68.775  1.00  0.00    -0.325 C  
HETATM   20  C   UNL     1     -10.342  14.806  68.864  1.00  0.00    -0.243 C  
HETATM   21  H   UNL     1     -12.376  15.875  69.878  1.00  0.00     0.000 HD 
ENDBRANCH  15  16
ENDBRANCH   3  15
BRANCH  13  22
HETATM   22  C   UNL     1      -6.866   7.163  70.066  1.00  0.00    -0.056 C  
HETATM   23  C   UNL     1      -8.935   7.303  71.385  1.00  0.00    -0.139 C  
HETATM   24  C   UNL     1     -10.266   7.581  70.667  1.00  0.00    -0.202 C  
HETATM   25  C   UNL     1      -8.002   6.564  70.438  1.00  0.00    -0.115 C  
HETATM   26  O   UNL     1     -10.078   8.467  69.565  1.00  0.00    -0.190 OA 
HETATM   27  C   UNL     1     -10.900   6.274  70.186  1.00  0.00    -0.375 C  
HETATM   28  H   UNL     1     -10.900   8.638  69.121  1.00  0.00     0.000 HD 
HETATM   29  C   UNL     1      -9.953   5.449  69.309  1.00  0.00    -0.277 C  
HETATM   30  C   UNL     1      -8.565   5.337  69.903  1.00  0.00    -0.106 C  
HETATM   31  C   UNL     1      -7.922   4.154  70.017  1.00  0.00    -0.055 C  
ENDBRANCH  13  22
TORSDOF 3
ENDMDL
MODEL       71
REMARK 921   NORMALIZED FREE ENERGY PREDICTED BY IDOCK:   -4.93 KCAL/MOL
REMARK 922        TOTAL FREE ENERGY PREDICTED BY IDOCK:   -6.33 KCAL/MOL
REMARK 923 INTER-LIGAND FREE ENERGY PREDICTED BY IDOCK:   -5.06 KCAL/MOL
REMARK 924 INTRA-LIGAND FREE ENERGY PREDICTED BY IDOCK:   -1.28 KCAL/MOL
REMARK 927      BINDING AFFINITY PREDICTED BY RF-SCORE:    0.00 PKD
ROOT
HETATM    1  C   UNL     1      -7.385   9.835  66.542  1.00  0.00    -0.095 C  
HETATM    2  C   UNL     1      -7.425  10.380  67.989  1.00  0.00    -0.090 C  
HETATM    3  C   UNL     1      -7.451  11.965  67.832  1.00  0.00    -0.114 C  
HETATM    4  C   UNL     1      -6.308   9.782  68.975  1.00  0.00    -0.041 C  
HETATM    5  C   UNL     1      -6.408  10.438  70.361  1.00  0.00    -0.127 C  
HETATM    6  C   UNL     1      -6.418   8.208  69.339  1.00  0.00    -0.035 C  
HETATM    7  C   UNL     1      -7.286   9.530  71.211  1.00  0.00     0.161 C  
HETATM    8  C   UNL     1      -5.128   7.531  69.908  1.00  0.00    -0.023 C  
HETATM    9  C   UNL     1      -5.393   6.048  70.283  1.00  0.00    -0.013 C  
HETATM   10  C   UNL     1      -7.502   8.194  70.456  1.00  0.00    -0.063 C  
HETATM   11  C   UNL     1      -7.462   7.031  71.453  1.00  0.00    -0.081 C  
HETATM   12  C   UNL     1      -6.742   7.412  68.085  1.00  0.00    -0.055 C  
HETATM   13  C   UNL     1      -8.115   7.008  72.643  1.00  0.00    -0.115 C  
HETATM   14  C   UNL     1      -6.691   5.803  71.049  1.00  0.00    -0.053 C  
ENDROOT
BRANCH   3  15
HETATM   15  C   UNL     1      -8.522  12.359  66.788  1.00  0.00    -0.095 C  
BRANCH  15  16
HETATM   16  C   UNL     1      -9.418  13.575  66.965  1.00  0.00    -0.251 C  
HETATM   17  C   UNL     1     -10.445  13.252  64.597  1.00  0.00    -0.420 C  
HETATM   18  O   UNL     1     -11.456  14.663  66.251  1.00  0.00    -0.355 OA 
HETATM   19  C   UNL     1     -10.716  13.450  66.101  1.00  0.00    -0.284 C  
HETATM   20  C   UNL     1     -11.622  12.311  66.587  1.00  0.00    -0.438 C  
HETATM   21  H   UNL     1     -12.244  14.587  65.726  1.00  0.00     0.000 HD 
ENDBRANCH  15  16
ENDBRANCH   3  15
BRANCH  13  22
HETATM   22  C   UNL     1      -9.263   7.828  72.946  1.00  0.00    -0.266 C  
HETATM   23  C   UNL     1     -11.546   8.653  72.565  1.00  0.00    -0.310 C  
HETATM   24  C   UNL     1     -12.156   8.552  71.157  1.00  0.00    -0.252 C  
HETATM   25  C   UNL     1     -10.551   7.520  72.760  1.00  0.00    -0.365 C  
HETATM   26  O   UNL     1     -11.162   8.754  70.154  1.00  0.00    -0.343 OA 
HETATM   27  C   UNL     1     -12.830   7.192  70.959  1.00  0.00    -0.268 C  
HETATM   28  H   UNL     1     -11.539   8.692  69.284  1.00  0.00     0.000 HD 
HETATM   29  C   UNL     1     -11.886   6.021  71.246  1.00  0.00    -0.002 C  
HETATM   30  C   UNL     1     -11.115   6.200  72.536  1.00  0.00    -0.313 C  
HETATM   31  C   UNL     1     -11.033   5.227  73.469  1.00  0.00    -0.353 C  
ENDBRANCH  13  22
TORSDOF 3
ENDMDL
MODEL       72
REMARK 921   NORMALIZED FREE ENERGY PREDICTED BY IDOCK:   -4.90 KCAL/MOL
REMARK 922        TOTAL FREE ENERGY PREDICTED BY IDOCK:   -6.30 KCAL/MOL
REMARK 923 INTER-LIGAND FREE ENERGY PREDICTED BY IDOCK:   -5.50 KCAL/MOL
REMARK 924 INTRA-LIGAND FREE ENERGY PREDICTED BY IDOCK:   -0.80 KCAL/MOL
REMARK 927      BINDING AFFINITY PREDICTED BY RF-SCORE:    0.00 PKD
ROOT
HETATM    1  C   UNL     1     -10.860  14.085  69.404  1.00  0.00    -0.141 C  
HETATM    2  C   UNL     1      -9.896  14.181  68.198  1.00  0.00    -0.229 C  
HETATM    3  C   UNL     1     -10.625  13.389  67.023  1.00  0.00    -0.264 C  
HETATM    4  C   UNL     1      -8.377  13.760  68.502  1.00  0.00    -0.120 C  
HETATM    5  C   UNL     1      -7.530  13.839  67.222  1.00  0.00    -0.048 C  
HETATM    6  C   UNL     1      -7.543  14.707  69.515  1.00  0.00    -0.042 C  
HETATM    7  C   UNL     1      -6.883  15.216  67.210  1.00  0.00    -0.075 C  
HETATM    8  C   UNL     1      -6.260  14.085  70.157  1.00  0.00    -0.138 C  
HETATM    9  C   UNL     1      -5.518  15.121  71.044  1.00  0.00    -0.075 C  
HETATM   10  C   UNL     1      -7.099  15.881  68.594  1.00  0.00    -0.133 C  
HETATM   11  C   UNL     1      -5.834  16.646  68.997  1.00  0.00    -0.148 C  
HETATM   12  C   UNL     1      -8.415  15.085  70.702  1.00  0.00     1.731 C  
HETATM   13  C   UNL     1      -5.138  17.478  68.180  1.00  0.00    -0.135 C  
HETATM   14  C   UNL     1      -5.369  16.508  70.422  1.00  0.00    -0.200 C  
ENDROOT
BRANCH   3  15
HETATM   15  C   UNL     1     -12.096  13.859  66.924  1.00  0.00    -0.467 C  
BRANCH  15  16
HETATM   16  C   UNL     1     -12.829  13.952  65.595  1.00  0.00    -0.467 C  
HETATM   17  C   UNL     1     -11.040  15.582  64.642  1.00  0.00    -0.373 C  
HETATM   18  O   UNL     1     -12.614  14.443  63.237  1.00  0.00    -1.043 OA 
HETATM   19  C   UNL     1     -11.841  14.283  64.429  1.00  0.00    -0.426 C  
HETATM   20  C   UNL     1     -10.852  13.139  64.170  1.00  0.00    -0.407 C  
HETATM   21  H   UNL     1     -12.014  14.644  62.529  1.00  0.00     0.000 HD 
ENDBRANCH  15  16
ENDBRANCH   3  15
BRANCH  13  22
HETATM   22  C   UNL     1      -5.698  18.109  67.010  1.00  0.00    -0.162 C  
HETATM   23  C   UNL     1      -7.469  19.277  65.769  1.00  0.00    -0.228 C  
HETATM   24  C   UNL     1      -8.929  19.128  66.225  1.00  0.00    -0.309 C  
HETATM   25  C   UNL     1      -6.553  19.137  66.975  1.00  0.00    -0.200 C  
HETATM   26  O   UNL     1      -9.176  17.816  66.728  1.00  0.00    -0.257 OA 
HETATM   27  C   UNL     1      -9.269  20.171  67.293  1.00  0.00    -0.504 C  
HETATM   28  H   UNL     1     -10.078  17.724  67.010  1.00  0.00     0.000 HD 
HETATM   29  C   UNL     1      -8.304  20.129  68.483  1.00  0.00     0.040 C  
HETATM   30  C   UNL     1      -6.854  20.066  68.050  1.00  0.00    -0.314 C  
HETATM   31  C   UNL     1      -5.912  20.887  68.562  1.00  0.00    -0.367 C  
ENDBRANCH  13  22
TORSDOF 3
ENDMDL
MODEL       73
REMARK 921   NORMALIZED FREE ENERGY PREDICTED BY IDOCK:   -4.85 KCAL/MOL
REMARK 922        TOTAL FREE ENERGY PREDICTED BY IDOCK:   -6.24 KCAL/MOL
REMARK 923 INTER-LIGAND FREE ENERGY PREDICTED BY IDOCK:   -5.75 KCAL/MOL
REMARK 924 INTRA-LIGAND FREE ENERGY PREDICTED BY IDOCK:   -0.49 KCAL/MOL
REMARK 927      BINDING AFFINITY PREDICTED BY RF-SCORE:    0.00 PKD
ROOT
HETATM    1  C   UNL     1      -8.625   9.530  66.744  1.00  0.00    -0.133 C  
HETATM    2  C   UNL     1      -9.650  10.317  67.594  1.00  0.00    -0.173 C  
HETATM    3  C   UNL     1      -9.801   9.477  68.940  1.00  0.00    -0.179 C  
HETATM    4  C   UNL     1     -11.013  10.699  66.839  1.00  0.00    -0.228 C  
HETATM    5  C   UNL     1     -11.974  11.424  67.795  1.00  0.00    -0.073 C  
HETATM    6  C   UNL     1     -10.903  11.752  65.613  1.00  0.00    -0.342 C  
HETATM    7  C   UNL     1     -11.741  12.915  67.601  1.00  0.00    -0.422 C  
HETATM    8  C   UNL     1     -12.102  11.785  64.610  1.00  0.00    -0.104 C  
HETATM    9  C   UNL     1     -11.901  12.885  63.534  1.00  0.00    -0.605 C  
HETATM   10  C   UNL     1     -10.852  13.124  66.348  1.00  0.00    -0.299 C  
HETATM   11  C   UNL     1     -11.341  14.350  65.572  1.00  0.00    -0.334 C  
HETATM   12  C   UNL     1      -9.697  11.413  64.751  1.00  0.00    -0.280 C  
HETATM   13  C   UNL     1     -11.651  15.548  66.131  1.00  0.00     0.213 C  
HETATM   14  C   UNL     1     -11.422  14.231  64.074  1.00  0.00    -0.006 C  
ENDROOT
BRANCH   3  15
HETATM   15  C   UNL     1      -8.396   9.126  69.485  1.00  0.00    -0.126 C  
BRANCH  15  16
HETATM   16  C   UNL     1      -7.954   7.690  69.719  1.00  0.00    -0.116 C  
HETATM   17  C   UNL     1      -8.858   7.735  72.158  1.00  0.00    -0.176 C  
HETATM   18  O   UNL     1      -8.309   5.691  71.032  1.00  0.00    -0.118 OA 
HETATM   19  C   UNL     1      -8.841   6.997  70.805  1.00  0.00    -0.149 C  
HETATM   20  C   UNL     1     -10.290   6.814  70.333  1.00  0.00    -0.223 C  
HETATM   21  H   UNL     1      -8.848   5.270  71.691  1.00  0.00     0.000 HD 
ENDBRANCH  15  16
ENDBRANCH   3  15
BRANCH  13  22
HETATM   22  C   UNL     1     -11.158  15.988  67.414  1.00  0.00    -0.167 C  
HETATM   23  C   UNL     1      -9.505  17.037  68.899  1.00  0.00    -0.235 C  
HETATM   24  C   UNL     1      -8.032  17.094  68.463  1.00  0.00    -0.259 C  
HETATM   25  C   UNL     1     -10.393  17.056  67.665  1.00  0.00    -0.332 C  
HETATM   26  O   UNL     1      -7.671  15.926  67.727  1.00  0.00    -0.130 OA 
HETATM   27  C   UNL     1      -7.770  18.345  67.620  1.00  0.00    -0.236 C  
HETATM   28  H   UNL     1      -6.761  15.962  67.457  1.00  0.00     0.000 HD 
HETATM   29  C   UNL     1      -8.715  18.454  66.419  1.00  0.00    -0.263 C  
HETATM   30  C   UNL     1     -10.159  18.193  66.793  1.00  0.00    -0.367 C  
HETATM   31  C   UNL     1     -11.161  19.019  66.421  1.00  0.00     0.113 C  
ENDBRANCH  13  22
TORSDOF 3
ENDMDL
MODEL       74
REMARK 921   NORMALIZED FREE ENERGY PREDICTED BY IDOCK:   -4.84 KCAL/MOL
REMARK 922        TOTAL FREE ENERGY PREDICTED BY IDOCK:   -6.23 KCAL/MOL
REMARK 923 INTER-LIGAND FREE ENERGY PREDICTED BY IDOCK:   -4.45 KCAL/MOL
REMARK 924 INTRA-LIGAND FREE ENERGY PREDICTED BY IDOCK:   -1.78 KCAL/MOL
REMARK 927      BINDING AFFINITY PREDICTED BY RF-SCORE:    0.00 PKD
ROOT
HETATM    1  C   UNL     1     -10.446   8.883  67.355  1.00  0.00    -0.347 C  
HETATM    2  C   UNL     1      -9.906   7.498  67.783  1.00  0.00    -0.191 C  
HETATM    3  C   UNL     1      -9.594   6.737  66.419  1.00  0.00    -0.149 C  
HETATM    4  C   UNL     1     -10.816   6.709  68.845  1.00  0.00    -0.326 C  
HETATM    5  C   UNL     1     -10.212   5.329  69.149  1.00  0.00    -0.281 C  
HETATM    6  C   UNL     1     -10.943   7.354  70.324  1.00  0.00    -0.272 C  
HETATM    7  C   UNL     1      -9.348   5.494  70.390  1.00  0.00    -0.198 C  
HETATM    8  C   UNL     1     -12.144   6.865  71.199  1.00  0.00    -0.428 C  
HETATM    9  C   UNL     1     -12.103   7.503  72.613  1.00  0.00    -0.080 C  
HETATM   10  C   UNL     1      -9.626   6.887  71.012  1.00  0.00    -0.172 C  
HETATM   11  C   UNL     1      -9.638   6.772  72.539  1.00  0.00    -0.165 C  
HETATM   12  C   UNL     1     -11.141   8.857  70.216  1.00  0.00    -0.251 C  
HETATM   13  C   UNL     1      -8.708   6.108  73.274  1.00  0.00    -0.123 C  
HETATM   14  C   UNL     1     -10.727   7.503  73.277  1.00  0.00    -0.437 C  
ENDROOT
BRANCH   3  15
HETATM   15  C   UNL     1      -8.784   7.669  65.486  1.00  0.00    -0.079 C  
BRANCH  15  16
HETATM   16  C   UNL     1      -7.270   7.590  65.377  1.00  0.00    -0.069 C  
HETATM   17  C   UNL     1      -7.115  10.099  64.710  1.00  0.00    -0.129 C  
HETATM   18  O   UNL     1      -5.204   8.847  65.436  1.00  0.00    -0.037 OA 
HETATM   19  C   UNL     1      -6.612   8.983  65.645  1.00  0.00    -0.068 C  
HETATM   20  C   UNL     1      -6.806   9.441  67.097  1.00  0.00    -0.084 C  
HETATM   21  H   UNL     1      -4.805   9.692  65.599  1.00  0.00     0.000 HD 
ENDBRANCH  15  16
ENDBRANCH   3  15
BRANCH  13  22
HETATM   22  C   UNL     1      -7.377   5.810  72.806  1.00  0.00    -0.092 C  
HETATM   23  C   UNL     1      -5.369   6.233  71.455  1.00  0.00    -0.022 C  
HETATM   24  C   UNL     1      -5.488   7.071  70.172  1.00  0.00    -0.023 C  
HETATM   25  C   UNL     1      -6.430   6.682  72.446  1.00  0.00    -0.058 C  
HETATM   26  O   UNL     1      -6.734   6.829  69.518  1.00  0.00    -0.047 OA 
HETATM   27  C   UNL     1      -5.344   8.562  70.488  1.00  0.00    -0.021 C  
HETATM   28  H   UNL     1      -6.808   7.347  68.725  1.00  0.00     0.000 HD 
HETATM   29  C   UNL     1      -6.332   9.033  71.560  1.00  0.00    -0.079 C  
HETATM   30  C   UNL     1      -6.381   8.101  72.752  1.00  0.00    -0.081 C  
HETATM   31  C   UNL     1      -6.291   8.550  74.023  1.00  0.00    -0.143 C  
ENDBRANCH  13  22
TORSDOF 3
ENDMDL
MODEL       75
REMARK 921   NORMALIZED FREE ENERGY PREDICTED BY IDOCK:   -4.83 KCAL/MOL
REMARK 922        TOTAL FREE ENERGY PREDICTED BY IDOCK:   -6.22 KCAL/MOL
REMARK 923 INTER-LIGAND FREE ENERGY PREDICTED BY IDOCK:   -5.46 KCAL/MOL
REMARK 924 INTRA-LIGAND FREE ENERGY PREDICTED BY IDOCK:   -0.75 KCAL/MOL
REMARK 927      BINDING AFFINITY PREDICTED BY RF-SCORE:    0.00 PKD
ROOT
HETATM    1  C   UNL     1      -7.725  11.653  68.767  1.00  0.00    -0.111 C  
HETATM    2  C   UNL     1      -9.113  10.983  68.633  1.00  0.00    -0.174 C  
HETATM    3  C   UNL     1     -10.045  12.093  67.970  1.00  0.00    -0.204 C  
HETATM    4  C   UNL     1      -9.671  10.295  69.972  1.00  0.00    -0.030 C  
HETATM    5  C   UNL     1     -11.076   9.718  69.735  1.00  0.00    -0.272 C  
HETATM    6  C   UNL     1      -8.866   9.004  70.524  1.00  0.00    -0.242 C  
HETATM    7  C   UNL     1     -10.888   8.255  69.360  1.00  0.00    -0.095 C  
HETATM    8  C   UNL     1      -9.111   8.613  72.018  1.00  0.00    -0.311 C  
HETATM    9  C   UNL     1      -8.339   7.320  72.392  1.00  0.00    -0.122 C  
HETATM   10  C   UNL     1      -9.415   7.854  69.629  1.00  0.00    -0.160 C  
HETATM   11  C   UNL     1      -9.368   6.436  70.207  1.00  0.00    -0.165 C  
HETATM   12  C   UNL     1      -7.369   9.256  70.439  1.00  0.00    -0.111 C  
HETATM   13  C   UNL     1     -10.060   5.376  69.716  1.00  0.00    -0.319 C  
HETATM   14  C   UNL     1      -8.437   6.194  71.365  1.00  0.00    -0.128 C  
ENDROOT
BRANCH   3  15
HETATM   15  C   UNL     1      -9.320  12.706  66.748  1.00  0.00    -0.232 C  
BRANCH  15  16
HETATM   16  C   UNL     1      -8.805  14.136  66.745  1.00  0.00    -0.190 C  
HETATM   17  C   UNL     1     -10.565  14.840  64.963  1.00  0.00    -0.452 C  
HETATM   18  O   UNL     1      -9.351  16.444  66.268  1.00  0.00    -0.272 OA 
HETATM   19  C   UNL     1      -9.933  15.140  66.336  1.00  0.00    -0.272 C  
HETATM   20  C   UNL     1     -11.054  15.204  67.382  1.00  0.00    -0.325 C  
HETATM   21  H   UNL     1     -10.036  17.053  66.020  1.00  0.00     0.000 HD 
ENDBRANCH  15  16
ENDBRANCH   3  15
BRANCH  13  22
HETATM   22  C   UNL     1     -10.565   5.300  68.367  1.00  0.00    -0.077 C  
HETATM   23  C   UNL     1     -10.324   5.079  65.932  1.00  0.00    -0.223 C  
HETATM   24  C   UNL     1      -8.993   5.468  65.270  1.00  0.00    -0.065 C  
HETATM   25  C   UNL     1     -10.056   4.599  67.349  1.00  0.00    -0.150 C  
HETATM   26  O   UNL     1      -8.398   6.583  65.933  1.00  0.00    -0.127 OA 
HETATM   27  C   UNL     1      -8.025   4.282  65.271  1.00  0.00    -0.100 C  
HETATM   28  H   UNL     1      -7.575   6.823  65.524  1.00  0.00     0.000 HD 
HETATM   29  C   UNL     1      -7.806   3.703  66.672  1.00  0.00    -0.088 C  
HETATM   30  C   UNL     1      -9.104   3.505  67.426  1.00  0.00    -0.193 C  
HETATM   31  C   UNL     1      -9.404   2.347  68.054  1.00  0.00    -0.253 C  
ENDBRANCH  13  22
TORSDOF 3
ENDMDL
MODEL       76
REMARK 921   NORMALIZED FREE ENERGY PREDICTED BY IDOCK:   -4.82 KCAL/MOL
REMARK 922        TOTAL FREE ENERGY PREDICTED BY IDOCK:   -6.21 KCAL/MOL
REMARK 923 INTER-LIGAND FREE ENERGY PREDICTED BY IDOCK:   -4.42 KCAL/MOL
REMARK 924 INTRA-LIGAND FREE ENERGY PREDICTED BY IDOCK:   -1.79 KCAL/MOL
REMARK 927      BINDING AFFINITY PREDICTED BY RF-SCORE:    0.00 PKD
ROOT
HETATM    1  C   UNL     1      -6.974  14.402  70.525  1.00  0.00     0.390 C  
HETATM    2  C   UNL     1      -6.716  14.625  69.016  1.00  0.00    -0.103 C  
HETATM    3  C   UNL     1      -5.252  14.051  68.759  1.00  0.00    -0.084 C  
HETATM    4  C   UNL     1      -6.999  16.114  68.488  1.00  0.00    -0.137 C  
HETATM    5  C   UNL     1      -6.653  16.229  66.995  1.00  0.00    -0.193 C  
HETATM    6  C   UNL     1      -8.536  16.623  68.517  1.00  0.00    -0.233 C  
HETATM    7  C   UNL     1      -7.944  15.981  66.227  1.00  0.00    -0.049 C  
HETATM    8  C   UNL     1      -8.761  18.169  68.440  1.00  0.00    -0.302 C  
HETATM    9  C   UNL     1     -10.274  18.512  68.402  1.00  0.00    -0.409 C  
HETATM   10  C   UNL     1      -9.129  15.985  67.226  1.00  0.00    -0.217 C  
HETATM   11  C   UNL     1     -10.332  16.687  66.590  1.00  0.00    -0.296 C  
HETATM   12  C   UNL     1      -9.190  16.210  69.826  1.00  0.00     0.243 C  
HETATM   13  C   UNL     1     -10.783  16.462  65.329  1.00  0.00    -0.312 C  
HETATM   14  C   UNL     1     -11.104  17.650  67.451  1.00  0.00     0.103 C  
ENDROOT
BRANCH   3  15
HETATM   15  C   UNL     1      -5.130  12.650  69.403  1.00  0.00    -0.073 C  
BRANCH  15  16
HETATM   16  C   UNL     1      -5.209  11.372  68.583  1.00  0.00    -0.043 C  
HETATM   17  C   UNL     1      -5.739   9.961  70.703  1.00  0.00    -0.071 C  
HETATM   18  O   UNL     1      -6.099   9.125  68.486  1.00  0.00    -0.045 OA 
HETATM   19  C   UNL     1      -6.150  10.323  69.263  1.00  0.00    -0.037 C  
HETATM   20  C   UNL     1      -7.612  10.787  69.277  1.00  0.00    -0.129 C  
HETATM   21  H   UNL     1      -6.671   8.489  68.899  1.00  0.00     0.000 HD 
ENDBRANCH  15  16
ENDBRANCH   3  15
BRANCH  13  22
HETATM   22  C   UNL     1     -10.510  15.260  64.580  1.00  0.00    -0.047 C  
HETATM   23  C   UNL     1     -10.163  12.838  64.348  1.00  0.00    -0.344 C  
HETATM   24  C   UNL     1      -9.702  12.025  65.569  1.00  0.00    -0.202 C  
HETATM   25  C   UNL     1     -10.978  14.031  64.822  1.00  0.00    -0.410 C  
HETATM   26  O   UNL     1      -8.809  12.785  66.382  1.00  0.00    -0.413 OA 
HETATM   27  C   UNL     1     -10.906  11.569  66.397  1.00  0.00    -0.334 C  
HETATM   28  H   UNL     1      -8.525  12.282  67.136  1.00  0.00     0.000 HD 
HETATM   29  C   UNL     1     -11.810  12.734  66.810  1.00  0.00    -0.452 C  
HETATM   30  C   UNL     1     -12.110  13.671  65.658  1.00  0.00    -0.457 C  
HETATM   31  C   UNL     1     -13.365  14.074  65.364  1.00  0.00     0.235 C  
ENDBRANCH  13  22
TORSDOF 3
ENDMDL
MODEL       77
REMARK 921   NORMALIZED FREE ENERGY PREDICTED BY IDOCK:   -4.80 KCAL/MOL
REMARK 922        TOTAL FREE ENERGY PREDICTED BY IDOCK:   -6.19 KCAL/MOL
REMARK 923 INTER-LIGAND FREE ENERGY PREDICTED BY IDOCK:   -6.40 KCAL/MOL
REMARK 924 INTRA-LIGAND FREE ENERGY PREDICTED BY IDOCK:    0.21 KCAL/MOL
REMARK 927      BINDING AFFINITY PREDICTED BY RF-SCORE:    0.00 PKD
ROOT
HETATM    1  C   UNL     1      -8.681   8.580  71.612  1.00  0.00    -0.262 C  
HETATM    2  C   UNL     1      -9.436   8.760  70.274  1.00  0.00    -0.194 C  
HETATM    3  C   UNL     1     -10.547   7.617  70.270  1.00  0.00    -0.233 C  
HETATM    4  C   UNL     1      -8.504   8.847  68.970  1.00  0.00    -0.133 C  
HETATM    5  C   UNL     1      -9.364   8.966  67.701  1.00  0.00    -0.156 C  
HETATM    6  C   UNL     1      -7.540  10.142  68.844  1.00  0.00    -0.090 C  
HETATM    7  C   UNL     1      -9.496  10.451  67.400  1.00  0.00    -0.170 C  
HETATM    8  C   UNL     1      -6.338  10.024  67.849  1.00  0.00    -0.058 C  
HETATM    9  C   UNL     1      -5.544  11.355  67.771  1.00  0.00    -0.046 C  
HETATM   10  C   UNL     1      -8.508  11.234  68.302  1.00  0.00    -0.152 C  
HETATM   11  C   UNL     1      -7.886  12.384  67.503  1.00  0.00    -0.169 C  
HETATM   12  C   UNL     1      -6.891  10.433  70.188  1.00  0.00    -0.155 C  
HETATM   13  C   UNL     1      -8.581  13.243  66.713  1.00  0.00    -0.041 C  
HETATM   14  C   UNL     1      -6.406  12.611  67.658  1.00  0.00    -0.147 C  
ENDROOT
BRANCH   3  15
HETATM   15  C   UNL     1     -11.291   7.622  71.627  1.00  0.00    -0.286 C  
BRANCH  15  16
HETATM   16  C   UNL     1     -11.762   8.907  72.289  1.00  0.00    -0.351 C  
HETATM   17  C   UNL     1     -13.138   9.570  70.183  1.00  0.00     0.799 C  
HETATM   18  O   UNL     1     -13.469  10.620  72.312  1.00  0.00    -0.594 OA 
HETATM   19  C   UNL     1     -13.141   9.366  71.711  1.00  0.00    -0.409 C  
HETATM   20  C   UNL     1     -14.268   8.389  72.068  1.00  0.00    -0.528 C  
HETATM   21  H   UNL     1     -14.306  10.899  71.961  1.00  0.00     0.000 HD 
ENDBRANCH  15  16
ENDBRANCH   3  15
BRANCH  13  22
HETATM   22  C   UNL     1      -9.994  13.495  66.849  1.00  0.00    -0.256 C  
HETATM   23  C   UNL     1     -12.228  14.047  65.985  1.00  0.00    -0.484 C  
HETATM   24  C   UNL     1     -12.352  14.815  64.659  1.00  0.00    -0.333 C  
HETATM   25  C   UNL     1     -10.956  13.215  65.963  1.00  0.00    -0.295 C  
HETATM   26  O   UNL     1     -11.293  15.759  64.513  1.00  0.00    -0.633 OA 
HETATM   27  C   UNL     1     -12.355  13.845  63.475  1.00  0.00    -0.075 C  
HETATM   28  H   UNL     1     -11.369  16.233  63.694  1.00  0.00     0.000 HD 
HETATM   29  C   UNL     1     -11.136  12.917  63.472  1.00  0.00    -0.288 C  
HETATM   30  C   UNL     1     -10.871  12.307  64.832  1.00  0.00    -0.342 C  
HETATM   31  C   UNL     1     -10.661  10.983  65.001  1.00  0.00    -0.315 C  
ENDBRANCH  13  22
TORSDOF 3
ENDMDL
MODEL       78
REMARK 921   NORMALIZED FREE ENERGY PREDICTED BY IDOCK:   -4.77 KCAL/MOL
REMARK 922        TOTAL FREE ENERGY PREDICTED BY IDOCK:   -6.15 KCAL/MOL
REMARK 923 INTER-LIGAND FREE ENERGY PREDICTED BY IDOCK:   -5.12 KCAL/MOL
REMARK 924 INTRA-LIGAND FREE ENERGY PREDICTED BY IDOCK:   -1.03 KCAL/MOL
REMARK 927      BINDING AFFINITY PREDICTED BY RF-SCORE:    0.00 PKD
ROOT
HETATM    1  C   UNL     1      -9.302   9.923  68.345  1.00  0.00    -0.135 C  
HETATM    2  C   UNL     1      -9.721   8.623  67.618  1.00  0.00    -0.201 C  
HETATM    3  C   UNL     1     -10.088   9.079  66.136  1.00  0.00    -0.242 C  
HETATM    4  C   UNL     1     -10.822   7.739  68.383  1.00  0.00     0.009 C  
HETATM    5  C   UNL     1     -11.202   6.509  67.543  1.00  0.00    -0.288 C  
HETATM    6  C   UNL     1     -10.375   7.063  69.784  1.00  0.00    -0.225 C  
HETATM    7  C   UNL     1     -10.317   5.366  68.018  1.00  0.00    -0.215 C  
HETATM    8  C   UNL     1     -11.528   6.596  70.733  1.00  0.00    -0.407 C  
HETATM    9  C   UNL     1     -10.962   5.901  72.001  1.00  0.00    -0.319 C  
HETATM   10  C   UNL     1      -9.593   5.800  69.318  1.00  0.00    -0.176 C  
HETATM   11  C   UNL     1      -9.533   4.618  70.290  1.00  0.00    -0.240 C  
HETATM   12  C   UNL     1      -9.588   8.067  70.612  1.00  0.00    -0.172 C  
HETATM   13  C   UNL     1      -9.170   3.354  69.951  1.00  0.00    -0.222 C  
HETATM   14  C   UNL     1      -9.842   4.897  71.736  1.00  0.00    -0.240 C  
ENDROOT
BRANCH   3  15
HETATM   15  C   UNL     1      -8.962   9.986  65.586  1.00  0.00    -0.203 C  
BRANCH  15  16
HETATM   16  C   UNL     1      -9.182  11.462  65.292  1.00  0.00    -0.146 C  
HETATM   17  C   UNL     1      -8.821  11.081  62.745  1.00  0.00    -0.297 C  
HETATM   18  O   UNL     1      -9.821  13.080  63.613  1.00  0.00    -0.694 OA 
HETATM   19  C   UNL     1      -9.728  11.673  63.842  1.00  0.00    -0.230 C  
HETATM   20  C   UNL     1     -11.139  11.097  63.669  1.00  0.00    -0.138 C  
HETATM   21  H   UNL     1     -10.152  13.208  62.732  1.00  0.00     0.000 HD 
ENDBRANCH  15  16
ENDBRANCH   3  15
BRANCH  13  22
HETATM   22  C   UNL     1      -8.377   3.029  68.791  1.00  0.00    -0.086 C  
HETATM   23  C   UNL     1      -6.647   3.482  67.105  1.00  0.00    -0.038 C  
HETATM   24  C   UNL     1      -6.259   4.938  66.799  1.00  0.00    -0.032 C  
HETATM   25  C   UNL     1      -7.110   3.382  68.550  1.00  0.00    -0.050 C  
HETATM   26  O   UNL     1      -7.394   5.799  66.886  1.00  0.00    -0.077 OA 
HETATM   27  C   UNL     1      -5.166   5.416  67.757  1.00  0.00    -0.004 C  
HETATM   28  H   UNL     1      -7.155   6.698  66.696  1.00  0.00     0.000 HD 
HETATM   29  C   UNL     1      -5.555   5.238  69.229  1.00  0.00    -0.011 C  
HETATM   30  C   UNL     1      -6.136   3.869  69.512  1.00  0.00    -0.027 C  
HETATM   31  C   UNL     1      -5.712   3.103  70.540  1.00  0.00    -0.017 C  
ENDBRANCH  13  22
TORSDOF 3
ENDMDL
MODEL       79
REMARK 921   NORMALIZED FREE ENERGY PREDICTED BY IDOCK:   -4.75 KCAL/MOL
REMARK 922        TOTAL FREE ENERGY PREDICTED BY IDOCK:   -6.13 KCAL/MOL
REMARK 923 INTER-LIGAND FREE ENERGY PREDICTED BY IDOCK:   -4.85 KCAL/MOL
REMARK 924 INTRA-LIGAND FREE ENERGY PREDICTED BY IDOCK:   -1.28 KCAL/MOL
REMARK 927      BINDING AFFINITY PREDICTED BY RF-SCORE:    0.00 PKD
ROOT
HETATM    1  C   UNL     1      -8.642   3.456  70.176  1.00  0.00    -0.109 C  
HETATM    2  C   UNL     1      -9.425   4.789  70.108  1.00  0.00    -0.246 C  
HETATM    3  C   UNL     1     -10.407   4.755  71.363  1.00  0.00    -0.192 C  
HETATM    4  C   UNL     1     -10.097   5.114  68.688  1.00  0.00    -0.220 C  
HETATM    5  C   UNL     1     -10.893   6.427  68.757  1.00  0.00    -0.378 C  
HETATM    6  C   UNL     1      -9.094   5.394  67.448  1.00  0.00    -0.111 C  
HETATM    7  C   UNL     1      -9.957   7.530  68.285  1.00  0.00    -0.193 C  
HETATM    8  C   UNL     1      -9.704   5.265  66.013  1.00  0.00    -0.159 C  
HETATM    9  C   UNL     1      -8.658   5.632  64.926  1.00  0.00    -0.086 C  
HETATM   10  C   UNL     1      -8.691   6.882  67.668  1.00  0.00    -0.120 C  
HETATM   11  C   UNL     1      -8.258   7.677  66.433  1.00  0.00    -0.124 C  
HETATM   12  C   UNL     1      -7.957   4.385  67.468  1.00  0.00    -0.096 C  
HETATM   13  C   UNL     1      -8.165   9.031  66.377  1.00  0.00    -0.111 C  
HETATM   14  C   UNL     1      -7.847   6.893  65.216  1.00  0.00    -0.118 C  
ENDROOT
BRANCH   3  15
HETATM   15  C   UNL     1      -9.612   4.346  72.625  1.00  0.00    -0.179 C  
BRANCH  15  16
HETATM   16  C   UNL     1      -9.144   5.364  73.653  1.00  0.00    -0.124 C  
HETATM   17  C   UNL     1      -6.705   4.468  73.534  1.00  0.00    -0.059 C  
HETATM   18  O   UNL     1      -7.245   6.587  74.516  1.00  0.00    -0.098 OA 
HETATM   19  C   UNL     1      -7.628   5.700  73.463  1.00  0.00    -0.095 C  
HETATM   20  C   UNL     1      -7.362   6.432  72.142  1.00  0.00    -0.092 C  
HETATM   21  H   UNL     1      -6.325   6.791  74.401  1.00  0.00     0.000 HD 
ENDBRANCH  15  16
ENDBRANCH   3  15
BRANCH  13  22
HETATM   22  C   UNL     1      -8.019   9.876  67.536  1.00  0.00    -0.106 C  
HETATM   23  C   UNL     1      -7.987  12.042  68.696  1.00  0.00    -0.082 C  
HETATM   24  C   UNL     1      -7.701  13.321  67.893  1.00  0.00    -0.152 C  
HETATM   25  C   UNL     1      -8.659  11.022  67.790  1.00  0.00    -0.130 C  
HETATM   26  O   UNL     1      -6.757  13.071  66.853  1.00  0.00    -0.434 OA 
HETATM   27  C   UNL     1      -8.995  13.885  67.301  1.00  0.00    -0.225 C  
HETATM   28  H   UNL     1      -6.581  13.861  66.356  1.00  0.00     0.000 HD 
HETATM   29  C   UNL     1      -9.755  12.853  66.460  1.00  0.00    -0.257 C  
HETATM   30  C   UNL     1      -9.869  11.512  67.154  1.00  0.00    -0.210 C  
HETATM   31  C   UNL     1     -11.042  10.851  67.259  1.00  0.00    -0.350 C  
ENDBRANCH  13  22
TORSDOF 3
ENDMDL
MODEL       80
REMARK 921   NORMALIZED FREE ENERGY PREDICTED BY IDOCK:   -4.74 KCAL/MOL
REMARK 922        TOTAL FREE ENERGY PREDICTED BY IDOCK:   -6.12 KCAL/MOL
REMARK 923 INTER-LIGAND FREE ENERGY PREDICTED BY IDOCK:   -5.81 KCAL/MOL
REMARK 924 INTRA-LIGAND FREE ENERGY PREDICTED BY IDOCK:   -0.30 KCAL/MOL
REMARK 927      BINDING AFFINITY PREDICTED BY RF-SCORE:    0.00 PKD
ROOT
HETATM    1  C   UNL     1      -7.481  10.377  64.877  1.00  0.00    -0.065 C  
HETATM    2  C   UNL     1      -8.205   9.200  65.573  1.00  0.00    -0.124 C  
HETATM    3  C   UNL     1      -7.984   7.951  64.608  1.00  0.00    -0.143 C  
HETATM    4  C   UNL     1      -9.719   9.496  66.016  1.00  0.00    -0.341 C  
HETATM    5  C   UNL     1     -10.352   8.241  66.639  1.00  0.00    -0.293 C  
HETATM    6  C   UNL     1      -9.940  10.598  67.181  1.00  0.00    -0.234 C  
HETATM    7  C   UNL     1     -10.154   8.354  68.144  1.00  0.00    -0.239 C  
HETATM    8  C   UNL     1     -11.375  11.209  67.301  1.00  0.00    -0.302 C  
HETATM    9  C   UNL     1     -11.467  12.191  68.500  1.00  0.00    -0.349 C  
HETATM   10  C   UNL     1      -9.654   9.783  68.477  1.00  0.00    -0.155 C  
HETATM   11  C   UNL     1     -10.318  10.270  69.768  1.00  0.00    -0.287 C  
HETATM   12  C   UNL     1      -9.038  11.796  66.933  1.00  0.00    -0.192 C  
HETATM   13  C   UNL     1     -10.431   9.537  70.905  1.00  0.00    -0.382 C  
HETATM   14  C   UNL     1     -10.826  11.687  69.791  1.00  0.00     0.111 C  
ENDROOT
BRANCH   3  15
HETATM   15  C   UNL     1      -6.489   7.865  64.216  1.00  0.00    -0.057 C  
BRANCH  15  16
HETATM   16  C   UNL     1      -5.998   6.977  63.084  1.00  0.00    -0.040 C  
HETATM   17  C   UNL     1      -5.140   5.188  64.766  1.00  0.00    -0.009 C  
HETATM   18  O   UNL     1      -5.433   4.717  62.433  1.00  0.00    -0.012 OA 
HETATM   19  C   UNL     1      -5.989   5.472  63.512  1.00  0.00    -0.021 C  
HETATM   20  C   UNL     1      -7.406   4.934  63.752  1.00  0.00    -0.051 C  
HETATM   21  H   UNL     1      -5.428   3.804  62.693  1.00  0.00     0.000 HD 
ENDBRANCH  15  16
ENDBRANCH   3  15
BRANCH  13  22
HETATM   22  C   UNL     1      -9.585   8.413  71.225  1.00  0.00    -0.239 C  
HETATM   23  C   UNL     1      -9.078   6.281  72.336  1.00  0.00    -0.138 C  
HETATM   24  C   UNL     1      -9.843   5.898  73.613  1.00  0.00    -0.174 C  
HETATM   25  C   UNL     1      -9.967   7.154  71.464  1.00  0.00    -0.190 C  
HETATM   26  O   UNL     1     -10.123   7.051  74.406  1.00  0.00    -0.458 OA 
HETATM   27  C   UNL     1     -11.146   5.175  73.264  1.00  0.00    -0.392 C  
HETATM   28  H   UNL     1     -10.596   6.815  75.195  1.00  0.00     0.000 HD 
HETATM   29  C   UNL     1     -12.027   5.981  72.303  1.00  0.00    -0.259 C  
HETATM   30  C   UNL     1     -11.244   6.546  71.137  1.00  0.00    -0.353 C  
HETATM   31  C   UNL     1     -11.658   6.412  69.858  1.00  0.00    -0.422 C  
ENDBRANCH  13  22
TORSDOF 3
ENDMDL
MODEL       81
REMARK 921   NORMALIZED FREE ENERGY PREDICTED BY IDOCK:   -4.72 KCAL/MOL
REMARK 922        TOTAL FREE ENERGY PREDICTED BY IDOCK:   -6.09 KCAL/MOL
REMARK 923 INTER-LIGAND FREE ENERGY PREDICTED BY IDOCK:   -5.32 KCAL/MOL
REMARK 924 INTRA-LIGAND FREE ENERGY PREDICTED BY IDOCK:   -0.77 KCAL/MOL
REMARK 927      BINDING AFFINITY PREDICTED BY RF-SCORE:    0.00 PKD
ROOT
HETATM    1  C   UNL     1      -7.173  14.082  67.207  1.00  0.00     0.018 C  
HETATM    2  C   UNL     1      -7.084  13.446  68.615  1.00  0.00    -0.106 C  
HETATM    3  C   UNL     1      -6.834  14.669  69.605  1.00  0.00    -0.163 C  
HETATM    4  C   UNL     1      -6.069  12.209  68.742  1.00  0.00    -0.067 C  
HETATM    5  C   UNL     1      -6.021  11.699  70.191  1.00  0.00    -0.161 C  
HETATM    6  C   UNL     1      -6.446  10.863  67.925  1.00  0.00    -0.062 C  
HETATM    7  C   UNL     1      -7.026  10.561  70.287  1.00  0.00    -0.046 C  
HETATM    8  C   UNL     1      -5.283   9.847  67.678  1.00  0.00    -0.035 C  
HETATM    9  C   UNL     1      -5.797   8.574  66.953  1.00  0.00    -0.049 C  
HETATM   10  C   UNL     1      -7.491  10.182  68.857  1.00  0.00    -0.086 C  
HETATM   11  C   UNL     1      -7.634   8.661  68.751  1.00  0.00    -0.096 C  
HETATM   12  C   UNL     1      -6.933  11.227  66.531  1.00  0.00    -0.100 C  
HETATM   13  C   UNL     1      -8.255   7.876  69.669  1.00  0.00    -0.122 C  
HETATM   14  C   UNL     1      -7.101   8.003  67.508  1.00  0.00    -0.080 C  
ENDROOT
BRANCH   3  15
HETATM   15  C   UNL     1      -7.843  15.799  69.289  1.00  0.00    -0.233 C  
BRANCH  15  16
HETATM   16  C   UNL     1      -9.345  15.598  69.403  1.00  0.00    -0.279 C  
HETATM   17  C   UNL     1      -9.789  18.113  68.906  1.00  0.00    -0.322 C  
HETATM   18  O   UNL     1     -11.518  16.456  68.777  1.00  0.00    -0.328 OA 
HETATM   19  C   UNL     1     -10.121  16.652  68.546  1.00  0.00    -0.266 C  
HETATM   20  C   UNL     1      -9.884  16.456  67.042  1.00  0.00    -0.253 C  
HETATM   21  H   UNL     1     -11.989  17.096  68.256  1.00  0.00     0.000 HD 
ENDBRANCH  15  16
ENDBRANCH   3  15
BRANCH  13  22
HETATM   22  C   UNL     1      -9.233   8.360  70.612  1.00  0.00    -0.177 C  
HETATM   23  C   UNL     1     -11.185   8.117  72.085  1.00  0.00    -0.393 C  
HETATM   24  C   UNL     1     -12.204   7.000  71.804  1.00  0.00    -0.351 C  
HETATM   25  C   UNL     1      -9.813   7.674  71.602  1.00  0.00    -0.193 C  
HETATM   26  O   UNL     1     -12.354   6.787  70.401  1.00  0.00    -0.584 OA 
HETATM   27  C   UNL     1     -11.778   5.699  72.489  1.00  0.00    -0.255 C  
HETATM   28  H   UNL     1     -12.983   6.097  70.228  1.00  0.00     0.000 HD 
HETATM   29  C   UNL     1     -10.358   5.271  72.106  1.00  0.00    -0.268 C  
HETATM   30  C   UNL     1      -9.369   6.416  72.177  1.00  0.00    -0.149 C  
HETATM   31  C   UNL     1      -8.184   6.307  72.816  1.00  0.00    -0.112 C  
ENDBRANCH  13  22
TORSDOF 3
ENDMDL
MODEL       82
REMARK 921   NORMALIZED FREE ENERGY PREDICTED BY IDOCK:   -4.71 KCAL/MOL
REMARK 922        TOTAL FREE ENERGY PREDICTED BY IDOCK:   -6.08 KCAL/MOL
REMARK 923 INTER-LIGAND FREE ENERGY PREDICTED BY IDOCK:   -5.41 KCAL/MOL
REMARK 924 INTRA-LIGAND FREE ENERGY PREDICTED BY IDOCK:   -0.68 KCAL/MOL
REMARK 927      BINDING AFFINITY PREDICTED BY RF-SCORE:    0.00 PKD
ROOT
HETATM    1  C   UNL     1      -7.964   6.858  72.886  1.00  0.00    -0.109 C  
HETATM    2  C   UNL     1      -8.587   6.856  71.470  1.00  0.00    -0.122 C  
HETATM    3  C   UNL     1      -9.380   5.478  71.370  1.00  0.00    -0.174 C  
HETATM    4  C   UNL     1      -7.565   7.175  70.274  1.00  0.00    -0.090 C  
HETATM    5  C   UNL     1      -8.281   7.088  68.917  1.00  0.00    -0.122 C  
HETATM    6  C   UNL     1      -6.935   8.666  70.226  1.00  0.00    -0.041 C  
HETATM    7  C   UNL     1      -8.735   8.498  68.571  1.00  0.00    -0.139 C  
HETATM    8  C   UNL     1      -5.638   8.850  69.371  1.00  0.00    -0.035 C  
HETATM    9  C   UNL     1      -5.187  10.335  69.351  1.00  0.00    -0.038 C  
HETATM   10  C   UNL     1      -8.073   9.494  69.558  1.00  0.00    -0.117 C  
HETATM   11  C   UNL     1      -7.664  10.764  68.807  1.00  0.00    -0.121 C  
HETATM   12  C   UNL     1      -6.530   9.099  71.626  1.00  0.00    -0.018 C  
HETATM   13  C   UNL     1      -8.454  11.433  67.928  1.00  0.00    -0.139 C  
HETATM   14  C   UNL     1      -6.310  11.344  69.118  1.00  0.00    -0.074 C  
ENDROOT
BRANCH   3  15
HETATM   15  C   UNL     1     -10.249   5.294  72.637  1.00  0.00    -0.227 C  
BRANCH  15  16
HETATM   16  C   UNL     1     -11.760   5.459  72.615  1.00  0.00    -0.214 C  
HETATM   17  C   UNL     1     -11.545   8.050  72.533  1.00  0.00    -0.464 C  
HETATM   18  O   UNL     1     -13.590   6.917  72.003  1.00  0.00    -0.536 OA 
HETATM   19  C   UNL     1     -12.170   6.790  71.903  1.00  0.00    -0.335 C  
HETATM   20  C   UNL     1     -11.826   6.773  70.408  1.00  0.00    -0.395 C  
HETATM   21  H   UNL     1     -13.839   7.725  71.571  1.00  0.00     0.000 HD 
ENDBRANCH  15  16
ENDBRANCH   3  15
BRANCH  13  22
HETATM   22  C   UNL     1      -9.893  11.332  67.902  1.00  0.00    -0.187 C  
HETATM   23  C   UNL     1     -12.160  11.964  68.610  1.00  0.00    -0.155 C  
HETATM   24  C   UNL     1     -12.362  12.620  69.985  1.00  0.00    -0.094 C  
HETATM   25  C   UNL     1     -10.777  12.318  68.086  1.00  0.00    -0.241 C  
HETATM   26  O   UNL     1     -11.452  12.086  70.946  1.00  0.00    -0.026 OA 
HETATM   27  C   UNL     1     -12.187  14.138  69.888  1.00  0.00    -0.416 C  
HETATM   28  H   UNL     1     -11.577  12.491  71.796  1.00  0.00     0.000 HD 
HETATM   29  C   UNL     1     -10.843  14.536  69.269  1.00  0.00    -0.270 C  
HETATM   30  C   UNL     1     -10.526  13.747  68.017  1.00  0.00    -0.245 C  
HETATM   31  C   UNL     1     -10.125  14.341  66.872  1.00  0.00    -0.264 C  
ENDBRANCH  13  22
TORSDOF 3
ENDMDL
MODEL       83
REMARK 921   NORMALIZED FREE ENERGY PREDICTED BY IDOCK:   -4.70 KCAL/MOL
REMARK 922        TOTAL FREE ENERGY PREDICTED BY IDOCK:   -6.07 KCAL/MOL
REMARK 923 INTER-LIGAND FREE ENERGY PREDICTED BY IDOCK:   -5.26 KCAL/MOL
REMARK 924 INTRA-LIGAND FREE ENERGY PREDICTED BY IDOCK:   -0.81 KCAL/MOL
REMARK 927      BINDING AFFINITY PREDICTED BY RF-SCORE:    0.00 PKD
ROOT
HETATM    1  C   UNL     1      -7.721  10.283  64.850  1.00  0.00    -0.124 C  
HETATM    2  C   UNL     1      -8.578  10.225  66.137  1.00  0.00    -0.146 C  
HETATM    3  C   UNL     1      -8.158   8.864  66.850  1.00  0.00    -0.109 C  
HETATM    4  C   UNL     1     -10.151  10.459  65.920  1.00  0.00    -0.326 C  
HETATM    5  C   UNL     1     -10.903  10.321  67.254  1.00  0.00    -0.312 C  
HETATM    6  C   UNL     1     -10.613  11.929  65.425  1.00  0.00    -0.315 C  
HETATM    7  C   UNL     1     -11.029  11.723  67.831  1.00  0.00    -0.272 C  
HETATM    8  C   UNL     1     -12.039  12.037  64.793  1.00  0.00    -0.282 C  
HETATM    9  C   UNL     1     -12.382  13.508  64.433  1.00  0.00    -0.391 C  
HETATM   10  C   UNL     1     -10.609  12.750  66.748  1.00  0.00    -0.266 C  
HETATM   11  C   UNL     1     -11.532  13.970  66.816  1.00  0.00    -0.379 C  
HETATM   12  C   UNL     1      -9.677  12.422  64.333  1.00  0.00     0.004 C  
HETATM   13  C   UNL     1     -11.885  14.613  67.959  1.00  0.00    -0.343 C  
HETATM   14  C   UNL     1     -12.030  14.531  65.511  1.00  0.00    -0.312 C  
ENDROOT
BRANCH   3  15
HETATM   15  C   UNL     1      -6.615   8.765  66.899  1.00  0.00    -0.061 C  
BRANCH  15  16
HETATM   16  C   UNL     1      -5.846   8.746  68.211  1.00  0.00    -0.042 C  
HETATM   17  C   UNL     1      -5.785  11.345  68.294  1.00  0.00    -0.045 C  
HETATM   18  O   UNL     1      -5.297   9.990  70.210  1.00  0.00    -0.039 OA 
HETATM   19  C   UNL     1      -6.120  10.041  69.044  1.00  0.00    -0.040 C  
HETATM   20  C   UNL     1      -7.575  10.118  69.525  1.00  0.00    -0.139 C  
HETATM   21  H   UNL     1      -5.463  10.777  70.716  1.00  0.00     0.000 HD 
ENDBRANCH  15  16
ENDBRANCH   3  15
BRANCH  13  22
HETATM   22  C   UNL     1     -11.127  14.547  69.185  1.00  0.00    -0.284 C  
HETATM   23  C   UNL     1     -10.850  14.744  71.618  1.00  0.00     0.758 C  
HETATM   24  C   UNL     1     -11.806  15.649  72.413  1.00  0.00    -0.483 C  
HETATM   25  C   UNL     1     -11.575  14.203  70.397  1.00  0.00    -0.236 C  
HETATM   26  O   UNL     1     -12.167  16.802  71.654  1.00  0.00    -0.269 OA 
HETATM   27  C   UNL     1     -13.063  14.877  72.821  1.00  0.00    -0.558 C  
HETATM   28  H   UNL     1     -12.757  17.362  72.145  1.00  0.00     0.000 HD 
HETATM   29  C   UNL     1     -13.769  14.229  71.626  1.00  0.00    -0.466 C  
HETATM   30  C   UNL     1     -12.807  13.501  70.711  1.00  0.00    -0.243 C  
HETATM   31  C   UNL     1     -13.032  12.239  70.286  1.00  0.00     0.461 C  
ENDBRANCH  13  22
TORSDOF 3
ENDMDL
MODEL       84
REMARK 921   NORMALIZED FREE ENERGY PREDICTED BY IDOCK:   -4.69 KCAL/MOL
REMARK 922        TOTAL FREE ENERGY PREDICTED BY IDOCK:   -6.05 KCAL/MOL
REMARK 923 INTER-LIGAND FREE ENERGY PREDICTED BY IDOCK:   -5.31 KCAL/MOL
REMARK 924 INTRA-LIGAND FREE ENERGY PREDICTED BY IDOCK:   -0.75 KCAL/MOL
REMARK 927      BINDING AFFINITY PREDICTED BY RF-SCORE:    0.00 PKD
ROOT
HETATM    1  C   UNL     1      -7.607  11.570  66.625  1.00  0.00    -0.088 C  
HETATM    2  C   UNL     1      -8.757  10.724  67.222  1.00  0.00    -0.130 C  
HETATM    3  C   UNL     1     -10.033  11.677  67.184  1.00  0.00    -0.219 C  
HETATM    4  C   UNL     1      -8.431  10.028  68.631  1.00  0.00    -0.118 C  
HETATM    5  C   UNL     1      -9.661   9.266  69.151  1.00  0.00    -0.164 C  
HETATM    6  C   UNL     1      -7.296   8.874  68.634  1.00  0.00    -0.077 C  
HETATM    7  C   UNL     1      -9.510   7.825  68.688  1.00  0.00    -0.152 C  
HETATM    8  C   UNL     1      -6.665   8.518  70.021  1.00  0.00    -0.042 C  
HETATM    9  C   UNL     1      -5.650   7.350  69.891  1.00  0.00    -0.023 C  
HETATM   10  C   UNL     1      -8.078   7.626  68.127  1.00  0.00    -0.124 C  
HETATM   11  C   UNL     1      -7.549   6.252  68.548  1.00  0.00    -0.092 C  
HETATM   12  C   UNL     1      -6.115   9.311  67.782  1.00  0.00    -0.053 C  
HETATM   13  C   UNL     1      -8.251   5.092  68.462  1.00  0.00    -0.089 C  
HETATM   14  C   UNL     1      -6.127   6.179  69.034  1.00  0.00    -0.029 C  
ENDROOT
BRANCH   3  15
HETATM   15  C   UNL     1     -10.147  12.326  65.784  1.00  0.00    -0.274 C  
BRANCH  15  16
HETATM   16  C   UNL     1     -11.489  12.661  65.153  1.00  0.00    -0.363 C  
HETATM   17  C   UNL     1     -12.049  14.334  67.065  1.00  0.00    -0.424 C  
HETATM   18  O   UNL     1     -13.253  14.308  64.992  1.00  0.00    -0.638 OA 
HETATM   19  C   UNL     1     -11.951  14.104  65.545  1.00  0.00    -0.391 C  
HETATM   20  C   UNL     1     -11.037  15.182  64.948  1.00  0.00    -0.425 C  
HETATM   21  H   UNL     1     -13.533  15.184  65.230  1.00  0.00     0.000 HD 
ENDBRANCH  15  16
ENDBRANCH   3  15
BRANCH  13  22
HETATM   22  C   UNL     1      -9.375   4.896  67.580  1.00  0.00    -0.148 C  
HETATM   23  C   UNL     1     -10.420   4.271  65.445  1.00  0.00    -0.192 C  
HETATM   24  C   UNL     1      -9.588   4.333  64.155  1.00  0.00    -0.116 C  
HETATM   25  C   UNL     1      -9.500   3.975  66.619  1.00  0.00    -0.214 C  
HETATM   26  O   UNL     1      -8.668   5.424  64.191  1.00  0.00    -0.301 OA 
HETATM   27  C   UNL     1      -8.832   3.019  63.938  1.00  0.00    -0.093 C  
HETATM   28  H   UNL     1      -8.154   5.462  63.393  1.00  0.00     0.000 HD 
HETATM   29  C   UNL     1      -7.969   2.632  65.144  1.00  0.00    -0.082 C  
HETATM   30  C   UNL     1      -8.714   2.765  66.455  1.00  0.00    -0.125 C  
HETATM   31  C   UNL     1      -8.727   1.780  67.380  1.00  0.00    -0.123 C  
ENDBRANCH  13  22
TORSDOF 3
ENDMDL
MODEL       85
REMARK 921   NORMALIZED FREE ENERGY PREDICTED BY IDOCK:   -4.67 KCAL/MOL
REMARK 922        TOTAL FREE ENERGY PREDICTED BY IDOCK:   -6.04 KCAL/MOL
REMARK 923 INTER-LIGAND FREE ENERGY PREDICTED BY IDOCK:   -4.51 KCAL/MOL
REMARK 924 INTRA-LIGAND FREE ENERGY PREDICTED BY IDOCK:   -1.53 KCAL/MOL
REMARK 927      BINDING AFFINITY PREDICTED BY RF-SCORE:    0.00 PKD
ROOT
HETATM    1  C   UNL     1     -11.021   9.413  69.365  1.00  0.00    -0.165 C  
HETATM    2  C   UNL     1      -9.498   9.319  69.108  1.00  0.00    -0.157 C  
HETATM    3  C   UNL     1      -8.832   9.369  70.554  1.00  0.00    -0.287 C  
HETATM    4  C   UNL     1      -8.924  10.355  68.024  1.00  0.00    -0.129 C  
HETATM    5  C   UNL     1      -7.399  10.208  67.896  1.00  0.00    -0.087 C  
HETATM    6  C   UNL     1      -9.409  10.158  66.493  1.00  0.00    -0.200 C  
HETATM    7  C   UNL     1      -7.148   9.248  66.743  1.00  0.00    -0.082 C  
HETATM    8  C   UNL     1      -9.230  11.386  65.540  1.00  0.00    -0.193 C  
HETATM    9  C   UNL     1      -9.664  11.038  64.091  1.00  0.00    -0.332 C  
HETATM   10  C   UNL     1      -8.480   9.016  65.986  1.00  0.00    -0.138 C  
HETATM   11  C   UNL     1      -8.209   8.953  64.480  1.00  0.00    -0.166 C  
HETATM   12  C   UNL     1     -10.901   9.868  66.459  1.00  0.00     0.024 C  
HETATM   13  C   UNL     1      -7.211   8.236  63.902  1.00  0.00    -0.094 C  
HETATM   14  C   UNL     1      -9.159   9.691  63.576  1.00  0.00    -0.211 C  
ENDROOT
BRANCH   3  15
HETATM   15  C   UNL     1      -9.559   8.372  71.488  1.00  0.00    -0.273 C  
BRANCH  15  16
HETATM   16  C   UNL     1      -9.559   6.874  71.231  1.00  0.00    -0.165 C  
HETATM   17  C   UNL     1     -10.578   6.400  73.577  1.00  0.00    -0.297 C  
HETATM   18  O   UNL     1     -10.556   4.755  71.834  1.00  0.00    -0.173 OA 
HETATM   19  C   UNL     1     -10.679   6.161  72.058  1.00  0.00    -0.233 C  
HETATM   20  C   UNL     1     -12.084   6.567  71.594  1.00  0.00    -0.381 C  
HETATM   21  H   UNL     1     -11.235   4.322  72.336  1.00  0.00     0.000 HD 
ENDBRANCH  15  16
ENDBRANCH   3  15
BRANCH  13  22
HETATM   22  C   UNL     1      -6.562   7.110  64.528  1.00  0.00    -0.043 C  
HETATM   23  C   UNL     1      -6.525   5.068  65.894  1.00  0.00    -0.040 C  
HETATM   24  C   UNL     1      -7.635   4.837  66.932  1.00  0.00    -0.087 C  
HETATM   25  C   UNL     1      -7.079   5.896  64.746  1.00  0.00    -0.060 C  
HETATM   26  O   UNL     1      -8.043   6.069  67.526  1.00  0.00    -0.102 OA 
HETATM   27  C   UNL     1      -8.837   4.142  66.288  1.00  0.00    -0.118 C  
HETATM   28  H   UNL     1      -8.729   5.926  68.167  1.00  0.00     0.000 HD 
HETATM   29  C   UNL     1      -9.364   4.896  65.062  1.00  0.00    -0.076 C  
HETATM   30  C   UNL     1      -8.255   5.317  64.121  1.00  0.00    -0.132 C  
HETATM   31  C   UNL     1      -8.310   5.086  62.792  1.00  0.00    -0.109 C  
ENDBRANCH  13  22
TORSDOF 3
ENDMDL
MODEL       86
REMARK 921   NORMALIZED FREE ENERGY PREDICTED BY IDOCK:   -4.65 KCAL/MOL
REMARK 922        TOTAL FREE ENERGY PREDICTED BY IDOCK:   -6.00 KCAL/MOL
REMARK 923 INTER-LIGAND FREE ENERGY PREDICTED BY IDOCK:   -5.47 KCAL/MOL
REMARK 924 INTRA-LIGAND FREE ENERGY PREDICTED BY IDOCK:   -0.53 KCAL/MOL
REMARK 927      BINDING AFFINITY PREDICTED BY RF-SCORE:    0.00 PKD
ROOT
HETATM    1  C   UNL     1      -8.837  13.772  68.567  1.00  0.00    -0.116 C  
HETATM    2  C   UNL     1      -8.323  14.740  67.474  1.00  0.00    -0.197 C  
HETATM    3  C   UNL     1      -8.539  13.961  66.101  1.00  0.00     0.724 C  
HETATM    4  C   UNL     1      -6.856  15.340  67.728  1.00  0.00    -0.189 C  
HETATM    5  C   UNL     1      -6.432  16.236  66.554  1.00  0.00     0.433 C  
HETATM    6  C   UNL     1      -6.680  16.336  68.992  1.00  0.00    -0.182 C  
HETATM    7  C   UNL     1      -6.808  17.661  66.934  1.00  0.00    -0.212 C  
HETATM    8  C   UNL     1      -5.220  16.560  69.507  1.00  0.00    -0.134 C  
HETATM    9  C   UNL     1      -5.188  17.590  70.668  1.00  0.00    -0.268 C  
HETATM   10  C   UNL     1      -7.206  17.691  68.432  1.00  0.00    -0.236 C  
HETATM   11  C   UNL     1      -6.667  18.970  69.079  1.00  0.00    -0.331 C  
HETATM   12  C   UNL     1      -7.425  15.779  70.194  1.00  0.00     0.540 C  
HETATM   13  C   UNL     1      -6.771  20.213  68.542  1.00  0.00    -0.331 C  
HETATM   14  C   UNL     1      -6.034  18.842  70.438  1.00  0.00    -0.088 C  
ENDROOT
BRANCH   3  15
HETATM   15  C   UNL     1      -9.973  13.381  66.060  1.00  0.00    -0.300 C  
BRANCH  15  16
HETATM   16  C   UNL     1     -10.705  13.120  64.753  1.00  0.00    -0.381 C  
HETATM   17  C   UNL     1     -12.907  14.126  65.704  1.00  0.00    -0.402 C  
HETATM   18  O   UNL     1     -12.571  13.766  63.358  1.00  0.00    -0.959 OA 
HETATM   19  C   UNL     1     -11.881  14.132  64.554  1.00  0.00    -0.436 C  
HETATM   20  C   UNL     1     -11.377  15.568  64.359  1.00  0.00    -0.260 C  
HETATM   21  H   UNL     1     -13.285  14.380  63.237  1.00  0.00     0.000 HD 
ENDBRANCH  15  16
ENDBRANCH   3  15
BRANCH  13  22
HETATM   22  C   UNL     1      -7.755  20.583  67.554  1.00  0.00    -0.336 C  
HETATM   23  C   UNL     1      -9.768  20.201  66.197  1.00  0.00    -0.481 C  
HETATM   24  C   UNL     1     -10.228  18.760  65.923  1.00  0.00    -0.266 C  
HETATM   25  C   UNL     1      -9.050  20.250  67.536  1.00  0.00    -0.462 C  
HETATM   26  O   UNL     1      -9.109  17.885  65.778  1.00  0.00    -0.495 OA 
HETATM   27  C   UNL     1     -11.138  18.263  67.049  1.00  0.00     0.188 C  
HETATM   28  H   UNL     1      -9.394  16.995  65.609  1.00  0.00     0.000 HD 
HETATM   29  C   UNL     1     -10.487  18.390  68.431  1.00  0.00    -0.280 C  
HETATM   30  C   UNL     1      -9.842  19.744  68.644  1.00  0.00    -0.491 C  
HETATM   31  C   UNL     1     -10.061  20.481  69.754  1.00  0.00     0.479 C  
ENDBRANCH  13  22
TORSDOF 3
ENDMDL
MODEL       87
REMARK 921   NORMALIZED FREE ENERGY PREDICTED BY IDOCK:   -4.64 KCAL/MOL
REMARK 922        TOTAL FREE ENERGY PREDICTED BY IDOCK:   -6.00 KCAL/MOL
REMARK 923 INTER-LIGAND FREE ENERGY PREDICTED BY IDOCK:   -6.65 KCAL/MOL
REMARK 924 INTRA-LIGAND FREE ENERGY PREDICTED BY IDOCK:    0.65 KCAL/MOL
REMARK 927      BINDING AFFINITY PREDICTED BY RF-SCORE:    0.00 PKD
ROOT
HETATM    1  C   UNL     1     -10.524   4.704  66.616  1.00  0.00    -0.130 C  
HETATM    2  C   UNL     1      -9.414   5.778  66.527  1.00  0.00    -0.168 C  
HETATM    3  C   UNL     1      -8.291   5.135  65.597  1.00  0.00    -0.123 C  
HETATM    4  C   UNL     1      -8.918   6.364  67.937  1.00  0.00    -0.114 C  
HETATM    5  C   UNL     1      -7.778   7.375  67.728  1.00  0.00    -0.112 C  
HETATM    6  C   UNL     1      -9.986   7.235  68.786  1.00  0.00    -0.167 C  
HETATM    7  C   UNL     1      -8.422   8.752  67.665  1.00  0.00    -0.125 C  
HETATM    8  C   UNL     1      -9.683   7.421  70.309  1.00  0.00    -0.172 C  
HETATM    9  C   UNL     1     -10.742   8.333  70.983  1.00  0.00    -0.256 C  
HETATM   10  C   UNL     1      -9.904   8.632  68.104  1.00  0.00    -0.192 C  
HETATM   11  C   UNL     1     -10.286   9.848  68.955  1.00  0.00    -0.209 C  
HETATM   12  C   UNL     1     -11.346   6.555  68.751  1.00  0.00    -0.237 C  
HETATM   13  C   UNL     1      -9.993  11.136  68.641  1.00  0.00    -0.210 C  
HETATM   14  C   UNL     1     -11.098   9.593  70.196  1.00  0.00    -0.314 C  
ENDROOT
BRANCH   3  15
HETATM   15  C   UNL     1      -8.953   4.548  64.327  1.00  0.00    -0.150 C  
BRANCH  15  16
HETATM   16  C   UNL     1     -10.283   3.813  64.373  1.00  0.00    -0.227 C  
HETATM   17  C   UNL     1      -9.600   2.306  62.366  1.00  0.00    -0.089 C  
HETATM   18  O   UNL     1     -11.446   1.772  63.798  1.00  0.00    -0.557 OA 
HETATM   19  C   UNL     1     -10.144   2.362  63.806  1.00  0.00    -0.139 C  
HETATM   20  C   UNL     1      -9.259   1.479  64.695  1.00  0.00    -0.126 C  
HETATM   21  H   UNL     1     -11.362   0.891  63.454  1.00  0.00     0.000 HD 
ENDBRANCH  15  16
ENDBRANCH   3  15
BRANCH  13  22
HETATM   22  C   UNL     1      -9.699  11.590  67.304  1.00  0.00    -0.197 C  
HETATM   23  C   UNL     1     -10.170  12.863  65.255  1.00  0.00    -0.294 C  
HETATM   24  C   UNL     1     -11.621  13.243  64.923  1.00  0.00    -0.325 C  
HETATM   25  C   UNL     1     -10.009  12.774  66.764  1.00  0.00    -0.237 C  
HETATM   26  O   UNL     1     -12.525  12.217  65.332  1.00  0.00    -0.596 OA 
HETATM   27  C   UNL     1     -11.997  14.568  65.591  1.00  0.00    -0.311 C  
HETATM   28  H   UNL     1     -13.422  12.452  65.127  1.00  0.00     0.000 HD 
HETATM   29  C   UNL     1     -11.753  14.553  67.103  1.00  0.00    -0.420 C  
HETATM   30  C   UNL     1     -10.398  13.985  67.466  1.00  0.00    -0.245 C  
HETATM   31  C   UNL     1      -9.557  14.610  68.318  1.00  0.00    -0.208 C  
ENDBRANCH  13  22
TORSDOF 3
ENDMDL
MODEL       88
REMARK 921   NORMALIZED FREE ENERGY PREDICTED BY IDOCK:   -4.64 KCAL/MOL
REMARK 922        TOTAL FREE ENERGY PREDICTED BY IDOCK:   -6.00 KCAL/MOL
REMARK 923 INTER-LIGAND FREE ENERGY PREDICTED BY IDOCK:   -4.50 KCAL/MOL
REMARK 924 INTRA-LIGAND FREE ENERGY PREDICTED BY IDOCK:   -1.49 KCAL/MOL
REMARK 927      BINDING AFFINITY PREDICTED BY RF-SCORE:    0.00 PKD
ROOT
HETATM    1  C   UNL     1      -5.166  11.659  71.518  1.00  0.00     0.030 C  
HETATM    2  C   UNL     1      -5.659  11.044  70.186  1.00  0.00    -0.088 C  
HETATM    3  C   UNL     1      -5.144   9.537  70.212  1.00  0.00    -0.028 C  
HETATM    4  C   UNL     1      -5.306  11.894  68.871  1.00  0.00    -0.050 C  
HETATM    5  C   UNL     1      -5.792  11.160  67.611  1.00  0.00    -0.048 C  
HETATM    6  C   UNL     1      -6.022  13.337  68.716  1.00  0.00    -0.076 C  
HETATM    7  C   UNL     1      -7.174  11.710  67.291  1.00  0.00    -0.137 C  
HETATM    8  C   UNL     1      -5.366  14.338  67.709  1.00  0.00    -0.009 C  
HETATM    9  C   UNL     1      -6.192  15.648  67.603  1.00  0.00    -0.179 C  
HETATM   10  C   UNL     1      -7.431  12.960  68.170  1.00  0.00    -0.126 C  
HETATM   11  C   UNL     1      -8.169  14.021  67.348  1.00  0.00    -0.203 C  
HETATM   12  C   UNL     1      -5.997  14.070  70.048  1.00  0.00    -0.142 C  
HETATM   13  C   UNL     1      -9.243  13.778  66.554  1.00  0.00    -0.210 C  
HETATM   14  C   UNL     1      -7.702  15.446  67.483  1.00  0.00    -0.205 C  
ENDROOT
BRANCH   3  15
HETATM   15  C   UNL     1      -5.495   8.899  71.577  1.00  0.00    -0.046 C  
BRANCH  15  16
HETATM   16  C   UNL     1      -6.925   8.574  71.976  1.00  0.00    -0.102 C  
HETATM   17  C   UNL     1      -6.883   6.368  70.598  1.00  0.00    -0.063 C  
HETATM   18  O   UNL     1      -8.560   6.813  72.252  1.00  0.00    -0.121 OA 
HETATM   19  C   UNL     1      -7.179   7.030  71.958  1.00  0.00    -0.081 C  
HETATM   20  C   UNL     1      -6.370   6.301  73.039  1.00  0.00    -0.063 C  
HETATM   21  H   UNL     1      -8.714   5.876  72.241  1.00  0.00     0.000 HD 
ENDBRANCH  15  16
ENDBRANCH   3  15
BRANCH  13  22
HETATM   22  C   UNL     1     -10.110  12.634  66.703  1.00  0.00    -0.248 C  
HETATM   23  C   UNL     1     -11.440  11.031  68.005  1.00  0.00    -0.365 C  
HETATM   24  C   UNL     1     -11.097  10.796  69.485  1.00  0.00    -0.278 C  
HETATM   25  C   UNL     1     -11.062  12.453  67.624  1.00  0.00    -0.306 C  
HETATM   26  O   UNL     1      -9.689  10.876  69.702  1.00  0.00    -0.428 OA 
HETATM   27  C   UNL     1     -11.822  11.811  70.373  1.00  0.00    -0.362 C  
HETATM   28  H   UNL     1      -9.477  10.731  70.616  1.00  0.00     0.000 HD 
HETATM   29  C   UNL     1     -11.545  13.259  69.956  1.00  0.00    -0.212 C  
HETATM   30  C   UNL     1     -11.677  13.467  68.463  1.00  0.00    -0.392 C  
HETATM   31  C   UNL     1     -12.400  14.478  67.936  1.00  0.00     0.031 C  
ENDBRANCH  13  22
TORSDOF 3
ENDMDL
MODEL       89
REMARK 921   NORMALIZED FREE ENERGY PREDICTED BY IDOCK:   -4.62 KCAL/MOL
REMARK 922        TOTAL FREE ENERGY PREDICTED BY IDOCK:   -5.97 KCAL/MOL
REMARK 923 INTER-LIGAND FREE ENERGY PREDICTED BY IDOCK:   -4.61 KCAL/MOL
REMARK 924 INTRA-LIGAND FREE ENERGY PREDICTED BY IDOCK:   -1.36 KCAL/MOL
REMARK 927      BINDING AFFINITY PREDICTED BY RF-SCORE:    0.00 PKD
ROOT
HETATM    1  C   UNL     1      -9.988   8.237  66.955  1.00  0.00    -0.343 C  
HETATM    2  C   UNL     1      -9.626   6.909  67.661  1.00  0.00    -0.143 C  
HETATM    3  C   UNL     1      -9.242   5.907  66.482  1.00  0.00    -0.154 C  
HETATM    4  C   UNL     1     -10.712   6.379  68.717  1.00  0.00    -0.339 C  
HETATM    5  C   UNL     1     -10.274   5.030  69.308  1.00  0.00    -0.245 C  
HETATM    6  C   UNL     1     -10.936   7.272  70.049  1.00  0.00    -0.273 C  
HETATM    7  C   UNL     1      -9.534   5.339  70.602  1.00  0.00    -0.222 C  
HETATM    8  C   UNL     1     -12.263   7.027  70.840  1.00  0.00    -0.388 C  
HETATM    9  C   UNL     1     -12.313   7.891  72.129  1.00  0.00    -0.331 C  
HETATM   10  C   UNL     1      -9.747   6.833  70.955  1.00  0.00    -0.182 C  
HETATM   11  C   UNL     1      -9.932   6.980  72.469  1.00  0.00    -0.191 C  
HETATM   12  C   UNL     1     -10.982   8.746  69.679  1.00  0.00    -0.114 C  
HETATM   13  C   UNL     1      -9.151   6.384  73.406  1.00  0.00    -0.136 C  
HETATM   14  C   UNL     1     -11.022   7.903  72.944  1.00  0.00    -0.452 C  
ENDROOT
BRANCH   3  15
HETATM   15  C   UNL     1      -8.256   6.606  65.517  1.00  0.00    -0.138 C  
BRANCH  15  16
HETATM   16  C   UNL     1      -7.076   5.876  64.894  1.00  0.00    -0.060 C  
HETATM   17  C   UNL     1      -8.537   5.072  62.898  1.00  0.00    -0.114 C  
HETATM   18  O   UNL     1      -6.142   4.994  62.846  1.00  0.00    -0.020 OA 
HETATM   19  C   UNL     1      -7.236   5.768  63.342  1.00  0.00    -0.057 C  
HETATM   20  C   UNL     1      -7.161   7.140  62.659  1.00  0.00    -0.067 C  
HETATM   21  H   UNL     1      -6.239   4.929  61.903  1.00  0.00     0.000 HD 
ENDBRANCH  15  16
ENDBRANCH   3  15
BRANCH  13  22
HETATM   22  C   UNL     1      -7.810   5.914  73.155  1.00  0.00    -0.102 C  
HETATM   23  C   UNL     1      -5.583   6.050  72.125  1.00  0.00    -0.031 C  
HETATM   24  C   UNL     1      -5.403   6.852  70.826  1.00  0.00    -0.023 C  
HETATM   25  C   UNL     1      -6.720   6.656  72.933  1.00  0.00    -0.068 C  
HETATM   26  O   UNL     1      -6.555   6.737  69.991  1.00  0.00    -0.042 OA 
HETATM   27  C   UNL     1      -5.128   8.325  71.137  1.00  0.00    -0.029 C  
HETATM   28  H   UNL     1      -6.444   7.233  69.188  1.00  0.00     0.000 HD 
HETATM   29  C   UNL     1      -6.202   8.947  72.036  1.00  0.00    -0.062 C  
HETATM   30  C   UNL     1      -6.545   8.069  73.220  1.00  0.00    -0.108 C  
HETATM   31  C   UNL     1      -6.595   8.546  74.482  1.00  0.00    -0.175 C  
ENDBRANCH  13  22
TORSDOF 3
ENDMDL
MODEL       90
REMARK 921   NORMALIZED FREE ENERGY PREDICTED BY IDOCK:   -4.58 KCAL/MOL
REMARK 922        TOTAL FREE ENERGY PREDICTED BY IDOCK:   -5.93 KCAL/MOL
REMARK 923 INTER-LIGAND FREE ENERGY PREDICTED BY IDOCK:   -4.53 KCAL/MOL
REMARK 924 INTRA-LIGAND FREE ENERGY PREDICTED BY IDOCK:   -1.40 KCAL/MOL
REMARK 927      BINDING AFFINITY PREDICTED BY RF-SCORE:    0.00 PKD
ROOT
HETATM    1  C   UNL     1     -11.746  11.035  70.390  1.00  0.00    -0.437 C  
HETATM    2  C   UNL     1     -11.005  10.325  69.231  1.00  0.00    -0.284 C  
HETATM    3  C   UNL     1     -11.175  11.295  67.978  1.00  0.00    -0.351 C  
HETATM    4  C   UNL     1     -11.411   8.789  69.001  1.00  0.00     0.466 C  
HETATM    5  C   UNL     1     -10.657   8.210  67.793  1.00  0.00    -0.233 C  
HETATM    6  C   UNL     1     -11.019   7.744  70.174  1.00  0.00    -0.246 C  
HETATM    7  C   UNL     1      -9.406   7.538  68.340  1.00  0.00    -0.141 C  
HETATM    8  C   UNL     1     -11.781   6.378  70.175  1.00  0.00    -0.372 C  
HETATM    9  C   UNL     1     -11.258   5.446  71.301  1.00  0.00     0.053 C  
HETATM   10  C   UNL     1      -9.516   7.456  69.884  1.00  0.00    -0.153 C  
HETATM   11  C   UNL     1      -8.956   6.115  70.368  1.00  0.00    -0.151 C  
HETATM   12  C   UNL     1     -11.331   8.353  71.532  1.00  0.00    -0.334 C  
HETATM   13  C   UNL     1      -7.784   5.570  69.952  1.00  0.00    -0.082 C  
HETATM   14  C   UNL     1      -9.737   5.383  71.426  1.00  0.00    -0.213 C  
ENDROOT
BRANCH   3  15
HETATM   15  C   UNL     1     -10.824  12.742  68.399  1.00  0.00    -0.272 C  
BRANCH  15  16
HETATM   16  C   UNL     1     -11.518  13.952  67.795  1.00  0.00    -0.354 C  
HETATM   17  C   UNL     1     -12.248  14.794  70.145  1.00  0.00    -0.391 C  
HETATM   18  O   UNL     1     -12.305  16.202  68.205  1.00  0.00    -0.022 OA 
HETATM   19  C   UNL     1     -11.562  15.142  68.810  1.00  0.00    -0.349 C  
HETATM   20  C   UNL     1     -10.162  15.692  69.112  1.00  0.00    -0.233 C  
HETATM   21  H   UNL     1     -12.331  16.924  68.822  1.00  0.00     0.000 HD 
ENDBRANCH  15  16
ENDBRANCH   3  15
BRANCH  13  22
HETATM   22  C   UNL     1      -6.705   6.331  69.372  1.00  0.00    -0.052 C  
HETATM   23  C   UNL     1      -5.319   8.343  69.107  1.00  0.00    -0.031 C  
HETATM   24  C   UNL     1      -5.902   9.713  69.491  1.00  0.00    -0.033 C  
HETATM   25  C   UNL     1      -5.961   7.268  69.969  1.00  0.00    -0.024 C  
HETATM   26  O   UNL     1      -7.296   9.778  69.190  1.00  0.00    -0.072 OA 
HETATM   27  C   UNL     1      -5.674   9.997  70.977  1.00  0.00    -0.083 C  
HETATM   28  H   UNL     1      -7.656  10.624  69.427  1.00  0.00     0.000 HD 
HETATM   29  C   UNL     1      -6.219   8.884  71.879  1.00  0.00    -0.069 C  
HETATM   30  C   UNL     1      -5.825   7.504  71.396  1.00  0.00    -0.035 C  
HETATM   31  C   UNL     1      -5.292   6.577  72.220  1.00  0.00    -0.032 C  
ENDBRANCH  13  22
TORSDOF 3
ENDMDL
MODEL       91
REMARK 921   NORMALIZED FREE ENERGY PREDICTED BY IDOCK:   -4.58 KCAL/MOL
REMARK 922        TOTAL FREE ENERGY PREDICTED BY IDOCK:   -5.93 KCAL/MOL
REMARK 923 INTER-LIGAND FREE ENERGY PREDICTED BY IDOCK:   -4.87 KCAL/MOL
REMARK 924 INTRA-LIGAND FREE ENERGY PREDICTED BY IDOCK:   -1.06 KCAL/MOL
REMARK 927      BINDING AFFINITY PREDICTED BY RF-SCORE:    0.00 PKD
ROOT
HETATM    1  C   UNL     1     -10.396  12.753  66.050  1.00  0.00    -0.291 C  
HETATM    2  C   UNL     1      -9.649  12.870  67.400  1.00  0.00    -0.203 C  
HETATM    3  C   UNL     1     -10.201  14.210  68.063  1.00  0.00    -0.232 C  
HETATM    4  C   UNL     1      -8.052  12.729  67.310  1.00  0.00    -0.172 C  
HETATM    5  C   UNL     1      -7.417  12.920  68.696  1.00  0.00    -0.092 C  
HETATM    6  C   UNL     1      -7.468  11.285  66.869  1.00  0.00    -0.145 C  
HETATM    7  C   UNL     1      -7.256  11.532  69.298  1.00  0.00    -0.048 C  
HETATM    8  C   UNL     1      -5.992  11.256  66.352  1.00  0.00    -0.128 C  
HETATM    9  C   UNL     1      -5.537   9.806  66.037  1.00  0.00    -0.052 C  
HETATM   10  C   UNL     1      -7.528  10.475  68.198  1.00  0.00    -0.090 C  
HETATM   11  C   UNL     1      -6.544   9.311  68.351  1.00  0.00    -0.058 C  
HETATM   12  C   UNL     1      -8.285  10.730  65.713  1.00  0.00    -0.146 C  
HETATM   13  C   UNL     1      -6.245   8.698  69.526  1.00  0.00    -0.036 C  
HETATM   14  C   UNL     1      -5.912   8.772  67.096  1.00  0.00    -0.053 C  
ENDROOT
BRANCH   3  15
HETATM   15  C   UNL     1     -11.747  14.218  67.990  1.00  0.00    -0.386 C  
BRANCH  15  16
HETATM   16  C   UNL     1     -12.603  14.920  69.031  1.00  0.00     0.207 C  
HETATM   17  C   UNL     1     -12.350  12.929  70.686  1.00  0.00    -0.385 C  
HETATM   18  O   UNL     1     -13.136  15.084  71.384  1.00  0.00    -0.331 OA 
HETATM   19  C   UNL     1     -12.232  14.451  70.476  1.00  0.00    -0.341 C  
HETATM   20  C   UNL     1     -10.816  14.888  70.876  1.00  0.00     0.015 C  
HETATM   21  H   UNL     1     -12.910  14.799  72.262  1.00  0.00     0.000 HD 
ENDBRANCH  15  16
ENDBRANCH   3  15
BRANCH  13  22
HETATM   22  C   UNL     1      -7.100   8.728  70.688  1.00  0.00    -0.063 C  
HETATM   23  C   UNL     1      -9.280   8.756  71.821  1.00  0.00    -0.332 C  
HETATM   24  C   UNL     1     -10.513   9.275  71.065  1.00  0.00    -0.314 C  
HETATM   25  C   UNL     1      -8.300   8.155  70.825  1.00  0.00    -0.120 C  
HETATM   26  O   UNL     1     -10.164  10.350  70.193  1.00  0.00    -0.429 OA 
HETATM   27  C   UNL     1     -11.169   8.146  70.266  1.00  0.00    -0.182 C  
HETATM   28  H   UNL     1     -10.926  10.670  69.726  1.00  0.00     0.000 HD 
HETATM   29  C   UNL     1     -10.187   7.446  69.321  1.00  0.00    -0.199 C  
HETATM   30  C   UNL     1      -8.874   7.109  69.997  1.00  0.00    -0.142 C  
HETATM   31  C   UNL     1      -8.315   5.882  69.916  1.00  0.00    -0.121 C  
ENDBRANCH  13  22
TORSDOF 3
ENDMDL
MODEL       92
REMARK 921   NORMALIZED FREE ENERGY PREDICTED BY IDOCK:   -4.57 KCAL/MOL
REMARK 922        TOTAL FREE ENERGY PREDICTED BY IDOCK:   -5.91 KCAL/MOL
REMARK 923 INTER-LIGAND FREE ENERGY PREDICTED BY IDOCK:   -4.19 KCAL/MOL
REMARK 924 INTRA-LIGAND FREE ENERGY PREDICTED BY IDOCK:   -1.73 KCAL/MOL
REMARK 927      BINDING AFFINITY PREDICTED BY RF-SCORE:    0.00 PKD
ROOT
HETATM    1  C   UNL     1      -7.521  10.690  68.770  1.00  0.00    -0.104 C  
HETATM    2  C   UNL     1      -8.714  11.340  68.030  1.00  0.00    -0.144 C  
HETATM    3  C   UNL     1      -9.310  10.182  67.112  1.00  0.00    -0.176 C  
HETATM    4  C   UNL     1      -8.388  12.730  67.298  1.00  0.00    -0.187 C  
HETATM    5  C   UNL     1      -9.628  13.248  66.552  1.00  0.00    -0.267 C  
HETATM    6  C   UNL     1      -8.017  13.989  68.246  1.00  0.00    -0.146 C  
HETATM    7  C   UNL     1     -10.342  14.202  67.499  1.00  0.00    -0.248 C  
HETATM    8  C   UNL     1      -7.279  15.186  67.562  1.00  0.00    -0.227 C  
HETATM    9  C   UNL     1      -7.052  16.350  68.563  1.00  0.00    -0.157 C  
HETATM   10  C   UNL     1      -9.418  14.489  68.710  1.00  0.00    -0.183 C  
HETATM   11  C   UNL     1      -9.537  15.964  69.106  1.00  0.00    -0.253 C  
HETATM   12  C   UNL     1      -7.071  13.541  69.349  1.00  0.00     0.112 C  
HETATM   13  C   UNL     1     -10.708  16.638  69.241  1.00  0.00    -0.337 C  
HETATM   14  C   UNL     1      -8.262  16.696  69.429  1.00  0.00     0.123 C  
ENDROOT
BRANCH   3  15
HETATM   15  C   UNL     1      -9.482   8.896  67.955  1.00  0.00    -0.158 C  
BRANCH  15  16
HETATM   16  C   UNL     1     -10.851   8.342  68.316  1.00  0.00     0.025 C  
HETATM   17  C   UNL     1      -9.873   7.067  70.362  1.00  0.00    -0.184 C  
HETATM   18  O   UNL     1     -12.225   7.441  70.091  1.00  0.00    -0.466 OA 
HETATM   19  C   UNL     1     -10.951   8.041  69.848  1.00  0.00    -0.172 C  
HETATM   20  C   UNL     1     -10.890   9.322  70.691  1.00  0.00    -0.339 C  
HETATM   21  H   UNL     1     -12.286   7.259  71.021  1.00  0.00     0.000 HD 
ENDBRANCH  15  16
ENDBRANCH   3  15
BRANCH  13  22
HETATM   22  C   UNL     1     -11.980  16.000  69.474  1.00  0.00    -0.194 C  
HETATM   23  C   UNL     1     -13.474  14.406  70.599  1.00  0.00     0.000 C  
HETATM   24  C   UNL     1     -12.876  13.157  71.265  1.00  0.00    -0.296 C  
HETATM   25  C   UNL     1     -12.450  15.530  70.634  1.00  0.00    -0.483 C  
HETATM   26  O   UNL     1     -11.760  12.666  70.522  1.00  0.00    -0.529 OA 
HETATM   27  C   UNL     1     -12.451  13.465  72.703  1.00  0.00     0.410 C  
HETATM   28  H   UNL     1     -11.390  11.894  70.934  1.00  0.00     0.000 HD 
HETATM   29  C   UNL     1     -11.495  14.659  72.791  1.00  0.00     0.398 C  
HETATM   30  C   UNL     1     -11.966  15.839  71.968  1.00  0.00    -0.570 C  
HETATM   31  C   UNL     1     -12.024  17.092  72.470  1.00  0.00     0.567 C  
ENDBRANCH  13  22
TORSDOF 3
ENDMDL
MODEL       93
REMARK 921   NORMALIZED FREE ENERGY PREDICTED BY IDOCK:   -4.56 KCAL/MOL
REMARK 922        TOTAL FREE ENERGY PREDICTED BY IDOCK:   -5.90 KCAL/MOL
REMARK 923 INTER-LIGAND FREE ENERGY PREDICTED BY IDOCK:   -5.00 KCAL/MOL
REMARK 924 INTRA-LIGAND FREE ENERGY PREDICTED BY IDOCK:   -0.90 KCAL/MOL
REMARK 927      BINDING AFFINITY PREDICTED BY RF-SCORE:    0.00 PKD
ROOT
HETATM    1  C   UNL     1      -8.035  11.277  68.461  1.00  0.00    -0.145 C  
HETATM    2  C   UNL     1      -9.099  10.461  67.690  1.00  0.00    -0.143 C  
HETATM    3  C   UNL     1     -10.186  11.532  67.230  1.00  0.00    -0.229 C  
HETATM    4  C   UNL     1      -9.658   9.168  68.461  1.00  0.00    -0.156 C  
HETATM    5  C   UNL     1     -10.746   8.474  67.627  1.00  0.00    -0.189 C  
HETATM    6  C   UNL     1      -8.612   7.960  68.719  1.00  0.00    -0.128 C  
HETATM    7  C   UNL     1     -10.052   7.385  66.822  1.00  0.00    -0.305 C  
HETATM    8  C   UNL     1      -8.999   6.926  69.827  1.00  0.00    -0.141 C  
HETATM    9  C   UNL     1      -7.950   5.785  69.919  1.00  0.00    -0.096 C  
HETATM   10  C   UNL     1      -8.604   7.219  67.350  1.00  0.00    -0.121 C  
HETATM   11  C   UNL     1      -8.231   5.733  67.362  1.00  0.00    -0.102 C  
HETATM   12  C   UNL     1      -7.277   8.525  69.179  1.00  0.00    -0.068 C  
HETATM   13  C   UNL     1      -8.459   4.868  66.340  1.00  0.00    -0.111 C  
HETATM   14  C   UNL     1      -7.504   5.215  68.574  1.00  0.00    -0.074 C  
ENDROOT
BRANCH   3  15
HETATM   15  C   UNL     1      -9.471  12.743  66.585  1.00  0.00    -0.249 C  
BRANCH  15  16
HETATM   16  C   UNL     1     -10.224  13.803  65.798  1.00  0.00    -0.322 C  
HETATM   17  C   UNL     1     -10.308  12.280  63.691  1.00  0.00    -0.463 C  
HETATM   18  O   UNL     1     -11.704  14.214  63.930  1.00  0.00    -0.645 OA 
HETATM   19  C   UNL     1     -11.104  13.155  64.678  1.00  0.00    -0.345 C  
HETATM   20  C   UNL     1     -12.248  12.314  65.260  1.00  0.00    -0.313 C  
HETATM   21  H   UNL     1     -12.238  13.821  63.250  1.00  0.00     0.000 HD 
ENDBRANCH  15  16
ENDBRANCH   3  15
BRANCH  13  22
HETATM   22  C   UNL     1      -8.656   5.276  64.971  1.00  0.00    -0.150 C  
HETATM   23  C   UNL     1      -8.260   6.719  63.022  1.00  0.00     0.045 C  
HETATM   24  C   UNL     1      -7.762   8.157  63.239  1.00  0.00    -0.143 C  
HETATM   25  C   UNL     1      -7.758   5.840  64.156  1.00  0.00    -0.097 C  
HETATM   26  O   UNL     1      -8.328   8.720  64.423  1.00  0.00    -0.163 OA 
HETATM   27  C   UNL     1      -6.234   8.191  63.322  1.00  0.00    -0.073 C  
HETATM   28  H   UNL     1      -8.020   9.608  64.557  1.00  0.00     0.000 HD 
HETATM   29  C   UNL     1      -5.682   7.240  64.389  1.00  0.00    -0.033 C  
HETATM   30  C   UNL     1      -6.316   5.866  64.323  1.00  0.00    -0.030 C  
HETATM   31  C   UNL     1      -5.582   4.732  64.324  1.00  0.00    -0.014 C  
ENDBRANCH  13  22
TORSDOF 3
ENDMDL
MODEL       94
REMARK 921   NORMALIZED FREE ENERGY PREDICTED BY IDOCK:   -4.51 KCAL/MOL
REMARK 922        TOTAL FREE ENERGY PREDICTED BY IDOCK:   -5.84 KCAL/MOL
REMARK 923 INTER-LIGAND FREE ENERGY PREDICTED BY IDOCK:   -5.08 KCAL/MOL
REMARK 924 INTRA-LIGAND FREE ENERGY PREDICTED BY IDOCK:   -0.76 KCAL/MOL
REMARK 927      BINDING AFFINITY PREDICTED BY RF-SCORE:    0.00 PKD
ROOT
HETATM    1  C   UNL     1     -11.640  10.155  71.038  1.00  0.00    -0.462 C  
HETATM    2  C   UNL     1     -11.133   9.078  70.049  1.00  0.00    -0.197 C  
HETATM    3  C   UNL     1     -11.516   9.631  68.605  1.00  0.00     0.227 C  
HETATM    4  C   UNL     1     -11.594   7.576  70.381  1.00  0.00    -0.172 C  
HETATM    5  C   UNL     1     -11.082   6.607  69.303  1.00  0.00    -0.345 C  
HETATM    6  C   UNL     1     -11.009   6.912  71.736  1.00  0.00    -0.259 C  
HETATM    7  C   UNL     1      -9.762   6.047  69.812  1.00  0.00    -0.194 C  
HETATM    8  C   UNL     1     -11.776   5.667  72.291  1.00  0.00    -0.202 C  
HETATM    9  C   UNL     1     -11.068   5.087  73.545  1.00  0.00    -0.386 C  
HETATM   10  C   UNL     1      -9.589   6.446  71.300  1.00  0.00    -0.182 C  
HETATM   11  C   UNL     1      -8.968   5.280  72.074  1.00  0.00    -0.144 C  
HETATM   12  C   UNL     1     -11.060   7.924  72.869  1.00  0.00    -0.442 C  
HETATM   13  C   UNL     1      -7.898   4.554  71.656  1.00  0.00    -0.091 C  
HETATM   14  C   UNL     1      -9.551   4.959  73.423  1.00  0.00    -0.145 C  
ENDROOT
BRANCH   3  15
HETATM   15  C   UNL     1     -11.075  11.109  68.488  1.00  0.00    -0.298 C  
BRANCH  15  16
HETATM   16  C   UNL     1      -9.783  11.517  67.798  1.00  0.00    -0.180 C  
HETATM   17  C   UNL     1      -9.882   9.442  66.233  1.00  0.00    -0.351 C  
HETATM   18  O   UNL     1      -8.457  11.317  65.785  1.00  0.00    -0.315 OA 
HETATM   19  C   UNL     1      -9.732  10.972  66.333  1.00  0.00    -0.201 C  
HETATM   20  C   UNL     1     -10.794  11.624  65.438  1.00  0.00    -0.336 C  
HETATM   21  H   UNL     1      -8.426  10.986  64.896  1.00  0.00     0.000 HD 
ENDBRANCH  15  16
ENDBRANCH   3  15
BRANCH  13  22
HETATM   22  C   UNL     1      -6.933   5.026  70.693  1.00  0.00    -0.045 C  
HETATM   23  C   UNL     1      -5.694   6.773  69.489  1.00  0.00    -0.015 C  
HETATM   24  C   UNL     1      -6.300   8.181  69.374  1.00  0.00    -0.034 C  
HETATM   25  C   UNL     1      -6.176   6.125  70.777  1.00  0.00    -0.039 C  
HETATM   26  O   UNL     1      -7.720   8.118  69.248  1.00  0.00    -0.099 OA 
HETATM   27  C   UNL     1      -5.920   9.031  70.589  1.00  0.00    -0.038 C  
HETATM   28  H   UNL     1      -8.095   8.988  69.177  1.00  0.00     0.000 HD 
HETATM   29  C   UNL     1      -6.299   8.365  71.915  1.00  0.00    -0.064 C  
HETATM   30  C   UNL     1      -5.892   6.907  71.967  1.00  0.00    -0.038 C  
HETATM   31  C   UNL     1      -5.220   6.383  73.015  1.00  0.00    -0.036 C  
ENDBRANCH  13  22
TORSDOF 3
ENDMDL
MODEL       95
REMARK 921   NORMALIZED FREE ENERGY PREDICTED BY IDOCK:   -4.50 KCAL/MOL
REMARK 922        TOTAL FREE ENERGY PREDICTED BY IDOCK:   -5.84 KCAL/MOL
REMARK 923 INTER-LIGAND FREE ENERGY PREDICTED BY IDOCK:   -4.67 KCAL/MOL
REMARK 924 INTRA-LIGAND FREE ENERGY PREDICTED BY IDOCK:   -1.16 KCAL/MOL
REMARK 927      BINDING AFFINITY PREDICTED BY RF-SCORE:    0.00 PKD
ROOT
HETATM    1  C   UNL     1      -7.220  10.778  67.047  1.00  0.00    -0.109 C  
HETATM    2  C   UNL     1      -8.172   9.578  66.826  1.00  0.00    -0.113 C  
HETATM    3  C   UNL     1      -7.731   8.954  65.428  1.00  0.00    -0.092 C  
HETATM    4  C   UNL     1      -9.734   9.906  66.997  1.00  0.00    -0.230 C  
HETATM    5  C   UNL     1     -10.581   8.659  66.698  1.00  0.00    -0.131 C  
HETATM    6  C   UNL     1     -10.241  10.309  68.481  1.00  0.00    -0.192 C  
HETATM    7  C   UNL     1     -10.835   7.974  68.032  1.00  0.00    -0.011 C  
HETATM    8  C   UNL     1     -11.617  11.048  68.572  1.00  0.00    -0.380 C  
HETATM    9  C   UNL     1     -12.016  11.306  70.050  1.00  0.00    -0.447 C  
HETATM   10  C   UNL     1     -10.392   8.923  69.175  1.00  0.00    -0.230 C  
HETATM   11  C   UNL     1     -11.388   8.828  70.335  1.00  0.00    -0.213 C  
HETATM   12  C   UNL     1      -9.252  11.270  69.120  1.00  0.00     0.095 C  
HETATM   13  C   UNL     1     -11.869   7.667  70.850  1.00  0.00    -0.272 C  
HETATM   14  C   UNL     1     -11.813  10.116  70.986  1.00  0.00    -0.475 C  
ENDROOT
BRANCH   3  15
HETATM   15  C   UNL     1      -6.193   8.782  65.406  1.00  0.00    -0.059 C  
BRANCH  15  16
HETATM   16  C   UNL     1      -5.494   7.650  66.141  1.00  0.00    -0.028 C  
HETATM   17  C   UNL     1      -7.575   6.110  65.894  1.00  0.00    -0.087 C  
HETATM   18  O   UNL     1      -5.415   5.258  66.492  1.00  0.00    -0.012 OA 
HETATM   19  C   UNL     1      -6.054   6.259  65.696  1.00  0.00    -0.030 C  
HETATM   20  C   UNL     1      -5.722   5.946  64.232  1.00  0.00    -0.021 C  
HETATM   21  H   UNL     1      -5.756   4.414  66.222  1.00  0.00     0.000 HD 
ENDBRANCH  15  16
ENDBRANCH   3  15
BRANCH  13  22
HETATM   22  C   UNL     1     -11.209   6.392  70.711  1.00  0.00    -0.386 C  
HETATM   23  C   UNL     1      -9.237   4.928  70.622  1.00  0.00    -0.189 C  
HETATM   24  C   UNL     1      -7.874   5.525  70.240  1.00  0.00    -0.093 C  
HETATM   25  C   UNL     1     -10.077   5.996  71.304  1.00  0.00    -0.237 C  
HETATM   26  O   UNL     1      -8.023   6.557  69.265  1.00  0.00    -0.108 OA 
HETATM   27  C   UNL     1      -7.160   6.074  71.478  1.00  0.00    -0.078 C  
HETATM   28  H   UNL     1      -7.181   6.927  69.029  1.00  0.00     0.000 HD 
HETATM   29  C   UNL     1      -8.017   7.082  72.251  1.00  0.00    -0.092 C  
HETATM   30  C   UNL     1      -9.435   6.596  72.460  1.00  0.00    -0.155 C  
HETATM   31  C   UNL     1     -10.039   6.629  73.668  1.00  0.00    -0.300 C  
ENDBRANCH  13  22
TORSDOF 3
ENDMDL
MODEL       96
REMARK 921   NORMALIZED FREE ENERGY PREDICTED BY IDOCK:   -4.49 KCAL/MOL
REMARK 922        TOTAL FREE ENERGY PREDICTED BY IDOCK:   -5.82 KCAL/MOL
REMARK 923 INTER-LIGAND FREE ENERGY PREDICTED BY IDOCK:   -4.31 KCAL/MOL
REMARK 924 INTRA-LIGAND FREE ENERGY PREDICTED BY IDOCK:   -1.50 KCAL/MOL
REMARK 927      BINDING AFFINITY PREDICTED BY RF-SCORE:    0.00 PKD
ROOT
HETATM    1  C   UNL     1     -11.153   8.276  71.291  1.00  0.00    -0.296 C  
HETATM    2  C   UNL     1      -9.636   8.472  71.054  1.00  0.00    -0.241 C  
HETATM    3  C   UNL     1      -8.959   8.202  72.471  1.00  0.00    -0.286 C  
HETATM    4  C   UNL     1      -9.231   9.841  70.322  1.00  0.00    -0.225 C  
HETATM    5  C   UNL     1      -7.703   9.951  70.194  1.00  0.00    -0.188 C  
HETATM    6  C   UNL     1      -9.710  10.022  68.786  1.00  0.00    -0.174 C  
HETATM    7  C   UNL     1      -7.339   9.402  68.823  1.00  0.00    -0.074 C  
HETATM    8  C   UNL     1      -9.720  11.481  68.224  1.00  0.00    -0.198 C  
HETATM    9  C   UNL     1     -10.125  11.501  66.726  1.00  0.00    -0.245 C  
HETATM   10  C   UNL     1      -8.638   9.211  67.999  1.00  0.00    -0.125 C  
HETATM   11  C   UNL     1      -8.386   9.615  66.544  1.00  0.00    -0.120 C  
HETATM   12  C   UNL     1     -11.147   9.548  68.636  1.00  0.00    -0.034 C  
HETATM   13  C   UNL     1      -7.307   9.238  65.810  1.00  0.00    -0.094 C  
HETATM   14  C   UNL     1      -9.446  10.440  65.864  1.00  0.00    -0.237 C  
ENDROOT
BRANCH   3  15
HETATM   15  C   UNL     1      -9.523   6.891  73.068  1.00  0.00    -0.168 C  
BRANCH  15  16
HETATM   16  C   UNL     1      -8.811   5.557  72.910  1.00  0.00    -0.117 C  
HETATM   17  C   UNL     1     -11.039   4.251  73.219  1.00  0.00    -0.342 C  
HETATM   18  O   UNL     1      -9.067   3.225  72.321  1.00  0.00    -0.095 OA 
HETATM   19  C   UNL     1      -9.781   4.462  72.354  1.00  0.00    -0.157 C  
HETATM   20  C   UNL     1     -10.224   4.762  70.916  1.00  0.00    -0.247 C  
HETATM   21  H   UNL     1      -9.656   2.561  71.984  1.00  0.00     0.000 HD 
ENDBRANCH  15  16
ENDBRANCH   3  15
BRANCH  13  22
HETATM   22  C   UNL     1      -6.497   8.082  66.108  1.00  0.00    -0.046 C  
HETATM   23  C   UNL     1      -6.099   5.668  66.334  1.00  0.00    -0.030 C  
HETATM   24  C   UNL     1      -7.292   4.729  66.574  1.00  0.00    -0.082 C  
HETATM   25  C   UNL     1      -6.566   6.875  65.537  1.00  0.00    -0.051 C  
HETATM   26  O   UNL     1      -8.279   5.355  67.392  1.00  0.00    -0.101 OA 
HETATM   27  C   UNL     1      -7.913   4.297  65.243  1.00  0.00    -0.100 C  
HETATM   28  H   UNL     1      -9.016   4.774  67.540  1.00  0.00     0.000 HD 
HETATM   29  C   UNL     1      -8.306   5.489  64.364  1.00  0.00    -0.115 C  
HETATM   30  C   UNL     1      -7.213   6.534  64.282  1.00  0.00    -0.069 C  
HETATM   31  C   UNL     1      -6.795   7.050  63.106  1.00  0.00    -0.056 C  
ENDBRANCH  13  22
TORSDOF 3
ENDMDL
MODEL       97
REMARK 921   NORMALIZED FREE ENERGY PREDICTED BY IDOCK:   -4.48 KCAL/MOL
REMARK 922        TOTAL FREE ENERGY PREDICTED BY IDOCK:   -5.80 KCAL/MOL
REMARK 923 INTER-LIGAND FREE ENERGY PREDICTED BY IDOCK:   -5.79 KCAL/MOL
REMARK 924 INTRA-LIGAND FREE ENERGY PREDICTED BY IDOCK:   -0.01 KCAL/MOL
REMARK 927      BINDING AFFINITY PREDICTED BY RF-SCORE:    0.00 PKD
ROOT
HETATM    1  C   UNL     1     -10.085  14.275  70.316  1.00  0.00     1.163 C  
HETATM    2  C   UNL     1     -10.286  14.652  68.829  1.00  0.00    -0.242 C  
HETATM    3  C   UNL     1     -11.739  14.114  68.459  1.00  0.00    -0.380 C  
HETATM    4  C   UNL     1      -9.094  14.212  67.847  1.00  0.00    -0.189 C  
HETATM    5  C   UNL     1      -9.430  14.586  66.394  1.00  0.00    -0.316 C  
HETATM    6  C   UNL     1      -7.664  14.940  68.059  1.00  0.00    -0.128 C  
HETATM    7  C   UNL     1      -8.803  15.948  66.138  1.00  0.00    -0.363 C  
HETATM    8  C   UNL     1      -6.418  14.225  67.439  1.00  0.00     0.099 C  
HETATM    9  C   UNL     1      -5.129  15.063  67.650  1.00  0.00     0.046 C  
HETATM   10  C   UNL     1      -7.859  16.295  67.317  1.00  0.00    -0.203 C  
HETATM   11  C   UNL     1      -6.601  16.985  66.781  1.00  0.00    -0.262 C  
HETATM   12  C   UNL     1      -7.348  15.031  69.543  1.00  0.00    -0.202 C  
HETATM   13  C   UNL     1      -6.599  17.990  65.868  1.00  0.00    -0.319 C  
HETATM   14  C   UNL     1      -5.279  16.555  67.357  1.00  0.00    -0.163 C  
ENDROOT
BRANCH   3  15
HETATM   15  C   UNL     1     -12.743  14.558  69.550  1.00  0.00     0.120 C  
BRANCH  15  16
HETATM   16  C   UNL     1     -12.512  15.790  70.410  1.00  0.00    -0.331 C  
HETATM   17  C   UNL     1     -14.402  15.086  72.051  1.00  0.00    -0.666 C  
HETATM   18  O   UNL     1     -12.775  16.754  72.612  1.00  0.00     0.045 OA 
HETATM   19  C   UNL     1     -12.935  15.530  71.893  1.00  0.00    -0.441 C  
HETATM   20  C   UNL     1     -12.036  14.489  72.574  1.00  0.00    -0.153 C  
HETATM   21  H   UNL     1     -13.032  16.596  73.512  1.00  0.00     0.000 HD 
ENDBRANCH  15  16
ENDBRANCH   3  15
BRANCH  13  22
HETATM   22  C   UNL     1      -7.731  18.845  65.610  1.00  0.00     0.107 C  
HETATM   23  C   UNL     1      -9.850  19.938  66.208  1.00  0.00    -0.570 C  
HETATM   24  C   UNL     1     -10.738  19.311  67.295  1.00  0.00    -0.488 C  
HETATM   25  C   UNL     1      -8.396  19.598  66.494  1.00  0.00    -0.357 C  
HETATM   26  O   UNL     1     -10.674  17.887  67.250  1.00  0.00    -0.354 OA 
HETATM   27  C   UNL     1     -10.323  19.810  68.682  1.00  0.00    -0.422 C  
HETATM   28  H   UNL     1     -11.222  17.499  67.922  1.00  0.00     0.000 HD 
HETATM   29  C   UNL     1      -8.836  19.577  68.969  1.00  0.00    -0.225 C  
HETATM   30  C   UNL     1      -7.950  19.999  67.817  1.00  0.00    -0.324 C  
HETATM   31  C   UNL     1      -6.863  20.781  67.991  1.00  0.00    -0.276 C  
ENDBRANCH  13  22
TORSDOF 3
ENDMDL
MODEL       98
REMARK 921   NORMALIZED FREE ENERGY PREDICTED BY IDOCK:   -4.42 KCAL/MOL
REMARK 922        TOTAL FREE ENERGY PREDICTED BY IDOCK:   -5.74 KCAL/MOL
REMARK 923 INTER-LIGAND FREE ENERGY PREDICTED BY IDOCK:   -5.59 KCAL/MOL
REMARK 924 INTRA-LIGAND FREE ENERGY PREDICTED BY IDOCK:   -0.15 KCAL/MOL
REMARK 927      BINDING AFFINITY PREDICTED BY RF-SCORE:    0.00 PKD
ROOT
HETATM    1  C   UNL     1      -7.658   8.901  64.374  1.00  0.00    -0.114 C  
HETATM    2  C   UNL     1      -8.387   9.313  65.675  1.00  0.00    -0.128 C  
HETATM    3  C   UNL     1      -8.041   8.164  66.724  1.00  0.00    -0.103 C  
HETATM    4  C   UNL     1      -9.942   9.672  65.502  1.00  0.00    -0.279 C  
HETATM    5  C   UNL     1     -10.571  10.008  66.863  1.00  0.00    -0.261 C  
HETATM    6  C   UNL     1     -10.298  10.991  64.633  1.00  0.00    -0.410 C  
HETATM    7  C   UNL     1     -10.497  11.520  67.018  1.00  0.00    -0.263 C  
HETATM    8  C   UNL     1     -11.761  11.096  64.090  1.00  0.00     0.461 C  
HETATM    9  C   UNL     1     -11.985  12.437  63.342  1.00  0.00    -0.595 C  
HETATM   10  C   UNL     1     -10.082  12.142  65.660  1.00  0.00    -0.274 C  
HETATM   11  C   UNL     1     -10.865  13.438  65.430  1.00  0.00    -0.303 C  
HETATM   12  C   UNL     1      -9.427  11.037  63.388  1.00  0.00    -0.331 C  
HETATM   13  C   UNL     1     -11.037  14.414  66.358  1.00  0.00    -0.326 C  
HETATM   14  C   UNL     1     -11.428  13.669  64.054  1.00  0.00    -0.303 C  
ENDROOT
BRANCH   3  15
HETATM   15  C   UNL     1      -6.518   7.891  66.700  1.00  0.00    -0.055 C  
BRANCH  15  16
HETATM   16  C   UNL     1      -5.949   6.486  66.578  1.00  0.00    -0.028 C  
HETATM   17  C   UNL     1      -5.862   6.221  69.164  1.00  0.00    -0.020 C  
HETATM   18  O   UNL     1      -5.679   4.349  67.677  1.00  0.00    -0.020 OA 
HETATM   19  C   UNL     1      -6.323   5.617  67.824  1.00  0.00    -0.042 C  
HETATM   20  C   UNL     1      -7.831   5.346  67.905  1.00  0.00    -0.092 C  
HETATM   21  H   UNL     1      -5.906   3.821  68.433  1.00  0.00     0.000 HD 
ENDBRANCH  15  16
ENDBRANCH   3  15
BRANCH  13  22
HETATM   22  C   UNL     1     -10.175  14.599  67.500  1.00  0.00    -0.225 C  
HETATM   23  C   UNL     1      -9.674  15.350  69.785  1.00  0.00    -0.219 C  
HETATM   24  C   UNL     1     -10.524  16.465  70.414  1.00  0.00     0.244 C  
HETATM   25  C   UNL     1     -10.523  14.574  68.791  1.00  0.00    -0.246 C  
HETATM   26  O   UNL     1     -10.916  17.424  69.432  1.00  0.00    -0.268 OA 
HETATM   27  C   UNL     1     -11.763  15.878  71.094  1.00  0.00    -0.490 C  
HETATM   28  H   UNL     1     -11.441  18.113  69.821  1.00  0.00     0.000 HD 
HETATM   29  C   UNL     1     -12.595  15.004  70.149  1.00  0.00    -0.312 C  
HETATM   30  C   UNL     1     -11.743  14.031  69.361  1.00  0.00    -0.365 C  
HETATM   31  C   UNL     1     -12.045  12.718  69.270  1.00  0.00    -0.224 C  
ENDBRANCH  13  22
TORSDOF 3
ENDMDL
MODEL       99
REMARK 921   NORMALIZED FREE ENERGY PREDICTED BY IDOCK:   -4.35 KCAL/MOL
REMARK 922        TOTAL FREE ENERGY PREDICTED BY IDOCK:   -5.66 KCAL/MOL
REMARK 923 INTER-LIGAND FREE ENERGY PREDICTED BY IDOCK:   -5.85 KCAL/MOL
REMARK 924 INTRA-LIGAND FREE ENERGY PREDICTED BY IDOCK:    0.19 KCAL/MOL
REMARK 927      BINDING AFFINITY PREDICTED BY RF-SCORE:    0.00 PKD
ROOT
HETATM    1  C   UNL     1     -10.104  17.058  68.522  1.00  0.00    -0.303 C  
HETATM    2  C   UNL     1      -8.918  16.110  68.228  1.00  0.00    -0.189 C  
HETATM    3  C   UNL     1      -7.664  17.071  68.016  1.00  0.00    -0.181 C  
HETATM    4  C   UNL     1      -9.182  15.023  67.077  1.00  0.00    -0.246 C  
HETATM    5  C   UNL     1      -7.920  14.180  66.833  1.00  0.00     0.154 C  
HETATM    6  C   UNL     1     -10.291  13.884  67.384  1.00  0.00    -0.252 C  
HETATM    7  C   UNL     1      -8.054  12.933  67.694  1.00  0.00    -0.167 C  
HETATM    8  C   UNL     1     -10.869  13.120  66.147  1.00  0.00    -0.293 C  
HETATM    9  C   UNL     1     -11.862  12.011  66.589  1.00  0.00    -0.239 C  
HETATM   10  C   UNL     1      -9.499  12.864  68.253  1.00  0.00    -0.206 C  
HETATM   11  C   UNL     1      -9.983  11.411  68.240  1.00  0.00    -0.203 C  
HETATM   12  C   UNL     1     -11.508  14.516  68.041  1.00  0.00    -0.345 C  
HETATM   13  C   UNL     1      -9.260  10.349  68.679  1.00  0.00    -0.164 C  
HETATM   14  C   UNL     1     -11.388  11.157  67.762  1.00  0.00    -0.364 C  
ENDROOT
BRANCH   3  15
HETATM   15  C   UNL     1      -7.610  18.103  69.167  1.00  0.00    -0.062 C  
BRANCH  15  16
HETATM   16  C   UNL     1      -7.352  19.581  68.919  1.00  0.00    -0.398 C  
HETATM   17  C   UNL     1      -7.205  19.196  66.351  1.00  0.00    -0.256 C  
HETATM   18  O   UNL     1      -7.484  21.377  67.305  1.00  0.00    -0.760 OA 
HETATM   19  C   UNL     1      -7.842  20.007  67.496  1.00  0.00    -0.301 C  
HETATM   20  C   UNL     1      -9.368  19.920  67.363  1.00  0.00    -0.468 C  
HETATM   21  H   UNL     1      -7.781  21.635  66.441  1.00  0.00     0.000 HD 
ENDBRANCH  15  16
ENDBRANCH   3  15
BRANCH  13  22
HETATM   22  C   UNL     1      -8.161  10.453  69.607  1.00  0.00    -0.116 C  
HETATM   23  C   UNL     1      -6.402   9.531  71.054  1.00  0.00    -0.077 C  
HETATM   24  C   UNL     1      -6.545   8.097  71.591  1.00  0.00    -0.058 C  
HETATM   25  C   UNL     1      -7.109   9.635  69.712  1.00  0.00    -0.084 C  
HETATM   26  O   UNL     1      -7.911   7.788  71.865  1.00  0.00    -0.093 OA 
HETATM   27  C   UNL     1      -5.971   7.089  70.592  1.00  0.00    -0.027 C  
HETATM   28  H   UNL     1      -8.000   6.903  72.197  1.00  0.00     0.000 HD 
HETATM   29  C   UNL     1      -6.587   7.229  69.196  1.00  0.00    -0.041 C  
HETATM   30  C   UNL     1      -6.646   8.669  68.731  1.00  0.00    -0.054 C  
HETATM   31  C   UNL     1      -6.207   9.052  67.512  1.00  0.00    -0.055 C  
ENDBRANCH  13  22
TORSDOF 3
ENDMDL
MODEL      100
REMARK 921   NORMALIZED FREE ENERGY PREDICTED BY IDOCK:   -4.27 KCAL/MOL
REMARK 922        TOTAL FREE ENERGY PREDICTED BY IDOCK:   -5.57 KCAL/MOL
REMARK 923 INTER-LIGAND FREE ENERGY PREDICTED BY IDOCK:   -4.26 KCAL/MOL
REMARK 924 INTRA-LIGAND FREE ENERGY PREDICTED BY IDOCK:   -1.31 KCAL/MOL
REMARK 927      BINDING AFFINITY PREDICTED BY RF-SCORE:    0.00 PKD
ROOT
HETATM    1  C   UNL     1      -6.977  10.898  69.659  1.00  0.00    -0.128 C  
HETATM    2  C   UNL     1      -8.411  10.408  69.349  1.00  0.00    -0.145 C  
HETATM    3  C   UNL     1      -9.194  11.706  68.858  1.00  0.00     0.045 C  
HETATM    4  C   UNL     1      -9.110   9.558  70.518  1.00  0.00    -0.276 C  
HETATM    5  C   UNL     1     -10.545   9.177  70.122  1.00  0.00    -0.258 C  
HETATM    6  C   UNL     1      -8.463   8.114  70.862  1.00  0.00    -0.136 C  
HETATM    7  C   UNL     1     -10.474   7.791  69.499  1.00  0.00    -0.225 C  
HETATM    8  C   UNL     1      -8.832   7.495  72.250  1.00  0.00    -0.161 C  
HETATM    9  C   UNL     1      -8.208   6.084  72.418  1.00  0.00    -0.109 C  
HETATM   10  C   UNL     1      -9.063   7.200  69.753  1.00  0.00    -0.141 C  
HETATM   11  C   UNL     1      -9.183   5.706  70.068  1.00  0.00    -0.172 C  
HETATM   12  C   UNL     1      -6.946   8.223  70.887  1.00  0.00    -0.045 C  
HETATM   13  C   UNL     1      -9.940   4.825  69.366  1.00  0.00    -0.269 C  
HETATM   14  C   UNL     1      -8.349   5.171  71.201  1.00  0.00    -0.121 C  
ENDROOT
BRANCH   3  15
HETATM   15  C   UNL     1      -8.344  12.445  67.797  1.00  0.00    -0.164 C  
BRANCH  15  16
HETATM   16  C   UNL     1      -8.794  12.587  66.352  1.00  0.00    -0.018 C  
HETATM   17  C   UNL     1      -7.533  10.416  65.672  1.00  0.00    -0.149 C  
HETATM   18  O   UNL     1      -9.203  11.418  64.275  1.00  0.00    -0.388 OA 
HETATM   19  C   UNL     1      -8.863  11.193  65.644  1.00  0.00    -0.157 C  
HETATM   20  C   UNL     1      -9.960  10.300  66.238  1.00  0.00    -0.295 C  
HETATM   21  H   UNL     1      -9.245  10.572  63.845  1.00  0.00     0.000 HD 
ENDBRANCH  15  16
ENDBRANCH   3  15
BRANCH  13  22
HETATM   22  C   UNL     1     -10.369   5.038  68.005  1.00  0.00    -0.096 C  
HETATM   23  C   UNL     1      -9.991   5.341  65.596  1.00  0.00     0.031 C  
HETATM   24  C   UNL     1      -8.630   5.862  65.109  1.00  0.00    -0.091 C  
HETATM   25  C   UNL     1      -9.796   4.570  66.892  1.00  0.00    -0.238 C  
HETATM   26  O   UNL     1      -8.087   6.810  66.027  1.00  0.00    -0.107 OA 
HETATM   27  C   UNL     1      -7.649   4.704  64.912  1.00  0.00    -0.077 C  
HETATM   28  H   UNL     1      -7.246   7.133  65.726  1.00  0.00     0.000 HD 
HETATM   29  C   UNL     1      -7.501   3.840  66.169  1.00  0.00    -0.080 C  
HETATM   30  C   UNL     1      -8.836   3.485  66.788  1.00  0.00    -0.142 C  
HETATM   31  C   UNL     1      -9.156   2.220  67.137  1.00  0.00    -0.149 C  
ENDBRANCH  13  22
TORSDOF 3
ENDMDL
MODEL      101
REMARK 921   NORMALIZED FREE ENERGY PREDICTED BY IDOCK:   -4.27 KCAL/MOL
REMARK 922        TOTAL FREE ENERGY PREDICTED BY IDOCK:   -5.56 KCAL/MOL
REMARK 923 INTER-LIGAND FREE ENERGY PREDICTED BY IDOCK:   -5.05 KCAL/MOL
REMARK 924 INTRA-LIGAND FREE ENERGY PREDICTED BY IDOCK:   -0.51 KCAL/MOL
REMARK 927      BINDING AFFINITY PREDICTED BY RF-SCORE:    0.00 PKD
ROOT
HETATM    1  C   UNL     1      -5.914  10.259  71.522  1.00  0.00     0.262 C  
HETATM    2  C   UNL     1      -6.607   9.928  70.179  1.00  0.00    -0.102 C  
HETATM    3  C   UNL     1      -6.684   8.337  70.136  1.00  0.00    -0.036 C  
HETATM    4  C   UNL     1      -5.972  10.643  68.889  1.00  0.00    -0.040 C  
HETATM    5  C   UNL     1      -6.702  10.195  67.613  1.00  0.00    -0.075 C  
HETATM    6  C   UNL     1      -6.106  12.254  68.804  1.00  0.00    -0.068 C  
HETATM    7  C   UNL     1      -7.786  11.229  67.344  1.00  0.00    -0.128 C  
HETATM    8  C   UNL     1      -5.132  12.985  67.822  1.00  0.00    -0.094 C  
HETATM    9  C   UNL     1      -5.418  14.510  67.783  1.00  0.00    -0.026 C  
HETATM   10  C   UNL     1      -7.558  12.447  68.275  1.00  0.00    -0.131 C  
HETATM   11  C   UNL     1      -7.856  13.740  67.510  1.00  0.00    -0.189 C  
HETATM   12  C   UNL     1      -5.805  12.868  70.162  1.00  0.00    -0.155 C  
HETATM   13  C   UNL     1      -8.949  13.944  66.731  1.00  0.00    -0.206 C  
HETATM   14  C   UNL     1      -6.895  14.884  67.688  1.00  0.00    -0.204 C  
ENDROOT
BRANCH   3  15
HETATM   15  C   UNL     1      -7.238   7.815  71.484  1.00  0.00    -0.064 C  
BRANCH  15  16
HETATM   16  C   UNL     1      -8.714   7.894  71.838  1.00  0.00    -0.168 C  
HETATM   17  C   UNL     1      -9.189   5.617  70.673  1.00  0.00    -0.176 C  
HETATM   18  O   UNL     1     -10.743   6.627  72.193  1.00  0.00    -0.210 OA 
HETATM   19  C   UNL     1      -9.344   6.467  71.949  1.00  0.00    -0.152 C  
HETATM   20  C   UNL     1      -8.772   5.676  73.133  1.00  0.00    -0.120 C  
HETATM   21  H   UNL     1     -11.126   5.761  72.260  1.00  0.00     0.000 HD 
ENDBRANCH  15  16
ENDBRANCH   3  15
BRANCH  13  22
HETATM   22  C   UNL     1     -10.176  13.195  66.854  1.00  0.00    -0.245 C  
HETATM   23  C   UNL     1     -12.265  12.228  65.993  1.00  0.00    -0.050 C  
HETATM   24  C   UNL     1     -12.923  12.847  64.750  1.00  0.00    -0.145 C  
HETATM   25  C   UNL     1     -10.761  12.439  65.919  1.00  0.00    -0.299 C  
HETATM   26  O   UNL     1     -12.747  14.263  64.729  1.00  0.00    -0.646 OA 
HETATM   27  C   UNL     1     -12.347  12.230  63.473  1.00  0.00    -0.670 C  
HETATM   28  H   UNL     1     -13.153  14.646  63.961  1.00  0.00     0.000 HD 
HETATM   29  C   UNL     1     -10.820  12.332  63.407  1.00  0.00    -0.457 C  
HETATM   30  C   UNL     1     -10.157  11.920  64.704  1.00  0.00    -0.301 C  
HETATM   31  C   UNL     1      -9.125  11.049  64.742  1.00  0.00    -0.154 C  
ENDBRANCH  13  22
TORSDOF 3
ENDMDL
MODEL      102
REMARK 921   NORMALIZED FREE ENERGY PREDICTED BY IDOCK:   -4.21 KCAL/MOL
REMARK 922        TOTAL FREE ENERGY PREDICTED BY IDOCK:   -5.49 KCAL/MOL
REMARK 923 INTER-LIGAND FREE ENERGY PREDICTED BY IDOCK:   -4.00 KCAL/MOL
REMARK 924 INTRA-LIGAND FREE ENERGY PREDICTED BY IDOCK:   -1.49 KCAL/MOL
REMARK 927      BINDING AFFINITY PREDICTED BY RF-SCORE:    0.00 PKD
ROOT
HETATM    1  C   UNL     1      -9.217   9.688  68.825  1.00  0.00    -0.141 C  
HETATM    2  C   UNL     1      -9.705   8.307  68.326  1.00  0.00    -0.173 C  
HETATM    3  C   UNL     1      -9.989   8.507  66.771  1.00  0.00    -0.351 C  
HETATM    4  C   UNL     1     -10.890   7.650  69.186  1.00  0.00    -0.082 C  
HETATM    5  C   UNL     1     -11.329   6.315  68.564  1.00  0.00    -0.149 C  
HETATM    6  C   UNL     1     -10.539   7.215  70.705  1.00  0.00    -0.240 C  
HETATM    7  C   UNL     1     -10.544   5.223  69.277  1.00  0.00    -0.188 C  
HETATM    8  C   UNL     1     -11.753   7.003  71.669  1.00  0.00    -0.332 C  
HETATM    9  C   UNL     1     -11.280   6.517  73.065  1.00  0.00    -0.176 C  
HETATM   10  C   UNL     1      -9.835   5.840  70.509  1.00  0.00    -0.240 C  
HETATM   11  C   UNL     1      -9.891   4.853  71.680  1.00  0.00    -0.245 C  
HETATM   12  C   UNL     1      -9.710   8.300  71.373  1.00  0.00    -0.237 C  
HETATM   13  C   UNL     1      -9.608   3.528  71.591  1.00  0.00    -0.228 C  
HETATM   14  C   UNL     1     -10.226   5.411  73.037  1.00  0.00    -0.212 C  
ENDROOT
BRANCH   3  15
HETATM   15  C   UNL     1      -8.784   9.225  66.118  1.00  0.00    -0.169 C  
BRANCH  15  16
HETATM   16  C   UNL     1      -7.527   8.480  65.698  1.00  0.00    -0.085 C  
HETATM   17  C   UNL     1      -7.461   9.733  63.419  1.00  0.00    -0.124 C  
HETATM   18  O   UNL     1      -5.575   8.522  64.271  1.00  0.00    -0.061 OA 
HETATM   19  C   UNL     1      -6.684   9.323  64.685  1.00  0.00    -0.081 C  
HETATM   20  C   UNL     1      -6.105  10.588  65.332  1.00  0.00    -0.122 C  
HETATM   21  H   UNL     1      -5.063   9.034  63.656  1.00  0.00     0.000 HD 
ENDBRANCH  15  16
ENDBRANCH   3  15
BRANCH  13  22
HETATM   22  C   UNL     1      -8.803   2.947  70.544  1.00  0.00    -0.145 C  
HETATM   23  C   UNL     1      -6.910   2.918  68.978  1.00  0.00    -0.037 C  
HETATM   24  C   UNL     1      -6.264   4.247  68.554  1.00  0.00    -0.032 C  
HETATM   25  C   UNL     1      -7.481   3.064  70.379  1.00  0.00    -0.040 C  
HETATM   26  O   UNL     1      -7.243   5.280  68.450  1.00  0.00    -0.064 OA 
HETATM   27  C   UNL     1      -5.175   4.657  69.548  1.00  0.00     0.000 C  
HETATM   28  H   UNL     1      -6.844   6.101  68.188  1.00  0.00     0.000 HD 
HETATM   29  C   UNL     1      -5.688   4.718  70.991  1.00  0.00    -0.016 C  
HETATM   30  C   UNL     1      -6.508   3.502  71.365  1.00  0.00    -0.019 C  
HETATM   31  C   UNL     1      -6.289   2.806  72.502  1.00  0.00    -0.014 C  
ENDBRANCH  13  22
TORSDOF 3
ENDMDL
MODEL      103
REMARK 921   NORMALIZED FREE ENERGY PREDICTED BY IDOCK:   -4.12 KCAL/MOL
REMARK 922        TOTAL FREE ENERGY PREDICTED BY IDOCK:   -5.38 KCAL/MOL
REMARK 923 INTER-LIGAND FREE ENERGY PREDICTED BY IDOCK:   -5.63 KCAL/MOL
REMARK 924 INTRA-LIGAND FREE ENERGY PREDICTED BY IDOCK:    0.25 KCAL/MOL
REMARK 927      BINDING AFFINITY PREDICTED BY RF-SCORE:    0.00 PKD
ROOT
HETATM    1  C   UNL     1     -10.800  17.628  65.275  1.00  0.00     0.193 C  
HETATM    2  C   UNL     1     -10.051  16.649  66.210  1.00  0.00    -0.342 C  
HETATM    3  C   UNL     1      -8.917  17.527  66.903  1.00  0.00    -0.264 C  
HETATM    4  C   UNL     1      -9.569  15.281  65.522  1.00  0.00    -0.243 C  
HETATM    5  C   UNL     1      -8.790  14.419  66.527  1.00  0.00    -0.122 C  
HETATM    6  C   UNL     1     -10.726  14.261  65.030  1.00  0.00    -0.435 C  
HETATM    7  C   UNL     1      -9.794  13.460  67.150  1.00  0.00    -0.237 C  
HETATM    8  C   UNL     1     -10.302  13.176  63.986  1.00  0.00    -0.173 C  
HETATM    9  C   UNL     1     -11.483  12.222  63.659  1.00  0.00    -0.572 C  
HETATM   10  C   UNL     1     -11.119  13.532  66.349  1.00  0.00    -0.311 C  
HETATM   11  C   UNL     1     -11.716  12.128  66.219  1.00  0.00    -0.389 C  
HETATM   12  C   UNL     1     -11.837  15.036  64.340  1.00  0.00    -0.349 C  
HETATM   13  C   UNL     1     -11.833  11.239  67.239  1.00  0.00     0.146 C  
HETATM   14  C   UNL     1     -12.268  11.734  64.875  1.00  0.00     0.121 C  
ENDROOT
BRANCH   3  15
HETATM   15  C   UNL     1      -9.539  18.840  67.436  1.00  0.00    -0.337 C  
BRANCH  15  16
HETATM   16  C   UNL     1     -10.012  18.988  68.873  1.00  0.00    -0.460 C  
HETATM   17  C   UNL     1     -11.356  16.766  68.733  1.00  0.00    -0.038 C  
HETATM   18  O   UNL     1     -10.839  17.820  70.823  1.00  0.00     0.501 OA 
HETATM   19  C   UNL     1     -10.316  17.593  69.512  1.00  0.00     0.123 C  
HETATM   20  C   UNL     1      -9.047  16.747  69.677  1.00  0.00     0.530 C  
HETATM   21  H   UNL     1     -11.023  16.974  71.211  1.00  0.00     0.000 HD 
ENDBRANCH  15  16
ENDBRANCH   3  15
BRANCH  13  22
HETATM   22  C   UNL     1     -11.843  11.610  68.632  1.00  0.00    -0.370 C  
HETATM   23  C   UNL     1     -12.000  11.138  71.039  1.00  0.00    -0.268 C  
HETATM   24  C   UNL     1     -12.723   9.866  71.510  1.00  0.00    -0.415 C  
HETATM   25  C   UNL     1     -11.395  10.890  69.666  1.00  0.00    -0.362 C  
HETATM   26  O   UNL     1     -13.833   9.566  70.664  1.00  0.00    -0.554 OA 
HETATM   27  C   UNL     1     -11.757   8.680  71.545  1.00  0.00    -0.369 C  
HETATM   28  H   UNL     1     -14.280   8.781  70.955  1.00  0.00     0.000 HD 
HETATM   29  C   UNL     1     -11.049   8.458  70.205  1.00  0.00    -0.183 C  
HETATM   30  C   UNL     1     -10.505   9.743  69.618  1.00  0.00    -0.263 C  
HETATM   31  C   UNL     1      -9.238   9.849  69.162  1.00  0.00    -0.184 C  
ENDBRANCH  13  22
TORSDOF 3
ENDMDL
MODEL      104
REMARK 921   NORMALIZED FREE ENERGY PREDICTED BY IDOCK:   -4.09 KCAL/MOL
REMARK 922        TOTAL FREE ENERGY PREDICTED BY IDOCK:   -5.35 KCAL/MOL
REMARK 923 INTER-LIGAND FREE ENERGY PREDICTED BY IDOCK:   -3.61 KCAL/MOL
REMARK 924 INTRA-LIGAND FREE ENERGY PREDICTED BY IDOCK:   -1.74 KCAL/MOL
REMARK 927      BINDING AFFINITY PREDICTED BY RF-SCORE:    0.00 PKD
ROOT
HETATM    1  C   UNL     1      -9.649   7.420  72.486  1.00  0.00    -0.199 C  
HETATM    2  C   UNL     1      -8.385   7.628  71.618  1.00  0.00    -0.118 C  
HETATM    3  C   UNL     1      -7.168   7.594  72.646  1.00  0.00    -0.088 C  
HETATM    4  C   UNL     1      -8.440   8.887  70.623  1.00  0.00    -0.211 C  
HETATM    5  C   UNL     1      -7.113   9.027  69.859  1.00  0.00    -0.053 C  
HETATM    6  C   UNL     1      -9.517   8.822  69.416  1.00  0.00    -0.161 C  
HETATM    7  C   UNL     1      -7.291   8.293  68.538  1.00  0.00    -0.093 C  
HETATM    8  C   UNL     1      -9.889  10.181  68.737  1.00  0.00    -0.180 C  
HETATM    9  C   UNL     1     -10.869   9.965  67.553  1.00  0.00    -0.307 C  
HETATM   10  C   UNL     1      -8.789   7.939  68.360  1.00  0.00    -0.130 C  
HETATM   11  C   UNL     1      -9.190   8.132  66.894  1.00  0.00    -0.198 C  
HETATM   12  C   UNL     1     -10.841   8.284  69.936  1.00  0.00    -0.213 C  
HETATM   13  C   UNL     1      -8.473   7.686  65.830  1.00  0.00    -0.153 C  
HETATM   14  C   UNL     1     -10.505   8.811  66.622  1.00  0.00    -0.240 C  
ENDROOT
BRANCH   3  15
HETATM   15  C   UNL     1      -7.318   6.367  73.577  1.00  0.00    -0.086 C  
BRANCH  15  16
HETATM   16  C   UNL     1      -6.410   5.153  73.470  1.00  0.00    -0.057 C  
HETATM   17  C   UNL     1      -8.245   3.603  74.467  1.00  0.00    -0.085 C  
HETATM   18  O   UNL     1      -6.326   2.741  73.318  1.00  0.00    -0.012 OA 
HETATM   19  C   UNL     1      -7.243   3.837  73.321  1.00  0.00    -0.059 C  
HETATM   20  C   UNL     1      -8.005   3.786  71.990  1.00  0.00    -0.071 C  
HETATM   21  H   UNL     1      -6.832   1.942  73.228  1.00  0.00     0.000 HD 
ENDBRANCH  15  16
ENDBRANCH   3  15
BRANCH  13  22
HETATM   22  C   UNL     1      -7.510   6.615  65.901  1.00  0.00    -0.081 C  
HETATM   23  C   UNL     1      -6.614   4.513  66.804  1.00  0.00    -0.050 C  
HETATM   24  C   UNL     1      -7.004   4.078  68.226  1.00  0.00    -0.048 C  
HETATM   25  C   UNL     1      -7.744   5.334  66.205  1.00  0.00    -0.088 C  
HETATM   26  O   UNL     1      -7.139   5.208  69.087  1.00  0.00    -0.054 OA 
HETATM   27  C   UNL     1      -8.309   3.278  68.205  1.00  0.00    -0.094 C  
HETATM   28  H   UNL     1      -7.380   4.940  69.965  1.00  0.00     0.000 HD 
HETATM   29  C   UNL     1      -9.450   4.033  67.516  1.00  0.00    -0.231 C  
HETATM   30  C   UNL     1      -9.026   4.650  66.201  1.00  0.00    -0.121 C  
HETATM   31  C   UNL     1      -9.743   4.497  65.067  1.00  0.00    -0.135 C  
ENDBRANCH  13  22
TORSDOF 3
ENDMDL
MODEL      105
REMARK 921   NORMALIZED FREE ENERGY PREDICTED BY IDOCK:   -4.03 KCAL/MOL
REMARK 922        TOTAL FREE ENERGY PREDICTED BY IDOCK:   -5.28 KCAL/MOL
REMARK 923 INTER-LIGAND FREE ENERGY PREDICTED BY IDOCK:   -5.07 KCAL/MOL
REMARK 924 INTRA-LIGAND FREE ENERGY PREDICTED BY IDOCK:   -0.21 KCAL/MOL
REMARK 927      BINDING AFFINITY PREDICTED BY RF-SCORE:    0.00 PKD
ROOT
HETATM    1  C   UNL     1      -5.159  13.501  67.658  1.00  0.00     0.033 C  
HETATM    2  C   UNL     1      -6.572  13.037  68.084  1.00  0.00    -0.103 C  
HETATM    3  C   UNL     1      -6.499  11.445  68.091  1.00  0.00    -0.056 C  
HETATM    4  C   UNL     1      -7.783  13.689  67.256  1.00  0.00    -0.091 C  
HETATM    5  C   UNL     1      -9.128  13.112  67.727  1.00  0.00    -0.200 C  
HETATM    6  C   UNL     1      -8.020  15.281  67.434  1.00  0.00    -0.211 C  
HETATM    7  C   UNL     1      -9.666  14.066  68.783  1.00  0.00    -0.123 C  
HETATM    8  C   UNL     1      -8.870  15.989  66.329  1.00  0.00    -0.379 C  
HETATM    9  C   UNL     1      -9.082  17.490  66.661  1.00  0.00    -0.287 C  
HETATM   10  C   UNL     1      -8.811  15.359  68.774  1.00  0.00    -0.196 C  
HETATM   11  C   UNL     1      -9.718  16.575  68.979  1.00  0.00    -0.258 C  
HETATM   12  C   UNL     1      -6.684  16.006  67.406  1.00  0.00    -0.224 C  
HETATM   13  C   UNL     1     -10.692  16.665  69.921  1.00  0.00    -0.204 C  
HETATM   14  C   UNL     1      -9.466  17.778  68.111  1.00  0.00    -0.282 C  
ENDROOT
BRANCH   3  15
HETATM   15  C   UNL     1      -5.233  10.994  68.858  1.00  0.00    -0.040 C  
BRANCH  15  16
HETATM   16  C   UNL     1      -5.241  10.741  70.357  1.00  0.00    -0.066 C  
HETATM   17  C   UNL     1      -7.641   9.745  70.248  1.00  0.00    -0.184 C  
HETATM   18  O   UNL     1      -6.211   9.436  72.147  1.00  0.00    -0.281 OA 
HETATM   19  C   UNL     1      -6.188   9.551  70.723  1.00  0.00    -0.078 C  
HETATM   20  C   UNL     1      -5.672   8.215  70.174  1.00  0.00    -0.022 C  
HETATM   21  H   UNL     1      -6.786   8.714  72.369  1.00  0.00     0.000 HD 
ENDBRANCH  15  16
ENDBRANCH   3  15
BRANCH  13  22
HETATM   22  C   UNL     1     -10.727  15.864  71.120  1.00  0.00     0.238 C  
HETATM   23  C   UNL     1     -11.860  14.744  72.991  1.00  0.00    -0.167 C  
HETATM   24  C   UNL     1     -13.235  15.255  73.451  1.00  0.00    -0.408 C  
HETATM   25  C   UNL     1     -11.694  15.025  71.506  1.00  0.00    -0.426 C  
HETATM   26  O   UNL     1     -13.320  16.675  73.330  1.00  0.00    -0.218 OA 
HETATM   27  C   UNL     1     -14.353  14.594  72.642  1.00  0.00     0.027 C  
HETATM   28  H   UNL     1     -14.169  16.990  73.614  1.00  0.00     0.000 HD 
HETATM   29  C   UNL     1     -14.168  14.768  71.131  1.00  0.00    -0.298 C  
HETATM   30  C   UNL     1     -12.753  14.467  70.683  1.00  0.00    -0.421 C  
HETATM   31  C   UNL     1     -12.484  13.653  69.640  1.00  0.00    -0.145 C  
ENDBRANCH  13  22
TORSDOF 3
ENDMDL
MODEL      106
REMARK 921   NORMALIZED FREE ENERGY PREDICTED BY IDOCK:   -3.97 KCAL/MOL
REMARK 922        TOTAL FREE ENERGY PREDICTED BY IDOCK:   -5.21 KCAL/MOL
REMARK 923 INTER-LIGAND FREE ENERGY PREDICTED BY IDOCK:   -4.95 KCAL/MOL
REMARK 924 INTRA-LIGAND FREE ENERGY PREDICTED BY IDOCK:   -0.27 KCAL/MOL
REMARK 927      BINDING AFFINITY PREDICTED BY RF-SCORE:    0.00 PKD
ROOT
HETATM    1  C   UNL     1      -9.751   5.319  66.481  1.00  0.00    -0.180 C  
HETATM    2  C   UNL     1      -9.021   6.684  66.483  1.00  0.00    -0.155 C  
HETATM    3  C   UNL     1      -7.760   6.478  65.530  1.00  0.00    -0.097 C  
HETATM    4  C   UNL     1      -8.722   7.296  67.936  1.00  0.00    -0.123 C  
HETATM    5  C   UNL     1      -7.946   8.618  67.813  1.00  0.00    -0.107 C  
HETATM    6  C   UNL     1     -10.002   7.740  68.823  1.00  0.00    -0.181 C  
HETATM    7  C   UNL     1      -8.980   9.734  67.831  1.00  0.00    -0.119 C  
HETATM    8  C   UNL     1      -9.763   7.906  70.360  1.00  0.00    -0.179 C  
HETATM    9  C   UNL     1     -11.048   8.404  71.075  1.00  0.00    -0.298 C  
HETATM   10  C   UNL     1     -10.353   9.139  68.236  1.00  0.00    -0.256 C  
HETATM   11  C   UNL     1     -11.083  10.119  69.158  1.00  0.00    -0.257 C  
HETATM   12  C   UNL     1     -11.090   6.683  68.721  1.00  0.00    -0.297 C  
HETATM   13  C   UNL     1     -11.199  11.454  68.935  1.00  0.00    -0.310 C  
HETATM   14  C   UNL     1     -11.774   9.546  70.366  1.00  0.00    -0.227 C  
ENDROOT
BRANCH   3  15
HETATM   15  C   UNL     1      -8.216   5.805  64.214  1.00  0.00    -0.106 C  
BRANCH  15  16
HETATM   16  C   UNL     1      -8.428   4.304  64.103  1.00  0.00    -0.111 C  
HETATM   17  C   UNL     1      -6.470   4.082  62.405  1.00  0.00    -0.022 C  
HETATM   18  O   UNL     1      -7.399   2.188  63.543  1.00  0.00    -0.050 OA 
HETATM   19  C   UNL     1      -7.099   3.575  63.717  1.00  0.00    -0.050 C  
HETATM   20  C   UNL     1      -6.046   3.669  64.829  1.00  0.00    -0.023 C  
HETATM   21  H   UNL     1      -6.592   1.745  63.309  1.00  0.00     0.000 HD 
ENDBRANCH  15  16
ENDBRANCH   3  15
BRANCH  13  22
HETATM   22  C   UNL     1     -11.064  12.066  67.636  1.00  0.00    -0.319 C  
HETATM   23  C   UNL     1     -10.820  13.982  66.116  1.00  0.00    -0.291 C  
HETATM   24  C   UNL     1     -11.296  15.370  66.574  1.00  0.00    -0.098 C  
HETATM   25  C   UNL     1     -10.385  13.177  67.330  1.00  0.00    -0.239 C  
HETATM   26  O   UNL     1     -12.463  15.267  67.389  1.00  0.00    -0.027 OA 
HETATM   27  C   UNL     1     -10.185  16.093  67.339  1.00  0.00    -0.272 C  
HETATM   28  H   UNL     1     -12.756  16.125  67.672  1.00  0.00     0.000 HD 
HETATM   29  C   UNL     1      -9.648  15.269  68.514  1.00  0.00    -0.211 C  
HETATM   30  C   UNL     1      -9.366  13.832  68.132  1.00  0.00    -0.211 C  
HETATM   31  C   UNL     1      -8.200  13.220  68.433  1.00  0.00    -0.134 C  
ENDBRANCH  13  22
TORSDOF 3
ENDMDL
MODEL      107
REMARK 921   NORMALIZED FREE ENERGY PREDICTED BY IDOCK:   -3.96 KCAL/MOL
REMARK 922        TOTAL FREE ENERGY PREDICTED BY IDOCK:   -5.20 KCAL/MOL
REMARK 923 INTER-LIGAND FREE ENERGY PREDICTED BY IDOCK:   -5.37 KCAL/MOL
REMARK 924 INTRA-LIGAND FREE ENERGY PREDICTED BY IDOCK:    0.18 KCAL/MOL
REMARK 927      BINDING AFFINITY PREDICTED BY RF-SCORE:    0.00 PKD
ROOT
HETATM    1  C   UNL     1     -10.112  17.477  68.086  1.00  0.00    -0.341 C  
HETATM    2  C   UNL     1      -9.010  16.398  67.961  1.00  0.00    -0.185 C  
HETATM    3  C   UNL     1      -7.637  17.188  68.140  1.00  0.00    -0.208 C  
HETATM    4  C   UNL     1      -9.123  15.454  66.667  1.00  0.00    -0.310 C  
HETATM    5  C   UNL     1      -7.947  14.465  66.620  1.00  0.00     0.487 C  
HETATM    6  C   UNL     1     -10.400  14.462  66.593  1.00  0.00    -0.275 C  
HETATM    7  C   UNL     1      -8.427  13.185  67.287  1.00  0.00    -0.199 C  
HETATM    8  C   UNL     1     -10.757  13.888  65.183  1.00  0.00    -0.371 C  
HETATM    9  C   UNL     1     -11.949  12.897  65.267  1.00  0.00    -0.459 C  
HETATM   10  C   UNL     1      -9.960  13.275  67.499  1.00  0.00    -0.223 C  
HETATM   11  C   UNL     1     -10.596  11.910  67.219  1.00  0.00    -0.261 C  
HETATM   12  C   UNL     1     -11.654  15.204  67.028  1.00  0.00    -0.179 C  
HETATM   13  C   UNL     1     -10.127  10.725  67.689  1.00  0.00    -0.205 C  
HETATM   14  C   UNL     1     -11.869  11.894  66.416  1.00  0.00    -0.115 C  
ENDROOT
BRANCH   3  15
HETATM   15  C   UNL     1      -7.734  18.107  69.381  1.00  0.00     0.239 C  
BRANCH  15  16
HETATM   16  C   UNL     1      -7.471  19.602  69.304  1.00  0.00    -0.250 C  
HETATM   17  C   UNL     1      -5.321  19.223  67.889  1.00  0.00    -0.174 C  
HETATM   18  O   UNL     1      -6.381  21.367  68.060  1.00  0.00    -0.318 OA 
HETATM   19  C   UNL     1      -6.665  19.967  68.013  1.00  0.00    -0.273 C  
HETATM   20  C   UNL     1      -7.479  19.717  66.737  1.00  0.00    -0.272 C  
HETATM   21  H   UNL     1      -5.892  21.588  67.276  1.00  0.00     0.000 HD 
ENDBRANCH  15  16
ENDBRANCH   3  15
BRANCH  13  22
HETATM   22  C   UNL     1      -9.273  10.600  68.844  1.00  0.00    -0.189 C  
HETATM   23  C   UNL     1      -8.482   9.496  70.892  1.00  0.00     0.017 C  
HETATM   24  C   UNL     1      -9.435   8.568  71.662  1.00  0.00    -0.246 C  
HETATM   25  C   UNL     1      -8.843   9.470  69.415  1.00  0.00    -0.172 C  
HETATM   26  O   UNL     1     -10.777   9.048  71.599  1.00  0.00    -0.321 OA 
HETATM   27  C   UNL     1      -9.363   7.143  71.107  1.00  0.00    -0.157 C  
HETATM   28  H   UNL     1     -11.366   8.475  72.075  1.00  0.00     0.000 HD 
HETATM   29  C   UNL     1      -9.623   7.086  69.598  1.00  0.00    -0.150 C  
HETATM   30  C   UNL     1      -8.844   8.138  68.837  1.00  0.00    -0.141 C  
HETATM   31  C   UNL     1      -8.115   7.842  67.739  1.00  0.00    -0.125 C  
ENDBRANCH  13  22
TORSDOF 3
ENDMDL
MODEL      108
REMARK 921   NORMALIZED FREE ENERGY PREDICTED BY IDOCK:   -3.85 KCAL/MOL
REMARK 922        TOTAL FREE ENERGY PREDICTED BY IDOCK:   -5.06 KCAL/MOL
REMARK 923 INTER-LIGAND FREE ENERGY PREDICTED BY IDOCK:   -3.51 KCAL/MOL
REMARK 924 INTRA-LIGAND FREE ENERGY PREDICTED BY IDOCK:   -1.55 KCAL/MOL
REMARK 927      BINDING AFFINITY PREDICTED BY RF-SCORE:    0.00 PKD
ROOT
HETATM    1  C   UNL     1      -7.506  14.139  67.157  1.00  0.00     0.080 C  
HETATM    2  C   UNL     1      -7.503  13.412  68.522  1.00  0.00    -0.118 C  
HETATM    3  C   UNL     1      -7.541  14.577  69.609  1.00  0.00     0.088 C  
HETATM    4  C   UNL     1      -6.353  12.307  68.705  1.00  0.00    -0.077 C  
HETATM    5  C   UNL     1      -6.413  11.697  70.115  1.00  0.00     0.029 C  
HETATM    6  C   UNL     1      -6.444  10.992  67.766  1.00  0.00    -0.063 C  
HETATM    7  C   UNL     1      -7.259  10.437  70.010  1.00  0.00    -0.143 C  
HETATM    8  C   UNL     1      -5.134  10.152  67.611  1.00  0.00    -0.034 C  
HETATM    9  C   UNL     1      -5.381   8.884  66.750  1.00  0.00    -0.039 C  
HETATM   10  C   UNL     1      -7.493  10.114  68.512  1.00  0.00    -0.086 C  
HETATM   11  C   UNL     1      -7.416   8.600  68.296  1.00  0.00    -0.095 C  
HETATM   12  C   UNL     1      -6.804  11.397  66.346  1.00  0.00    -0.003 C  
HETATM   13  C   UNL     1      -8.032   7.674  69.076  1.00  0.00    -0.121 C  
HETATM   14  C   UNL     1      -6.653   8.112  67.094  1.00  0.00    -0.058 C  
ENDROOT
BRANCH   3  15
HETATM   15  C   UNL     1      -8.647  15.592  69.234  1.00  0.00    -0.263 C  
BRANCH  15  16
HETATM   16  C   UNL     1      -9.966  15.667  69.987  1.00  0.00    -0.165 C  
HETATM   17  C   UNL     1     -11.199  16.560  67.878  1.00  0.00    -0.155 C  
HETATM   18  O   UNL     1     -12.375  15.690  69.777  1.00  0.00    -0.487 OA 
HETATM   19  C   UNL     1     -11.180  15.518  69.012  1.00  0.00    -0.303 C  
HETATM   20  C   UNL     1     -11.247  14.118  68.387  1.00  0.00    -0.289 C  
HETATM   21  H   UNL     1     -13.112  15.599  69.185  1.00  0.00     0.000 HD 
ENDBRANCH  15  16
ENDBRANCH   3  15
BRANCH  13  22
HETATM   22  C   UNL     1      -9.172   7.957  69.912  1.00  0.00    -0.153 C  
HETATM   23  C   UNL     1     -11.179   9.226  70.548  1.00  0.00    -0.315 C  
HETATM   24  C   UNL     1     -11.327  10.682  70.079  1.00  0.00    -0.324 C  
HETATM   25  C   UNL     1     -10.353   8.455  69.530  1.00  0.00    -0.219 C  
HETATM   26  O   UNL     1     -10.062  11.342  70.052  1.00  0.00    -0.019 OA 
HETATM   27  C   UNL     1     -11.977  10.738  68.694  1.00  0.00    -0.103 C  
HETATM   28  H   UNL     1     -10.154  12.242  69.762  1.00  0.00     0.000 HD 
HETATM   29  C   UNL     1     -11.229   9.890  67.660  1.00  0.00    -0.032 C  
HETATM   30  C   UNL     1     -10.888   8.510  68.180  1.00  0.00     0.004 C  
HETATM   31  C   UNL     1     -11.150   7.388  67.476  1.00  0.00    -0.045 C  
ENDBRANCH  13  22
TORSDOF 3
ENDMDL
MODEL      109
REMARK 921   NORMALIZED FREE ENERGY PREDICTED BY IDOCK:   -3.82 KCAL/MOL
REMARK 922        TOTAL FREE ENERGY PREDICTED BY IDOCK:   -5.03 KCAL/MOL
REMARK 923 INTER-LIGAND FREE ENERGY PREDICTED BY IDOCK:   -3.92 KCAL/MOL
REMARK 924 INTRA-LIGAND FREE ENERGY PREDICTED BY IDOCK:   -1.11 KCAL/MOL
REMARK 927      BINDING AFFINITY PREDICTED BY RF-SCORE:    0.00 PKD
ROOT
HETATM    1  C   UNL     1      -6.647   5.003  72.114  1.00  0.00    -0.044 C  
HETATM    2  C   UNL     1      -7.535   5.198  70.862  1.00  0.00    -0.078 C  
HETATM    3  C   UNL     1      -7.983   3.727  70.442  1.00  0.00    -0.052 C  
HETATM    4  C   UNL     1      -6.893   6.103  69.703  1.00  0.00    -0.065 C  
HETATM    5  C   UNL     1      -7.837   6.176  68.492  1.00  0.00    -0.104 C  
HETATM    6  C   UNL     1      -6.658   7.669  70.041  1.00  0.00    -0.038 C  
HETATM    7  C   UNL     1      -8.674   7.435  68.667  1.00  0.00    -0.128 C  
HETATM    8  C   UNL     1      -5.651   8.438  69.124  1.00  0.00    -0.035 C  
HETATM    9  C   UNL     1      -5.578   9.940  69.510  1.00  0.00    -0.037 C  
HETATM   10  C   UNL     1      -8.073   8.280  69.820  1.00  0.00    -0.118 C  
HETATM   11  C   UNL     1      -8.143   9.766  69.457  1.00  0.00    -0.141 C  
HETATM   12  C   UNL     1      -6.081   7.812  71.440  1.00  0.00    -0.035 C  
HETATM   13  C   UNL     1      -9.235  10.387  68.941  1.00  0.00    -0.179 C  
HETATM   14  C   UNL     1      -6.930  10.606  69.753  1.00  0.00    -0.145 C  
ENDROOT
BRANCH   3  15
HETATM   15  C   UNL     1      -8.497   2.972  71.690  1.00  0.00    -0.087 C  
BRANCH  15  16
HETATM   16  C   UNL     1      -9.956   2.575  71.854  1.00  0.00    -0.218 C  
HETATM   17  C   UNL     1      -9.710   2.471  74.441  1.00  0.00    -0.129 C  
HETATM   18  O   UNL     1     -11.848   2.540  73.359  1.00  0.00    -0.115 OA 
HETATM   19  C   UNL     1     -10.509   3.026  73.246  1.00  0.00    -0.161 C  
HETATM   20  C   UNL     1     -10.575   4.553  73.372  1.00  0.00    -0.293 C  
HETATM   21  H   UNL     1     -12.184   2.813  74.204  1.00  0.00     0.000 HD 
ENDBRANCH  15  16
ENDBRANCH   3  15
BRANCH  13  22
HETATM   22  C   UNL     1     -10.582   9.887  69.074  1.00  0.00    -0.240 C  
HETATM   23  C   UNL     1     -12.823   9.831  70.081  1.00  0.00     0.361 C  
HETATM   24  C   UNL     1     -13.018  10.356  71.512  1.00  0.00    -0.458 C  
HETATM   25  C   UNL     1     -11.671  10.578  69.427  1.00  0.00    -0.295 C  
HETATM   26  O   UNL     1     -11.880  10.066  72.322  1.00  0.00     0.297 OA 
HETATM   27  C   UNL     1     -13.281  11.864  71.501  1.00  0.00    -0.283 C  
HETATM   28  H   UNL     1     -12.000  10.390  73.207  1.00  0.00     0.000 HD 
HETATM   29  C   UNL     1     -12.190  12.645  70.761  1.00  0.00    -0.331 C  
HETATM   30  C   UNL     1     -11.834  12.021  69.429  1.00  0.00    -0.384 C  
HETATM   31  C   UNL     1     -11.763  12.743  68.289  1.00  0.00    -0.388 C  
ENDBRANCH  13  22
TORSDOF 3
ENDMDL
MODEL      110
REMARK 921   NORMALIZED FREE ENERGY PREDICTED BY IDOCK:   -3.79 KCAL/MOL
REMARK 922        TOTAL FREE ENERGY PREDICTED BY IDOCK:   -5.00 KCAL/MOL
REMARK 923 INTER-LIGAND FREE ENERGY PREDICTED BY IDOCK:   -4.83 KCAL/MOL
REMARK 924 INTRA-LIGAND FREE ENERGY PREDICTED BY IDOCK:   -0.17 KCAL/MOL
REMARK 927      BINDING AFFINITY PREDICTED BY RF-SCORE:    0.00 PKD
ROOT
HETATM    1  C   UNL     1     -11.604  11.978  70.578  1.00  0.00     0.142 C  
HETATM    2  C   UNL     1     -11.217  11.358  69.214  1.00  0.00    -0.342 C  
HETATM    3  C   UNL     1     -11.900  12.299  68.125  1.00  0.00    -0.372 C  
HETATM    4  C   UNL     1     -11.504   9.785  69.074  1.00  0.00     0.079 C  
HETATM    5  C   UNL     1     -11.136   9.295  67.664  1.00  0.00     0.110 C  
HETATM    6  C   UNL     1     -10.632   8.794  70.011  1.00  0.00    -0.232 C  
HETATM    7  C   UNL     1      -9.709   8.774  67.741  1.00  0.00    -0.194 C  
HETATM    8  C   UNL     1     -11.194   7.348  70.213  1.00  0.00    -0.268 C  
HETATM    9  C   UNL     1     -10.226   6.486  71.067  1.00  0.00    -0.218 C  
HETATM   10  C   UNL     1      -9.289   8.683  69.230  1.00  0.00    -0.153 C  
HETATM   11  C   UNL     1      -8.455   7.417  69.451  1.00  0.00    -0.133 C  
HETATM   12  C   UNL     1     -10.539   9.365  71.417  1.00  0.00    -0.381 C  
HETATM   13  C   UNL     1      -7.436   7.012  68.651  1.00  0.00    -0.102 C  
HETATM   14  C   UNL     1      -8.753   6.600  70.679  1.00  0.00    -0.143 C  
ENDROOT
BRANCH   3  15
HETATM   15  C   UNL     1     -11.591  13.778  68.459  1.00  0.00    -0.373 C  
BRANCH  15  16
HETATM   16  C   UNL     1     -11.667  14.878  67.413  1.00  0.00    -0.311 C  
HETATM   17  C   UNL     1      -9.120  14.681  66.920  1.00  0.00    -0.272 C  
HETATM   18  O   UNL     1     -10.626  15.824  65.446  1.00  0.00    -0.372 OA 
HETATM   19  C   UNL     1     -10.545  14.708  66.335  1.00  0.00    -0.301 C  
HETATM   20  C   UNL     1     -10.747  13.445  65.489  1.00  0.00    -0.301 C  
HETATM   21  H   UNL     1      -9.945  15.721  64.792  1.00  0.00     0.000 HD 
ENDBRANCH  15  16
ENDBRANCH   3  15
BRANCH  13  22
HETATM   22  C   UNL     1      -6.702   7.892  67.775  1.00  0.00    -0.068 C  
HETATM   23  C   UNL     1      -6.068  10.095  66.891  1.00  0.00    -0.056 C  
HETATM   24  C   UNL     1      -7.040  11.276  67.046  1.00  0.00    -0.129 C  
HETATM   25  C   UNL     1      -6.268   9.128  68.046  1.00  0.00    -0.051 C  
HETATM   26  O   UNL     1      -8.394  10.841  66.935  1.00  0.00    -0.126 OA 
HETATM   27  C   UNL     1      -6.824  11.977  68.390  1.00  0.00    -0.072 C  
HETATM   28  H   UNL     1      -8.995  11.570  67.031  1.00  0.00     0.000 HD 
HETATM   29  C   UNL     1      -6.918  11.014  69.577  1.00  0.00    -0.126 C  
HETATM   30  C   UNL     1      -6.127   9.742  69.355  1.00  0.00    -0.040 C  
HETATM   31  C   UNL     1      -5.270   9.254  70.277  1.00  0.00    -0.027 C  
ENDBRANCH  13  22
TORSDOF 3
ENDMDL
MODEL      111
REMARK 921   NORMALIZED FREE ENERGY PREDICTED BY IDOCK:   -3.64 KCAL/MOL
REMARK 922        TOTAL FREE ENERGY PREDICTED BY IDOCK:   -4.82 KCAL/MOL
REMARK 923 INTER-LIGAND FREE ENERGY PREDICTED BY IDOCK:   -3.75 KCAL/MOL
REMARK 924 INTRA-LIGAND FREE ENERGY PREDICTED BY IDOCK:   -1.07 KCAL/MOL
REMARK 927      BINDING AFFINITY PREDICTED BY RF-SCORE:    0.00 PKD
ROOT
HETATM    1  C   UNL     1      -6.393   8.344  68.565  1.00  0.00    -0.054 C  
HETATM    2  C   UNL     1      -7.180   8.785  69.821  1.00  0.00    -0.051 C  
HETATM    3  C   UNL     1      -7.590  10.299  69.539  1.00  0.00    -0.150 C  
HETATM    4  C   UNL     1      -6.449   8.496  71.221  1.00  0.00    -0.056 C  
HETATM    5  C   UNL     1      -7.295   9.028  72.389  1.00  0.00     0.311 C  
HETATM    6  C   UNL     1      -6.245   6.944  71.634  1.00  0.00    -0.038 C  
HETATM    7  C   UNL     1      -8.145   7.865  72.878  1.00  0.00    -0.189 C  
HETATM    8  C   UNL     1      -5.170   6.650  72.732  1.00  0.00    -0.036 C  
HETATM    9  C   UNL     1      -5.130   5.138  73.085  1.00  0.00    -0.009 C  
HETATM   10  C   UNL     1      -7.639   6.560  72.211  1.00  0.00    -0.096 C  
HETATM   11  C   UNL     1      -7.684   5.416  73.228  1.00  0.00    -0.100 C  
HETATM   12  C   UNL     1      -5.781   6.147  70.426  1.00  0.00    -0.018 C  
HETATM   13  C   UNL     1      -8.733   5.147  74.047  1.00  0.00    -0.117 C  
HETATM   14  C   UNL     1      -6.499   4.488  73.274  1.00  0.00    -0.050 C  
ENDROOT
BRANCH   3  15
HETATM   15  C   UNL     1      -8.200  10.409  68.122  1.00  0.00    -0.116 C  
BRANCH  15  16
HETATM   16  C   UNL     1      -9.588  10.980  67.879  1.00  0.00    -0.180 C  
HETATM   17  C   UNL     1      -9.568  10.165  65.409  1.00  0.00    -0.325 C  
HETATM   18  O   UNL     1     -11.582  10.844  66.517  1.00  0.00    -0.118 OA 
HETATM   19  C   UNL     1     -10.330  10.195  66.747  1.00  0.00    -0.222 C  
HETATM   20  C   UNL     1     -10.644   8.751  67.160  1.00  0.00    -0.303 C  
HETATM   21  H   UNL     1     -12.032  10.367  65.830  1.00  0.00     0.000 HD 
ENDBRANCH  15  16
ENDBRANCH   3  15
BRANCH  13  22
HETATM   22  C   UNL     1     -10.085   5.579  73.790  1.00  0.00    -0.220 C  
HETATM   23  C   UNL     1     -11.895   6.421  72.358  1.00  0.00    -0.255 C  
HETATM   24  C   UNL     1     -11.543   7.206  71.084  1.00  0.00    -0.301 C  
HETATM   25  C   UNL     1     -10.781   5.431  72.658  1.00  0.00    -0.288 C  
HETATM   26  O   UNL     1     -10.378   8.006  71.283  1.00  0.00    -0.191 OA 
HETATM   27  C   UNL     1     -11.328   6.252  69.907  1.00  0.00    -0.504 C  
HETATM   28  H   UNL     1     -10.161   8.492  70.496  1.00  0.00     0.000 HD 
HETATM   29  C   UNL     1     -10.282   5.174  70.207  1.00  0.00    -0.342 C  
HETATM   30  C   UNL     1     -10.490   4.526  71.560  1.00  0.00    -0.052 C  
HETATM   31  C   UNL     1     -10.501   3.186  71.724  1.00  0.00     0.316 C  
ENDBRANCH  13  22
TORSDOF 3
ENDMDL
MODEL      112
REMARK 921   NORMALIZED FREE ENERGY PREDICTED BY IDOCK:   -3.64 KCAL/MOL
REMARK 922        TOTAL FREE ENERGY PREDICTED BY IDOCK:   -4.82 KCAL/MOL
REMARK 923 INTER-LIGAND FREE ENERGY PREDICTED BY IDOCK:   -4.38 KCAL/MOL
REMARK 924 INTRA-LIGAND FREE ENERGY PREDICTED BY IDOCK:   -0.44 KCAL/MOL
REMARK 927      BINDING AFFINITY PREDICTED BY RF-SCORE:    0.00 PKD
ROOT
HETATM    1  C   UNL     1      -7.506  10.417  64.731  1.00  0.00    -0.049 C  
HETATM    2  C   UNL     1      -8.181   9.139  65.283  1.00  0.00    -0.135 C  
HETATM    3  C   UNL     1      -7.929   8.026  64.171  1.00  0.00    -0.137 C  
HETATM    4  C   UNL     1      -9.699   9.325  65.770  1.00  0.00    -0.339 C  
HETATM    5  C   UNL     1     -10.281   7.983  66.241  1.00  0.00     0.086 C  
HETATM    6  C   UNL     1      -9.944  10.269  67.063  1.00  0.00    -0.249 C  
HETATM    7  C   UNL     1     -10.069   7.919  67.746  1.00  0.00    -0.246 C  
HETATM    8  C   UNL     1     -11.397  10.810  67.268  1.00  0.00    -0.173 C  
HETATM    9  C   UNL     1     -11.508  11.635  68.578  1.00  0.00    -0.358 C  
HETATM   10  C   UNL     1      -9.615   9.314  68.248  1.00  0.00    -0.160 C  
HETATM   11  C   UNL     1     -10.280   9.615  69.594  1.00  0.00    -0.239 C  
HETATM   12  C   UNL     1      -9.086  11.520  66.957  1.00  0.00    -0.175 C  
HETATM   13  C   UNL     1     -10.355   8.745  70.634  1.00  0.00    -0.253 C  
HETATM   14  C   UNL     1     -10.835  11.000  69.794  1.00  0.00    -0.205 C  
ENDROOT
BRANCH   3  15
HETATM   15  C   UNL     1      -6.437   8.041  63.760  1.00  0.00    -0.067 C  
BRANCH  15  16
HETATM   16  C   UNL     1      -5.792   6.886  63.012  1.00  0.00    -0.039 C  
HETATM   17  C   UNL     1      -5.272   5.643  65.237  1.00  0.00    -0.009 C  
HETATM   18  O   UNL     1      -5.189   4.546  63.107  1.00  0.00    -0.009 OA 
HETATM   19  C   UNL     1      -5.895   5.557  63.830  1.00  0.00    -0.021 C  
HETATM   20  C   UNL     1      -7.346   5.078  63.969  1.00  0.00    -0.055 C  
HETATM   21  H   UNL     1      -5.252   3.739  63.604  1.00  0.00     0.000 HD 
ENDBRANCH  15  16
ENDBRANCH   3  15
BRANCH  13  22
HETATM   22  C   UNL     1      -9.467   7.622  70.807  1.00  0.00    -0.162 C  
HETATM   23  C   UNL     1      -7.595   6.434  71.867  1.00  0.00    -0.095 C  
HETATM   24  C   UNL     1      -6.495   7.243  72.572  1.00  0.00    -0.051 C  
HETATM   25  C   UNL     1      -8.906   7.201  71.945  1.00  0.00    -0.131 C  
HETATM   26  O   UNL     1      -6.247   8.472  71.890  1.00  0.00    -0.055 OA 
HETATM   27  C   UNL     1      -6.879   7.520  74.028  1.00  0.00    -0.097 C  
HETATM   28  H   UNL     1      -5.567   8.972  72.326  1.00  0.00     0.000 HD 
HETATM   29  C   UNL     1      -8.245   8.203  74.155  1.00  0.00    -0.310 C  
HETATM   30  C   UNL     1      -9.305   7.542  73.300  1.00  0.00    -0.271 C  
HETATM   31  C   UNL     1     -10.517   7.201  73.789  1.00  0.00    -0.371 C  
ENDBRANCH  13  22
TORSDOF 3
ENDMDL
MODEL      113
REMARK 921   NORMALIZED FREE ENERGY PREDICTED BY IDOCK:   -3.62 KCAL/MOL
REMARK 922        TOTAL FREE ENERGY PREDICTED BY IDOCK:   -4.80 KCAL/MOL
REMARK 923 INTER-LIGAND FREE ENERGY PREDICTED BY IDOCK:   -4.83 KCAL/MOL
REMARK 924 INTRA-LIGAND FREE ENERGY PREDICTED BY IDOCK:    0.04 KCAL/MOL
REMARK 927      BINDING AFFINITY PREDICTED BY RF-SCORE:    0.00 PKD
ROOT
HETATM    1  C   UNL     1      -8.824  13.512  68.698  1.00  0.00    -0.003 C  
HETATM    2  C   UNL     1      -8.406  14.465  67.553  1.00  0.00    -0.198 C  
HETATM    3  C   UNL     1      -8.692  13.650  66.214  1.00  0.00     0.372 C  
HETATM    4  C   UNL     1      -6.941  15.103  67.697  1.00  0.00    -0.206 C  
HETATM    5  C   UNL     1      -6.615  15.981  66.478  1.00  0.00     0.691 C  
HETATM    6  C   UNL     1      -6.707  16.133  68.924  1.00  0.00    -0.147 C  
HETATM    7  C   UNL     1      -7.000  17.406  66.851  1.00  0.00    -0.227 C  
HETATM    8  C   UNL     1      -5.222  16.401  69.338  1.00  0.00    -0.129 C  
HETATM    9  C   UNL     1      -5.139  17.459  70.471  1.00  0.00    -0.260 C  
HETATM   10  C   UNL     1      -7.300  17.462  68.370  1.00  0.00    -0.227 C  
HETATM   11  C   UNL     1      -6.752  18.768  68.953  1.00  0.00    -0.303 C  
HETATM   12  C   UNL     1      -7.358  15.587  70.185  1.00  0.00     0.281 C  
HETATM   13  C   UNL     1      -6.920  19.995  68.397  1.00  0.00    -0.330 C  
HETATM   14  C   UNL     1      -6.028  18.685  70.270  1.00  0.00    -0.117 C  
ENDROOT
BRANCH   3  15
HETATM   15  C   UNL     1     -10.111  13.037  66.280  1.00  0.00    -0.283 C  
BRANCH  15  16
HETATM   16  C   UNL     1     -10.455  11.717  65.609  1.00  0.00    -0.314 C  
HETATM   17  C   UNL     1      -8.607  10.472  66.951  1.00  0.00    -0.125 C  
HETATM   18  O   UNL     1     -10.355   9.307  65.795  1.00  0.00    -0.268 OA 
HETATM   19  C   UNL     1     -10.088  10.505  66.528  1.00  0.00    -0.225 C  
HETATM   20  C   UNL     1     -10.956  10.458  67.793  1.00  0.00    -0.369 C  
HETATM   21  H   UNL     1     -10.132   8.572  66.353  1.00  0.00     0.000 HD 
ENDBRANCH  15  16
ENDBRANCH   3  15
BRANCH  13  22
HETATM   22  C   UNL     1      -7.974  20.319  67.468  1.00  0.00    -0.346 C  
HETATM   23  C   UNL     1     -10.035  19.841  66.217  1.00  0.00    -0.581 C  
HETATM   24  C   UNL     1     -10.430  18.379  65.951  1.00  0.00    -0.321 C  
HETATM   25  C   UNL     1      -9.249  19.917  67.516  1.00  0.00    -0.448 C  
HETATM   26  O   UNL     1      -9.276  17.568  65.735  1.00  0.00    -0.510 OA 
HETATM   27  C   UNL     1     -11.249  17.823  67.119  1.00  0.00     0.440 C  
HETATM   28  H   UNL     1      -9.521  16.665  65.572  1.00  0.00     0.000 HD 
HETATM   29  C   UNL     1     -10.532  17.974  68.464  1.00  0.00    -0.291 C  
HETATM   30  C   UNL     1      -9.950  19.358  68.658  1.00  0.00    -0.527 C  
HETATM   31  C   UNL     1     -10.149  20.073  69.787  1.00  0.00     0.140 C  
ENDBRANCH  13  22
TORSDOF 3
ENDMDL
MODEL      114
REMARK 921   NORMALIZED FREE ENERGY PREDICTED BY IDOCK:   -3.61 KCAL/MOL
REMARK 922        TOTAL FREE ENERGY PREDICTED BY IDOCK:   -4.79 KCAL/MOL
REMARK 923 INTER-LIGAND FREE ENERGY PREDICTED BY IDOCK:   -3.70 KCAL/MOL
REMARK 924 INTRA-LIGAND FREE ENERGY PREDICTED BY IDOCK:   -1.09 KCAL/MOL
REMARK 927      BINDING AFFINITY PREDICTED BY RF-SCORE:    0.00 PKD
ROOT
HETATM    1  C   UNL     1      -7.670   8.120  64.538  1.00  0.00    -0.121 C  
HETATM    2  C   UNL     1      -6.849   7.718  65.786  1.00  0.00    -0.053 C  
HETATM    3  C   UNL     1      -5.668   8.785  65.864  1.00  0.00    -0.046 C  
HETATM    4  C   UNL     1      -6.416   6.174  65.850  1.00  0.00    -0.046 C  
HETATM    5  C   UNL     1      -5.559   5.907  67.098  1.00  0.00    -0.016 C  
HETATM    6  C   UNL     1      -7.603   5.086  66.018  1.00  0.00    -0.087 C  
HETATM    7  C   UNL     1      -6.509   5.427  68.185  1.00  0.00    -0.044 C  
HETATM    8  C   UNL     1      -7.256   3.609  65.637  1.00  0.00    -0.071 C  
HETATM    9  C   UNL     1      -8.455   2.663  65.917  1.00  0.00    -0.100 C  
HETATM   10  C   UNL     1      -7.892   5.133  67.548  1.00  0.00    -0.096 C  
HETATM   11  C   UNL     1      -8.492   3.876  68.184  1.00  0.00    -0.106 C  
HETATM   12  C   UNL     1      -8.766   5.448  65.109  1.00  0.00    -0.133 C  
HETATM   13  C   UNL     1      -8.529   3.625  69.518  1.00  0.00    -0.097 C  
HETATM   14  C   UNL     1      -9.143   2.880  67.263  1.00  0.00    -0.202 C  
ENDROOT
BRANCH   3  15
HETATM   15  C   UNL     1      -6.253  10.209  65.703  1.00  0.00    -0.101 C  
BRANCH  15  16
HETATM   16  C   UNL     1      -6.352  11.180  66.868  1.00  0.00    -0.114 C  
HETATM   17  C   UNL     1      -8.835  11.712  66.304  1.00  0.00    -0.164 C  
HETATM   18  O   UNL     1      -7.850  12.282  68.414  1.00  0.00    -0.143 OA 
HETATM   19  C   UNL     1      -7.824  11.289  67.387  1.00  0.00    -0.128 C  
HETATM   20  C   UNL     1      -8.309   9.978  68.019  1.00  0.00    -0.117 C  
HETATM   21  H   UNL     1      -8.744  12.348  68.729  1.00  0.00     0.000 HD 
ENDBRANCH  15  16
ENDBRANCH   3  15
BRANCH  13  22
HETATM   22  C   UNL     1      -8.434   4.647  70.532  1.00  0.00    -0.104 C  
HETATM   23  C   UNL     1      -9.232   5.877  72.503  1.00  0.00    -0.140 C  
HETATM   24  C   UNL     1     -10.733   5.876  72.833  1.00  0.00    -0.249 C  
HETATM   25  C   UNL     1      -8.876   4.581  71.792  1.00  0.00    -0.140 C  
HETATM   26  O   UNL     1     -11.518   5.879  71.641  1.00  0.00    -0.259 OA 
HETATM   27  C   UNL     1     -11.095   4.664  73.694  1.00  0.00    -0.379 C  
HETATM   28  H   UNL     1     -12.446   5.879  71.844  1.00  0.00     0.000 HD 
HETATM   29  C   UNL     1     -10.660   3.340  73.056  1.00  0.00    -0.241 C  
HETATM   30  C   UNL     1      -9.240   3.387  72.535  1.00  0.00    -0.143 C  
HETATM   31  C   UNL     1      -8.334   2.426  72.819  1.00  0.00    -0.062 C  
ENDBRANCH  13  22
TORSDOF 3
ENDMDL
MODEL      115
REMARK 921   NORMALIZED FREE ENERGY PREDICTED BY IDOCK:   -3.54 KCAL/MOL
REMARK 922        TOTAL FREE ENERGY PREDICTED BY IDOCK:   -4.71 KCAL/MOL
REMARK 923 INTER-LIGAND FREE ENERGY PREDICTED BY IDOCK:   -4.57 KCAL/MOL
REMARK 924 INTRA-LIGAND FREE ENERGY PREDICTED BY IDOCK:   -0.14 KCAL/MOL
REMARK 927      BINDING AFFINITY PREDICTED BY RF-SCORE:    0.00 PKD
ROOT
HETATM    1  C   UNL     1      -8.999   7.982  68.854  1.00  0.00    -0.141 C  
HETATM    2  C   UNL     1      -9.401   9.212  69.701  1.00  0.00    -0.177 C  
HETATM    3  C   UNL     1      -9.554   8.658  71.187  1.00  0.00    -0.281 C  
HETATM    4  C   UNL     1     -10.637  10.061  69.128  1.00  0.00    -0.240 C  
HETATM    5  C   UNL     1     -10.981  11.219  70.079  1.00  0.00    -0.000 C  
HETATM    6  C   UNL     1     -10.407  10.836  67.726  1.00  0.00    -0.226 C  
HETATM    7  C   UNL     1     -10.230  12.440  69.570  1.00  0.00     0.753 C  
HETATM    8  C   UNL     1     -11.693  11.276  66.952  1.00  0.00     0.179 C  
HETATM    9  C   UNL     1     -11.330  12.071  65.668  1.00  0.00    -0.381 C  
HETATM   10  C   UNL     1      -9.649  12.122  68.169  1.00  0.00    -0.208 C  
HETATM   11  C   UNL     1      -9.778  13.354  67.269  1.00  0.00    -0.232 C  
HETATM   12  C   UNL     1      -9.671   9.930  66.752  1.00  0.00    -0.244 C  
HETATM   13  C   UNL     1      -9.450  14.620  67.636  1.00  0.00    -0.205 C  
HETATM   14  C   UNL     1     -10.246  13.131  65.856  1.00  0.00    -0.294 C  
ENDROOT
BRANCH   3  15
HETATM   15  C   UNL     1      -8.318   7.798  71.543  1.00  0.00    -0.119 C  
BRANCH  15  16
HETATM   16  C   UNL     1      -8.212   7.036  72.854  1.00  0.00    -0.119 C  
HETATM   17  C   UNL     1     -10.801   6.936  73.087  1.00  0.00    -0.328 C  
HETATM   18  O   UNL     1      -9.344   5.539  74.380  1.00  0.00    -0.125 OA 
HETATM   19  C   UNL     1      -9.477   6.147  73.094  1.00  0.00    -0.138 C  
HETATM   20  C   UNL     1      -9.584   5.010  72.069  1.00  0.00    -0.200 C  
HETATM   21  H   UNL     1     -10.112   4.999  74.525  1.00  0.00     0.000 HD 
ENDBRANCH  15  16
ENDBRANCH   3  15
BRANCH  13  22
HETATM   22  C   UNL     1      -8.540  14.935  68.710  1.00  0.00    -0.177 C  
HETATM   23  C   UNL     1      -6.599  16.079  69.691  1.00  0.00    -0.185 C  
HETATM   24  C   UNL     1      -5.472  16.571  68.769  1.00  0.00    -0.121 C  
HETATM   25  C   UNL     1      -7.913  16.096  68.926  1.00  0.00    -0.223 C  
HETATM   26  O   UNL     1      -5.277  15.674  67.676  1.00  0.00    -0.196 OA 
HETATM   27  C   UNL     1      -5.780  17.976  68.245  1.00  0.00    -0.161 C  
HETATM   28  H   UNL     1      -4.580  15.978  67.106  1.00  0.00     0.000 HD 
HETATM   29  C   UNL     1      -7.145  18.058  67.554  1.00  0.00    -0.201 C  
HETATM   30  C   UNL     1      -8.241  17.391  68.357  1.00  0.00    -0.262 C  
HETATM   31  C   UNL     1      -9.421  17.998  68.612  1.00  0.00    -0.317 C  
ENDBRANCH  13  22
TORSDOF 3
ENDMDL
MODEL      116
REMARK 921   NORMALIZED FREE ENERGY PREDICTED BY IDOCK:   -3.53 KCAL/MOL
REMARK 922        TOTAL FREE ENERGY PREDICTED BY IDOCK:   -4.69 KCAL/MOL
REMARK 923 INTER-LIGAND FREE ENERGY PREDICTED BY IDOCK:   -3.83 KCAL/MOL
REMARK 924 INTRA-LIGAND FREE ENERGY PREDICTED BY IDOCK:   -0.86 KCAL/MOL
REMARK 927      BINDING AFFINITY PREDICTED BY RF-SCORE:    0.00 PKD
ROOT
HETATM    1  C   UNL     1      -9.138   7.138  70.034  1.00  0.00    -0.145 C  
HETATM    2  C   UNL     1     -10.058   8.303  69.597  1.00  0.00    -0.199 C  
HETATM    3  C   UNL     1     -11.453   8.018  70.312  1.00  0.00    -0.078 C  
HETATM    4  C   UNL     1     -10.113   8.571  68.015  1.00  0.00    -0.245 C  
HETATM    5  C   UNL     1     -11.099   9.707  67.697  1.00  0.00    -0.061 C  
HETATM    6  C   UNL     1      -8.753   9.101  67.314  1.00  0.00    -0.122 C  
HETATM    7  C   UNL     1     -10.282  10.989  67.634  1.00  0.00    -0.211 C  
HETATM    8  C   UNL     1      -8.659   8.938  65.761  1.00  0.00    -0.181 C  
HETATM    9  C   UNL     1      -7.343   9.552  65.213  1.00  0.00    -0.104 C  
HETATM   10  C   UNL     1      -8.776  10.624  67.637  1.00  0.00    -0.121 C  
HETATM   11  C   UNL     1      -8.022  11.552  66.680  1.00  0.00    -0.127 C  
HETATM   12  C   UNL     1      -7.562   8.323  67.849  1.00  0.00    -0.102 C  
HETATM   13  C   UNL     1      -8.176  12.900  66.625  1.00  0.00     0.201 C  
HETATM   14  C   UNL     1      -6.991  10.925  65.780  1.00  0.00     0.014 C  
ENDROOT
BRANCH   3  15
HETATM   15  C   UNL     1     -11.207   7.698  71.806  1.00  0.00    -0.285 C  
BRANCH  15  16
HETATM   16  C   UNL     1     -12.073   6.715  72.578  1.00  0.00    -0.025 C  
HETATM   17  C   UNL     1     -10.535   4.726  71.911  1.00  0.00    -0.201 C  
HETATM   18  O   UNL     1     -12.136   4.568  73.688  1.00  0.00    -0.224 OA 
HETATM   19  C   UNL     1     -11.238   5.482  73.055  1.00  0.00    -0.293 C  
HETATM   20  C   UNL     1     -10.184   5.870  74.100  1.00  0.00    -0.291 C  
HETATM   21  H   UNL     1     -11.629   3.819  73.978  1.00  0.00     0.000 HD 
ENDBRANCH  15  16
ENDBRANCH   3  15
BRANCH  13  22
HETATM   22  C   UNL     1      -8.701  13.694  67.709  1.00  0.00    -0.184 C  
HETATM   23  C   UNL     1      -8.500  15.250  69.600  1.00  0.00    -0.101 C  
HETATM   24  C   UNL     1      -7.160  15.360  70.345  1.00  0.00     0.415 C  
HETATM   25  C   UNL     1      -8.238  14.867  68.152  1.00  0.00    -0.139 C  
HETATM   26  O   UNL     1      -6.506  14.093  70.408  1.00  0.00    -0.338 OA 
HETATM   27  C   UNL     1      -6.249  16.385  69.665  1.00  0.00    -0.210 C  
HETATM   28  H   UNL     1      -5.677  14.161  70.868  1.00  0.00     0.000 HD 
HETATM   29  C   UNL     1      -6.041  16.090  68.176  1.00  0.00    -0.126 C  
HETATM   30  C   UNL     1      -7.338  15.774  67.461  1.00  0.00    -0.205 C  
HETATM   31  C   UNL     1      -7.684  16.367  66.298  1.00  0.00    -0.144 C  
ENDBRANCH  13  22
TORSDOF 3
ENDMDL
MODEL      117
REMARK 921   NORMALIZED FREE ENERGY PREDICTED BY IDOCK:   -3.36 KCAL/MOL
REMARK 922        TOTAL FREE ENERGY PREDICTED BY IDOCK:   -4.49 KCAL/MOL
REMARK 923 INTER-LIGAND FREE ENERGY PREDICTED BY IDOCK:   -3.78 KCAL/MOL
REMARK 924 INTRA-LIGAND FREE ENERGY PREDICTED BY IDOCK:   -0.71 KCAL/MOL
REMARK 927      BINDING AFFINITY PREDICTED BY RF-SCORE:    0.00 PKD
ROOT
HETATM    1  C   UNL     1      -8.930   5.578  62.829  1.00  0.00     0.213 C  
HETATM    2  C   UNL     1      -7.852   5.811  63.914  1.00  0.00    -0.117 C  
HETATM    3  C   UNL     1      -6.740   6.705  63.204  1.00  0.00    -0.042 C  
HETATM    4  C   UNL     1      -7.332   4.485  64.654  1.00  0.00    -0.071 C  
HETATM    5  C   UNL     1      -6.226   4.832  65.664  1.00  0.00    -0.034 C  
HETATM    6  C   UNL     1      -8.398   3.697  65.582  1.00  0.00    -0.105 C  
HETATM    7  C   UNL     1      -6.907   5.016  67.011  1.00  0.00    -0.060 C  
HETATM    8  C   UNL     1      -8.057   2.211  65.932  1.00  0.00    -0.085 C  
HETATM    9  C   UNL     1      -9.121   1.602  66.885  1.00  0.00    -0.089 C  
HETATM   10  C   UNL     1      -8.372   4.521  66.903  1.00  0.00    -0.105 C  
HETATM   11  C   UNL     1      -8.762   3.788  68.191  1.00  0.00    -0.127 C  
HETATM   12  C   UNL     1      -9.741   3.620  64.872  1.00  0.00    -0.172 C  
HETATM   13  C   UNL     1      -8.512   4.242  69.446  1.00  0.00    -0.094 C  
HETATM   14  C   UNL     1      -9.531   2.503  68.048  1.00  0.00    -0.203 C  
ENDROOT
BRANCH   3  15
HETATM   15  C   UNL     1      -7.421   7.886  62.474  1.00  0.00    -0.106 C  
BRANCH  15  16
HETATM   16  C   UNL     1      -6.762   9.250  62.349  1.00  0.00    -0.091 C  
HETATM   17  C   UNL     1      -7.759  10.019  64.625  1.00  0.00    -0.146 C  
HETATM   18  O   UNL     1      -5.961  11.188  63.554  1.00  0.00    -0.264 OA 
HETATM   19  C   UNL     1      -6.494   9.878  63.757  1.00  0.00    -0.126 C  
HETATM   20  C   UNL     1      -5.446   9.086  64.549  1.00  0.00    -0.055 C  
HETATM   21  H   UNL     1      -5.799  11.569  64.409  1.00  0.00     0.000 HD 
ENDBRANCH  15  16
ENDBRANCH   3  15
BRANCH  13  22
HETATM   22  C   UNL     1      -8.268   5.627  69.767  1.00  0.00    -0.106 C  
HETATM   23  C   UNL     1      -8.331   8.040  69.307  1.00  0.00    -0.134 C  
HETATM   24  C   UNL     1      -8.397   8.527  67.851  1.00  0.00    -0.126 C  
HETATM   25  C   UNL     1      -9.008   6.683  69.412  1.00  0.00    -0.133 C  
HETATM   26  O   UNL     1      -7.646   7.670  66.991  1.00  0.00    -0.099 OA 
HETATM   27  C   UNL     1      -9.850   8.603  67.375  1.00  0.00    -0.249 C  
HETATM   28  H   UNL     1      -7.687   7.970  66.091  1.00  0.00     0.000 HD 
HETATM   29  C   UNL     1     -10.598   7.279  67.558  1.00  0.00    -0.344 C  
HETATM   30  C   UNL     1     -10.377   6.673  68.928  1.00  0.00    -0.216 C  
HETATM   31  C   UNL     1     -11.398   6.236  69.697  1.00  0.00    -0.492 C  
ENDBRANCH  13  22
TORSDOF 3
ENDMDL
MODEL      118
REMARK 921   NORMALIZED FREE ENERGY PREDICTED BY IDOCK:   -3.34 KCAL/MOL
REMARK 922        TOTAL FREE ENERGY PREDICTED BY IDOCK:   -4.46 KCAL/MOL
REMARK 923 INTER-LIGAND FREE ENERGY PREDICTED BY IDOCK:   -3.37 KCAL/MOL
REMARK 924 INTRA-LIGAND FREE ENERGY PREDICTED BY IDOCK:   -1.10 KCAL/MOL
REMARK 927      BINDING AFFINITY PREDICTED BY RF-SCORE:    0.00 PKD
ROOT
HETATM    1  C   UNL     1      -5.143  14.850  67.293  1.00  0.00     0.535 C  
HETATM    2  C   UNL     1      -6.414  15.070  68.147  1.00  0.00    -0.138 C  
HETATM    3  C   UNL     1      -6.247  16.528  68.768  1.00  0.00    -0.138 C  
HETATM    4  C   UNL     1      -6.754  13.891  69.182  1.00  0.00    -0.113 C  
HETATM    5  C   UNL     1      -7.998  14.246  70.011  1.00  0.00     0.887 C  
HETATM    6  C   UNL     1      -7.168  12.458  68.552  1.00  0.00    -0.103 C  
HETATM    7  C   UNL     1      -9.190  13.624  69.298  1.00  0.00     0.645 C  
HETATM    8  C   UNL     1      -7.061  11.220  69.501  1.00  0.00    -0.058 C  
HETATM    9  C   UNL     1      -7.556   9.929  68.796  1.00  0.00    -0.081 C  
HETATM   10  C   UNL     1      -8.670  12.665  68.197  1.00  0.00    -0.190 C  
HETATM   11  C   UNL     1      -9.554  11.415  68.147  1.00  0.00    -0.190 C  
HETATM   12  C   UNL     1      -6.248  12.124  67.388  1.00  0.00    -0.142 C  
HETATM   13  C   UNL     1     -10.911  11.425  68.156  1.00  0.00    -0.284 C  
HETATM   14  C   UNL     1      -8.861  10.085  68.016  1.00  0.00    -0.125 C  
ENDROOT
BRANCH   3  15
HETATM   15  C   UNL     1      -5.840  17.518  67.651  1.00  0.00    -0.150 C  
BRANCH  15  16
HETATM   16  C   UNL     1      -6.861  18.370  66.913  1.00  0.00    -0.209 C  
HETATM   17  C   UNL     1      -7.821  19.284  69.151  1.00  0.00    -0.250 C  
HETATM   18  O   UNL     1      -8.284  20.321  67.040  1.00  0.00    -0.315 OA 
HETATM   19  C   UNL     1      -7.262  19.625  67.756  1.00  0.00    -0.267 C  
HETATM   20  C   UNL     1      -6.091  20.602  67.926  1.00  0.00    -0.327 C  
HETATM   21  H   UNL     1      -8.528  21.083  67.551  1.00  0.00     0.000 HD 
ENDBRANCH  15  16
ENDBRANCH   3  15
BRANCH  13  22
HETATM   22  C   UNL     1     -11.709  12.562  67.767  1.00  0.00    -0.419 C  
HETATM   23  C   UNL     1     -12.143  14.619  66.494  1.00  0.00    -0.230 C  
HETATM   24  C   UNL     1     -10.956  15.437  65.960  1.00  0.00    -0.286 C  
HETATM   25  C   UNL     1     -11.747  13.153  66.568  1.00  0.00    -0.433 C  
HETATM   26  O   UNL     1      -9.856  15.394  66.867  1.00  0.00    -0.236 OA 
HETATM   27  C   UNL     1     -10.522  14.919  64.586  1.00  0.00    -0.144 C  
HETATM   28  H   UNL     1      -9.122  15.899  66.537  1.00  0.00     0.000 HD 
HETATM   29  C   UNL     1     -10.210  13.419  64.595  1.00  0.00    -0.338 C  
HETATM   30  C   UNL     1     -11.275  12.611  65.306  1.00  0.00    -0.335 C  
HETATM   31  C   UNL     1     -11.825  11.504  64.761  1.00  0.00     0.066 C  
ENDBRANCH  13  22
TORSDOF 3
ENDMDL
MODEL      119
REMARK 921   NORMALIZED FREE ENERGY PREDICTED BY IDOCK:   -3.28 KCAL/MOL
REMARK 922        TOTAL FREE ENERGY PREDICTED BY IDOCK:   -4.40 KCAL/MOL
REMARK 923 INTER-LIGAND FREE ENERGY PREDICTED BY IDOCK:   -3.92 KCAL/MOL
REMARK 924 INTRA-LIGAND FREE ENERGY PREDICTED BY IDOCK:   -0.49 KCAL/MOL
REMARK 927      BINDING AFFINITY PREDICTED BY RF-SCORE:    0.00 PKD
ROOT
HETATM    1  C   UNL     1     -10.312   9.253  66.253  1.00  0.00    -0.192 C  
HETATM    2  C   UNL     1      -8.825   8.825  66.285  1.00  0.00    -0.187 C  
HETATM    3  C   UNL     1      -8.037  10.022  65.589  1.00  0.00    -0.138 C  
HETATM    4  C   UNL     1      -8.527   7.353  65.718  1.00  0.00    -0.149 C  
HETATM    5  C   UNL     1      -7.018   7.062  65.745  1.00  0.00    -0.060 C  
HETATM    6  C   UNL     1      -9.124   6.107  66.562  1.00  0.00    -0.156 C  
HETATM    7  C   UNL     1      -6.735   6.343  67.056  1.00  0.00    -0.060 C  
HETATM    8  C   UNL     1      -9.231   4.740  65.810  1.00  0.00    -0.149 C  
HETATM    9  C   UNL     1      -9.746   3.620  66.754  1.00  0.00    -0.098 C  
HETATM   10  C   UNL     1      -8.083   5.945  67.709  1.00  0.00    -0.105 C  
HETATM   11  C   UNL     1      -7.954   4.557  68.344  1.00  0.00    -0.079 C  
HETATM   12  C   UNL     1     -10.549   6.414  66.995  1.00  0.00    -0.396 C  
HETATM   13  C   UNL     1      -6.918   4.155  69.125  1.00  0.00    -0.047 C  
HETATM   14  C   UNL     1      -9.091   3.594  68.134  1.00  0.00    -0.197 C  
ENDROOT
BRANCH   3  15
HETATM   15  C   UNL     1      -8.505  11.365  66.196  1.00  0.00    -0.105 C  
BRANCH  15  16
HETATM   16  C   UNL     1      -9.335  11.434  67.467  1.00  0.00    -0.166 C  
HETATM   17  C   UNL     1      -8.139  13.620  68.214  1.00  0.00    -0.155 C  
HETATM   18  O   UNL     1     -10.194  12.882  69.204  1.00  0.00    -0.428 OA 
HETATM   19  C   UNL     1      -9.484  12.910  67.964  1.00  0.00    -0.213 C  
HETATM   20  C   UNL     1     -10.311  13.763  66.994  1.00  0.00    -0.260 C  
HETATM   21  H   UNL     1     -10.284  13.778  69.506  1.00  0.00     0.000 HD 
ENDBRANCH  15  16
ENDBRANCH   3  15
BRANCH  13  22
HETATM   22  C   UNL     1      -6.045   5.061  69.830  1.00  0.00    -0.022 C  
HETATM   23  C   UNL     1      -5.572   7.016  71.241  1.00  0.00    -0.028 C  
HETATM   24  C   UNL     1      -6.593   8.163  71.304  1.00  0.00    -0.045 C  
HETATM   25  C   UNL     1      -6.302   5.711  70.971  1.00  0.00    -0.035 C  
HETATM   26  O   UNL     1      -7.231   8.349  70.041  1.00  0.00    -0.053 OA 
HETATM   27  C   UNL     1      -7.643   7.890  72.384  1.00  0.00    -0.121 C  
HETATM   28  H   UNL     1      -7.862   9.058  70.079  1.00  0.00     0.000 HD 
HETATM   29  C   UNL     1      -8.333   6.534  72.204  1.00  0.00    -0.107 C  
HETATM   30  C   UNL     1      -7.349   5.416  71.933  1.00  0.00    -0.091 C  
HETATM   31  C   UNL     1      -7.380   4.247  72.610  1.00  0.00    -0.073 C  
ENDBRANCH  13  22
TORSDOF 3
ENDMDL
MODEL      120
REMARK 921   NORMALIZED FREE ENERGY PREDICTED BY IDOCK:   -3.27 KCAL/MOL
REMARK 922        TOTAL FREE ENERGY PREDICTED BY IDOCK:   -4.38 KCAL/MOL
REMARK 923 INTER-LIGAND FREE ENERGY PREDICTED BY IDOCK:   -3.65 KCAL/MOL
REMARK 924 INTRA-LIGAND FREE ENERGY PREDICTED BY IDOCK:   -0.73 KCAL/MOL
REMARK 927      BINDING AFFINITY PREDICTED BY RF-SCORE:    0.00 PKD
ROOT
HETATM    1  C   UNL     1      -9.365   9.561  69.749  1.00  0.00    -0.227 C  
HETATM    2  C   UNL     1      -8.546  10.481  68.811  1.00  0.00    -0.146 C  
HETATM    3  C   UNL     1      -7.049   9.944  68.912  1.00  0.00    -0.071 C  
HETATM    4  C   UNL     1      -8.754  12.055  69.048  1.00  0.00     0.345 C  
HETATM    5  C   UNL     1      -7.851  12.864  68.103  1.00  0.00    -0.147 C  
HETATM    6  C   UNL     1     -10.218  12.660  68.712  1.00  0.00    -0.094 C  
HETATM    7  C   UNL     1      -8.686  13.192  66.875  1.00  0.00    -0.156 C  
HETATM    8  C   UNL     1     -10.562  14.048  69.344  1.00  0.00    -0.021 C  
HETATM    9  C   UNL     1     -11.959  14.543  68.882  1.00  0.00    -0.326 C  
HETATM   10  C   UNL     1     -10.166  12.835  67.165  1.00  0.00    -0.235 C  
HETATM   11  C   UNL     1     -11.080  13.900  66.552  1.00  0.00    -0.310 C  
HETATM   12  C   UNL     1     -11.295  11.725  69.241  1.00  0.00    -0.348 C  
HETATM   13  C   UNL     1     -10.957  14.396  65.294  1.00  0.00    -0.355 C  
HETATM   14  C   UNL     1     -12.234  14.383  67.389  1.00  0.00    -0.230 C  
ENDROOT
BRANCH   3  15
HETATM   15  C   UNL     1      -7.044   8.406  68.744  1.00  0.00    -0.068 C  
BRANCH  15  16
HETATM   16  C   UNL     1      -6.815   7.739  67.398  1.00  0.00    -0.069 C  
HETATM   17  C   UNL     1      -7.841   5.506  68.250  1.00  0.00    -0.089 C  
HETATM   18  O   UNL     1      -7.512   5.956  65.919  1.00  0.00    -0.081 OA 
HETATM   19  C   UNL     1      -7.848   6.590  67.155  1.00  0.00    -0.108 C  
HETATM   20  C   UNL     1      -9.279   7.124  67.010  1.00  0.00    -0.167 C  
HETATM   21  H   UNL     1      -8.139   5.259  65.772  1.00  0.00     0.000 HD 
ENDBRANCH  15  16
ENDBRANCH   3  15
BRANCH  13  22
HETATM   22  C   UNL     1     -10.274  13.711  64.224  1.00  0.00     0.086 C  
HETATM   23  C   UNL     1      -9.178  11.767  63.195  1.00  0.00     0.025 C  
HETATM   24  C   UNL     1      -8.570  10.682  64.099  1.00  0.00    -0.098 C  
HETATM   25  C   UNL     1     -10.353  12.413  63.912  1.00  0.00    -0.450 C  
HETATM   26  O   UNL     1      -8.014  11.254  65.282  1.00  0.00    -0.346 OA 
HETATM   27  C   UNL     1      -9.626   9.637  64.469  1.00  0.00    -0.094 C  
HETATM   28  H   UNL     1      -7.639  10.584  65.841  1.00  0.00     0.000 HD 
HETATM   29  C   UNL     1     -10.873  10.261  65.104  1.00  0.00     0.499 C  
HETATM   30  C   UNL     1     -11.370  11.468  64.337  1.00  0.00    -0.283 C  
HETATM   31  C   UNL     1     -12.666  11.615  63.985  1.00  0.00    -0.083 C  
ENDBRANCH  13  22
TORSDOF 3
ENDMDL
MODEL      121
REMARK 921   NORMALIZED FREE ENERGY PREDICTED BY IDOCK:   -3.24 KCAL/MOL
REMARK 922        TOTAL FREE ENERGY PREDICTED BY IDOCK:   -4.35 KCAL/MOL
REMARK 923 INTER-LIGAND FREE ENERGY PREDICTED BY IDOCK:   -4.35 KCAL/MOL
REMARK 924 INTRA-LIGAND FREE ENERGY PREDICTED BY IDOCK:    0.00 KCAL/MOL
REMARK 927      BINDING AFFINITY PREDICTED BY RF-SCORE:    0.00 PKD
ROOT
HETATM    1  C   UNL     1      -5.216  14.128  69.950  1.00  0.00    -0.093 C  
HETATM    2  C   UNL     1      -5.766  14.438  68.537  1.00  0.00    -0.096 C  
HETATM    3  C   UNL     1      -5.217  13.261  67.614  1.00  0.00    -0.026 C  
HETATM    4  C   UNL     1      -5.503  15.932  68.015  1.00  0.00    -0.132 C  
HETATM    5  C   UNL     1      -6.040  16.104  66.584  1.00  0.00     0.532 C  
HETATM    6  C   UNL     1      -6.258  17.128  68.802  1.00  0.00    -0.166 C  
HETATM    7  C   UNL     1      -7.449  16.663  66.711  1.00  0.00    -0.289 C  
HETATM    8  C   UNL     1      -5.679  18.568  68.607  1.00  0.00    -0.191 C  
HETATM    9  C   UNL     1      -6.539  19.623  69.354  1.00  0.00    -0.383 C  
HETATM   10  C   UNL     1      -7.686  17.095  68.181  1.00  0.00    -0.204 C  
HETATM   11  C   UNL     1      -8.490  18.398  68.209  1.00  0.00    -0.321 C  
HETATM   12  C   UNL     1      -6.178  16.888  70.301  1.00  0.00     0.210 C  
HETATM   13  C   UNL     1      -9.600  18.640  67.465  1.00  0.00    -0.317 C  
HETATM   14  C   UNL     1      -8.048  19.461  69.178  1.00  0.00    -0.201 C  
ENDROOT
BRANCH   3  15
HETATM   15  C   UNL     1      -5.479  11.902  68.306  1.00  0.00    -0.043 C  
BRANCH  15  16
HETATM   16  C   UNL     1      -5.612  10.606  67.522  1.00  0.00    -0.044 C  
HETATM   17  C   UNL     1      -7.846  10.026  68.722  1.00  0.00    -0.094 C  
HETATM   18  O   UNL     1      -7.146   8.921  66.713  1.00  0.00    -0.079 OA 
HETATM   19  C   UNL     1      -7.112  10.186  67.377  1.00  0.00    -0.084 C  
HETATM   20  C   UNL     1      -7.902  11.171  66.506  1.00  0.00    -0.151 C  
HETATM   21  H   UNL     1      -8.057   8.666  66.625  1.00  0.00     0.000 HD 
ENDBRANCH  15  16
ENDBRANCH   3  15
BRANCH  13  22
HETATM   22  C   UNL     1     -10.432  17.604  66.902  1.00  0.00    -0.290 C  
HETATM   23  C   UNL     1     -11.095  15.267  66.533  1.00  0.00    -0.271 C  
HETATM   24  C   UNL     1     -10.048  14.154  66.696  1.00  0.00    -0.275 C  
HETATM   25  C   UNL     1     -10.740  16.425  67.452  1.00  0.00    -0.278 C  
HETATM   26  O   UNL     1      -8.762  14.593  66.260  1.00  0.00    -0.462 OA 
HETATM   27  C   UNL     1      -9.977  13.692  68.153  1.00  0.00    -0.246 C  
HETATM   28  H   UNL     1      -8.115  13.906  66.361  1.00  0.00     0.000 HD 
HETATM   29  C   UNL     1      -9.720  14.849  69.125  1.00  0.00    -0.184 C  
HETATM   30  C   UNL     1     -10.607  16.044  68.847  1.00  0.00    -0.257 C  
HETATM   31  C   UNL     1     -11.307  16.665  69.821  1.00  0.00     0.083 C  
ENDBRANCH  13  22
TORSDOF 3
ENDMDL
MODEL      122
REMARK 921   NORMALIZED FREE ENERGY PREDICTED BY IDOCK:   -3.22 KCAL/MOL
REMARK 922        TOTAL FREE ENERGY PREDICTED BY IDOCK:   -4.33 KCAL/MOL
REMARK 923 INTER-LIGAND FREE ENERGY PREDICTED BY IDOCK:   -3.41 KCAL/MOL
REMARK 924 INTRA-LIGAND FREE ENERGY PREDICTED BY IDOCK:   -0.92 KCAL/MOL
REMARK 927      BINDING AFFINITY PREDICTED BY RF-SCORE:    0.00 PKD
ROOT
HETATM    1  C   UNL     1     -11.554  10.832  71.019  1.00  0.00    -0.120 C  
HETATM    2  C   UNL     1     -11.339   9.835  69.856  1.00  0.00    -0.238 C  
HETATM    3  C   UNL     1     -11.812  10.616  68.550  1.00  0.00    -0.087 C  
HETATM    4  C   UNL     1     -11.973   8.378  70.080  1.00  0.00     0.435 C  
HETATM    5  C   UNL     1     -11.748   7.497  68.841  1.00  0.00     1.090 C  
HETATM    6  C   UNL     1     -11.330   7.471  71.257  1.00  0.00    -0.284 C  
HETATM    7  C   UNL     1     -10.472   6.706  69.093  1.00  0.00    -0.250 C  
HETATM    8  C   UNL     1     -12.198   6.277  71.774  1.00  0.00    -0.218 C  
HETATM    9  C   UNL     1     -11.434   5.451  72.843  1.00  0.00    -0.340 C  
HETATM   10  C   UNL     1     -10.059   6.883  70.576  1.00  0.00    -0.201 C  
HETATM   11  C   UNL     1      -9.527   5.554  71.121  1.00  0.00    -0.197 C  
HETATM   12  C   UNL     1     -11.089   8.326  72.492  1.00  0.00    -0.439 C  
HETATM   13  C   UNL     1      -8.637   4.753  70.479  1.00  0.00    -0.114 C  
HETATM   14  C   UNL     1      -9.980   5.140  72.495  1.00  0.00    -0.214 C  
ENDROOT
BRANCH   3  15
HETATM   15  C   UNL     1     -11.174  12.026  68.537  1.00  0.00    -0.306 C  
BRANCH  15  16
HETATM   16  C   UNL     1      -9.952  12.354  67.695  1.00  0.00    -0.200 C  
HETATM   17  C   UNL     1     -10.977  14.632  66.968  1.00  0.00    -0.317 C  
HETATM   18  O   UNL     1      -8.650  14.126  66.687  1.00  0.00    -0.423 OA 
HETATM   19  C   UNL     1      -9.757  13.901  67.562  1.00  0.00    -0.232 C  
HETATM   20  C   UNL     1      -9.406  14.553  68.906  1.00  0.00    -0.136 C  
HETATM   21  H   UNL     1      -8.532  15.065  66.607  1.00  0.00     0.000 HD 
ENDBRANCH  15  16
ENDBRANCH   3  15
BRANCH  13  22
HETATM   22  C   UNL     1      -7.740   5.215  69.448  1.00  0.00    -0.076 C  
HETATM   23  C   UNL     1      -6.211   4.895  67.550  1.00  0.00    -0.039 C  
HETATM   24  C   UNL     1      -5.508   3.540  67.372  1.00  0.00    -0.020 C  
HETATM   25  C   UNL     1      -7.549   4.676  68.239  1.00  0.00    -0.076 C  
HETATM   26  O   UNL     1      -5.185   2.961  68.636  1.00  0.00    -0.011 OA 
HETATM   27  C   UNL     1      -6.386   2.579  66.567  1.00  0.00    -0.024 C  
HETATM   28  H   UNL     1      -4.750   2.124  68.526  1.00  0.00     0.000 HD 
HETATM   29  C   UNL     1      -7.782   2.410  67.174  1.00  0.00    -0.066 C  
HETATM   30  C   UNL     1      -8.414   3.733  67.551  1.00  0.00    -0.103 C  
HETATM   31  C   UNL     1      -9.674   4.060  67.191  1.00  0.00    -0.207 C  
ENDBRANCH  13  22
TORSDOF 3
ENDMDL
MODEL      123
REMARK 921   NORMALIZED FREE ENERGY PREDICTED BY IDOCK:   -3.21 KCAL/MOL
REMARK 922        TOTAL FREE ENERGY PREDICTED BY IDOCK:   -4.32 KCAL/MOL
REMARK 923 INTER-LIGAND FREE ENERGY PREDICTED BY IDOCK:   -3.20 KCAL/MOL
REMARK 924 INTRA-LIGAND FREE ENERGY PREDICTED BY IDOCK:   -1.12 KCAL/MOL
REMARK 927      BINDING AFFINITY PREDICTED BY RF-SCORE:    0.00 PKD
ROOT
HETATM    1  C   UNL     1      -8.964   5.628  62.838  1.00  0.00     0.322 C  
HETATM    2  C   UNL     1      -7.916   5.910  63.940  1.00  0.00    -0.119 C  
HETATM    3  C   UNL     1      -6.855   6.887  63.261  1.00  0.00    -0.048 C  
HETATM    4  C   UNL     1      -7.319   4.608  64.665  1.00  0.00    -0.071 C  
HETATM    5  C   UNL     1      -6.250   5.007  65.694  1.00  0.00    -0.034 C  
HETATM    6  C   UNL     1      -8.344   3.736  65.566  1.00  0.00    -0.105 C  
HETATM    7  C   UNL     1      -6.958   5.123  67.036  1.00  0.00    -0.064 C  
HETATM    8  C   UNL     1      -7.911   2.270  65.895  1.00  0.00    -0.080 C  
HETATM    9  C   UNL     1      -8.944   1.576  66.823  1.00  0.00    -0.111 C  
HETATM   10  C   UNL     1      -8.387   4.537  66.901  1.00  0.00    -0.105 C  
HETATM   11  C   UNL     1      -8.743   3.758  68.171  1.00  0.00    -0.127 C  
HETATM   12  C   UNL     1      -9.669   3.585  64.837  1.00  0.00    -0.157 C  
HETATM   13  C   UNL     1      -8.538   4.204  69.437  1.00  0.00    -0.109 C  
HETATM   14  C   UNL     1      -9.426   2.428  67.996  1.00  0.00    -0.199 C  
ENDROOT
BRANCH   3  15
HETATM   15  C   UNL     1      -7.604   8.034  62.541  1.00  0.00    -0.116 C  
BRANCH  15  16
HETATM   16  C   UNL     1      -7.371   9.496  62.889  1.00  0.00    -0.103 C  
HETATM   17  C   UNL     1      -9.752   9.704  63.914  1.00  0.00     0.426 C  
HETATM   18  O   UNL     1      -8.037  11.328  64.320  1.00  0.00    -0.114 OA 
HETATM   19  C   UNL     1      -8.241   9.929  64.114  1.00  0.00    -0.159 C  
HETATM   20  C   UNL     1      -7.811   9.219  65.405  1.00  0.00    -0.100 C  
HETATM   21  H   UNL     1      -8.565  11.591  65.064  1.00  0.00     0.000 HD 
ENDBRANCH  15  16
ENDBRANCH   3  15
BRANCH  13  22
HETATM   22  C   UNL     1      -8.388   5.596  69.784  1.00  0.00    -0.107 C  
HETATM   23  C   UNL     1      -9.189   7.748  70.659  1.00  0.00    -0.161 C  
HETATM   24  C   UNL     1     -10.696   8.049  70.652  1.00  0.00    -0.228 C  
HETATM   25  C   UNL     1      -8.979   6.248  70.791  1.00  0.00    -0.144 C  
HETATM   26  O   UNL     1     -11.325   7.484  69.502  1.00  0.00    -0.457 OA 
HETATM   27  C   UNL     1     -11.357   7.514  71.925  1.00  0.00    -0.298 C  
HETATM   28  H   UNL     1     -12.256   7.669  69.498  1.00  0.00     0.000 HD 
HETATM   29  C   UNL     1     -11.084   6.023  72.148  1.00  0.00    -0.328 C  
HETATM   30  C   UNL     1      -9.626   5.667  71.954  1.00  0.00    -0.176 C  
HETATM   31  C   UNL     1      -8.937   4.932  72.854  1.00  0.00    -0.123 C  
ENDBRANCH  13  22
TORSDOF 3
ENDMDL
MODEL      124
REMARK 921   NORMALIZED FREE ENERGY PREDICTED BY IDOCK:   -3.20 KCAL/MOL
REMARK 922        TOTAL FREE ENERGY PREDICTED BY IDOCK:   -4.30 KCAL/MOL
REMARK 923 INTER-LIGAND FREE ENERGY PREDICTED BY IDOCK:   -3.53 KCAL/MOL
REMARK 924 INTRA-LIGAND FREE ENERGY PREDICTED BY IDOCK:   -0.78 KCAL/MOL
REMARK 927      BINDING AFFINITY PREDICTED BY RF-SCORE:    0.00 PKD
ROOT
HETATM    1  C   UNL     1     -11.754   6.291  70.496  1.00  0.00    -0.289 C  
HETATM    2  C   UNL     1     -10.362   6.909  70.773  1.00  0.00    -0.223 C  
HETATM    3  C   UNL     1      -9.629   5.862  71.725  1.00  0.00    -0.171 C  
HETATM    4  C   UNL     1     -10.379   8.434  71.273  1.00  0.00    -0.272 C  
HETATM    5  C   UNL     1      -8.951   8.918  71.570  1.00  0.00    -0.275 C  
HETATM    6  C   UNL     1     -10.898   9.546  70.218  1.00  0.00    -0.319 C  
HETATM    7  C   UNL     1      -8.449   9.600  70.306  1.00  0.00    -0.221 C  
HETATM    8  C   UNL     1     -11.338  10.924  70.814  1.00  0.00     0.045 C  
HETATM    9  C   UNL     1     -11.739  11.917  69.691  1.00  0.00    -0.413 C  
HETATM   10  C   UNL     1      -9.640   9.785  69.331  1.00  0.00    -0.218 C  
HETATM   11  C   UNL     1      -9.525  11.144  68.634  1.00  0.00    -0.196 C  
HETATM   12  C   UNL     1     -12.134   9.034  69.496  1.00  0.00     1.199 C  
HETATM   13  C   UNL     1      -8.387  11.638  68.083  1.00  0.00    -0.154 C  
HETATM   14  C   UNL     1     -10.783  11.959  68.500  1.00  0.00    -0.254 C  
ENDROOT
BRANCH   3  15
HETATM   15  C   UNL     1      -9.782   4.439  71.136  1.00  0.00    -0.256 C  
BRANCH  15  16
HETATM   16  C   UNL     1     -10.082   3.230  72.007  1.00  0.00    -0.178 C  
HETATM   17  C   UNL     1      -7.608   2.436  71.882  1.00  0.00    -0.044 C  
HETATM   18  O   UNL     1      -9.147   1.581  73.508  1.00  0.00    -0.064 OA 
HETATM   19  C   UNL     1      -8.809   2.768  72.789  1.00  0.00    -0.082 C  
HETATM   20  C   UNL     1      -8.362   3.808  73.825  1.00  0.00    -0.087 C  
HETATM   21  H   UNL     1      -8.374   1.301  73.983  1.00  0.00     0.000 HD 
ENDBRANCH  15  16
ENDBRANCH   3  15
BRANCH  13  22
HETATM   22  C   UNL     1      -7.272  10.820  67.671  1.00  0.00    -0.092 C  
HETATM   23  C   UNL     1      -6.227   8.709  66.972  1.00  0.00    -0.056 C  
HETATM   24  C   UNL     1      -6.891   7.377  67.358  1.00  0.00    -0.078 C  
HETATM   25  C   UNL     1      -7.298   9.779  66.832  1.00  0.00    -0.091 C  
HETATM   26  O   UNL     1      -7.499   7.464  68.646  1.00  0.00    -0.096 OA 
HETATM   27  C   UNL     1      -7.933   6.973  66.313  1.00  0.00    -0.114 C  
HETATM   28  H   UNL     1      -7.910   6.641  68.885  1.00  0.00     0.000 HD 
HETATM   29  C   UNL     1      -8.976   8.069  66.069  1.00  0.00    -0.205 C  
HETATM   30  C   UNL     1      -8.349   9.435  65.890  1.00  0.00    -0.125 C  
HETATM   31  C   UNL     1      -8.675  10.250  64.864  1.00  0.00    -0.198 C  
ENDBRANCH  13  22
TORSDOF 3
ENDMDL
MODEL      125
REMARK 921   NORMALIZED FREE ENERGY PREDICTED BY IDOCK:   -3.19 KCAL/MOL
REMARK 922        TOTAL FREE ENERGY PREDICTED BY IDOCK:   -4.29 KCAL/MOL
REMARK 923 INTER-LIGAND FREE ENERGY PREDICTED BY IDOCK:   -2.91 KCAL/MOL
REMARK 924 INTRA-LIGAND FREE ENERGY PREDICTED BY IDOCK:   -1.38 KCAL/MOL
REMARK 927      BINDING AFFINITY PREDICTED BY RF-SCORE:    0.00 PKD
ROOT
HETATM    1  C   UNL     1     -10.633   7.758  68.362  1.00  0.00    -0.157 C  
HETATM    2  C   UNL     1      -9.629   8.932  68.271  1.00  0.00    -0.159 C  
HETATM    3  C   UNL     1      -8.216   8.247  68.003  1.00  0.00    -0.128 C  
HETATM    4  C   UNL     1      -9.691   9.979  69.486  1.00  0.00    -0.253 C  
HETATM    5  C   UNL     1      -8.615  11.063  69.317  1.00  0.00     0.072 C  
HETATM    6  C   UNL     1     -11.040  10.864  69.623  1.00  0.00    -0.328 C  
HETATM    7  C   UNL     1      -9.279  12.232  68.605  1.00  0.00    -0.005 C  
HETATM    8  C   UNL     1     -11.297  11.535  71.012  1.00  0.00     1.277 C  
HETATM    9  C   UNL     1     -12.579  12.411  70.982  1.00  0.00    -0.349 C  
HETATM   10  C   UNL     1     -10.811  11.995  68.577  1.00  0.00    -0.267 C  
HETATM   11  C   UNL     1     -11.539  13.322  68.814  1.00  0.00    -0.350 C  
HETATM   12  C   UNL     1     -12.259   9.984  69.397  1.00  0.00     0.380 C  
HETATM   13  C   UNL     1     -11.234  14.493  68.197  1.00  0.00    -0.301 C  
HETATM   14  C   UNL     1     -12.715  13.307  69.753  1.00  0.00     0.262 C  
ENDROOT
BRANCH   3  15
HETATM   15  C   UNL     1      -8.358   7.211  66.861  1.00  0.00    -0.118 C  
BRANCH  15  16
HETATM   16  C   UNL     1      -7.790   5.805  66.968  1.00  0.00    -0.102 C  
HETATM   17  C   UNL     1     -10.019   4.764  66.125  1.00  0.00    -0.261 C  
HETATM   18  O   UNL     1      -7.968   3.525  66.183  1.00  0.00    -0.091 OA 
HETATM   19  C   UNL     1      -8.489   4.837  65.959  1.00  0.00    -0.116 C  
HETATM   20  C   UNL     1      -8.175   5.200  64.502  1.00  0.00    -0.133 C  
HETATM   21  H   UNL     1      -8.393   2.937  65.570  1.00  0.00     0.000 HD 
ENDBRANCH  15  16
ENDBRANCH   3  15
BRANCH  13  22
HETATM   22  C   UNL     1     -10.522  14.581  66.945  1.00  0.00    -0.269 C  
HETATM   23  C   UNL     1      -9.864  13.769  64.721  1.00  0.00     0.044 C  
HETATM   24  C   UNL     1      -9.950  12.266  64.415  1.00  0.00    -0.205 C  
HETATM   25  C   UNL     1     -10.922  14.130  65.752  1.00  0.00    -0.301 C  
HETATM   26  O   UNL     1      -9.625  11.490  65.568  1.00  0.00    -0.222 OA 
HETATM   27  C   UNL     1     -11.348  11.897  63.914  1.00  0.00    -0.509 C  
HETATM   28  H   UNL     1      -9.677  10.560  65.378  1.00  0.00     0.000 HD 
HETATM   29  C   UNL     1     -12.453  12.335  64.880  1.00  0.00    -0.327 C  
HETATM   30  C   UNL     1     -12.271  13.760  65.360  1.00  0.00    -0.465 C  
HETATM   31  C   UNL     1     -13.275  14.663  65.338  1.00  0.00     0.467 C  
ENDBRANCH  13  22
TORSDOF 3
ENDMDL
MODEL      126
REMARK 921   NORMALIZED FREE ENERGY PREDICTED BY IDOCK:   -3.16 KCAL/MOL
REMARK 922        TOTAL FREE ENERGY PREDICTED BY IDOCK:   -4.25 KCAL/MOL
REMARK 923 INTER-LIGAND FREE ENERGY PREDICTED BY IDOCK:   -3.80 KCAL/MOL
REMARK 924 INTRA-LIGAND FREE ENERGY PREDICTED BY IDOCK:   -0.46 KCAL/MOL
REMARK 927      BINDING AFFINITY PREDICTED BY RF-SCORE:    0.00 PKD
ROOT
HETATM    1  C   UNL     1      -5.565  11.912  67.521  1.00  0.00    -0.096 C  
HETATM    2  C   UNL     1      -7.079  11.826  67.828  1.00  0.00    -0.096 C  
HETATM    3  C   UNL     1      -7.460  10.295  67.599  1.00  0.00    -0.089 C  
HETATM    4  C   UNL     1      -7.992  12.906  67.070  1.00  0.00    -0.031 C  
HETATM    5  C   UNL     1      -9.476  12.687  67.406  1.00  0.00    -0.189 C  
HETATM    6  C   UNL     1      -7.782  14.459  67.477  1.00  0.00    -0.210 C  
HETATM    7  C   UNL     1      -9.799  13.605  68.576  1.00  0.00    -0.196 C  
HETATM    8  C   UNL     1      -8.314  15.525  66.464  1.00  0.00    -0.234 C  
HETATM    9  C   UNL     1      -8.116  16.965  67.011  1.00  0.00    -0.228 C  
HETATM   10  C   UNL     1      -8.614  14.582  68.787  1.00  0.00    -0.145 C  
HETATM   11  C   UNL     1      -9.153  15.971  69.144  1.00  0.00    -0.246 C  
HETATM   12  C   UNL     1      -6.297  14.762  67.600  1.00  0.00    -0.139 C  
HETATM   13  C   UNL     1     -10.128  16.212  70.058  1.00  0.00     0.031 C  
HETATM   14  C   UNL     1      -8.508  17.154  68.475  1.00  0.00    -0.262 C  
ENDROOT
BRANCH   3  15
HETATM   15  C   UNL     1      -6.433   9.397  68.329  1.00  0.00    -0.054 C  
BRANCH  15  16
HETATM   16  C   UNL     1      -5.625   8.335  67.601  1.00  0.00    -0.039 C  
HETATM   17  C   UNL     1      -7.000   6.427  68.712  1.00  0.00    -0.080 C  
HETATM   18  O   UNL     1      -5.610   6.054  66.795  1.00  0.00    -0.012 OA 
HETATM   19  C   UNL     1      -6.463   7.029  67.399  1.00  0.00    -0.054 C  
HETATM   20  C   UNL     1      -7.644   7.245  66.444  1.00  0.00    -0.092 C  
HETATM   21  H   UNL     1      -6.119   5.262  66.672  1.00  0.00     0.000 HD 
ENDBRANCH  15  16
ENDBRANCH   3  15
BRANCH  13  22
HETATM   22  C   UNL     1     -10.476  15.302  71.122  1.00  0.00     0.372 C  
HETATM   23  C   UNL     1     -11.997  14.354  72.803  1.00  0.00     0.115 C  
HETATM   24  C   UNL     1     -13.155  15.213  73.338  1.00  0.00    -0.464 C  
HETATM   25  C   UNL     1     -11.679  14.777  71.378  1.00  0.00    -0.352 C  
HETATM   26  O   UNL     1     -12.773  16.584  73.434  1.00  0.00    -0.385 OA 
HETATM   27  C   UNL     1     -14.386  15.074  72.440  1.00  0.00    -0.430 C  
HETATM   28  H   UNL     1     -13.488  17.115  73.764  1.00  0.00     0.000 HD 
HETATM   29  C   UNL     1     -14.083  15.395  70.973  1.00  0.00    -0.242 C  
HETATM   30  C   UNL     1     -12.820  14.718  70.482  1.00  0.00    -0.374 C  
HETATM   31  C   UNL     1     -12.779  14.020  69.326  1.00  0.00     0.424 C  
ENDBRANCH  13  22
TORSDOF 3
ENDMDL
MODEL      127
REMARK 921   NORMALIZED FREE ENERGY PREDICTED BY IDOCK:   -3.10 KCAL/MOL
REMARK 922        TOTAL FREE ENERGY PREDICTED BY IDOCK:   -4.19 KCAL/MOL
REMARK 923 INTER-LIGAND FREE ENERGY PREDICTED BY IDOCK:   -2.74 KCAL/MOL
REMARK 924 INTRA-LIGAND FREE ENERGY PREDICTED BY IDOCK:   -1.45 KCAL/MOL
REMARK 927      BINDING AFFINITY PREDICTED BY RF-SCORE:    0.00 PKD
ROOT
HETATM    1  C   UNL     1      -8.798   7.052  70.869  1.00  0.00    -0.148 C  
HETATM    2  C   UNL     1      -7.505   6.906  70.033  1.00  0.00    -0.093 C  
HETATM    3  C   UNL     1      -6.395   6.427  71.071  1.00  0.00    -0.048 C  
HETATM    4  C   UNL     1      -7.130   8.178  69.128  1.00  0.00    -0.061 C  
HETATM    5  C   UNL     1      -5.801   7.941  68.392  1.00  0.00    -0.036 C  
HETATM    6  C   UNL     1      -8.132   8.530  67.907  1.00  0.00    -0.115 C  
HETATM    7  C   UNL     1      -6.155   7.384  67.021  1.00  0.00    -0.046 C  
HETATM    8  C   UNL     1      -8.037   9.977  67.320  1.00  0.00    -0.114 C  
HETATM    9  C   UNL     1      -8.995  10.154  66.111  1.00  0.00    -0.171 C  
HETATM   10  C   UNL     1      -7.682   7.531  66.800  1.00  0.00    -0.102 C  
HETATM   11  C   UNL     1      -7.953   7.931  65.346  1.00  0.00    -0.123 C  
HETATM   12  C   UNL     1      -9.574   8.404  68.372  1.00  0.00    -0.157 C  
HETATM   13  C   UNL     1      -7.376   7.350  64.263  1.00  0.00    -0.090 C  
HETATM   14  C   UNL     1      -8.980   9.004  65.106  1.00  0.00    -0.216 C  
ENDROOT
BRANCH   3  15
HETATM   15  C   UNL     1      -6.952   5.254  71.912  1.00  0.00    -0.070 C  
BRANCH  15  16
HETATM   16  C   UNL     1      -7.293   3.907  71.297  1.00  0.00    -0.040 C  
HETATM   17  C   UNL     1      -6.954   2.701  73.577  1.00  0.00    -0.028 C  
HETATM   18  O   UNL     1      -8.090   1.666  71.737  1.00  0.00    -0.040 OA 
HETATM   19  C   UNL     1      -7.882   2.931  72.369  1.00  0.00    -0.055 C  
HETATM   20  C   UNL     1      -9.247   3.402  72.887  1.00  0.00    -0.122 C  
HETATM   21  H   UNL     1      -8.448   1.074  72.388  1.00  0.00     0.000 HD 
ENDBRANCH  15  16
ENDBRANCH   3  15
BRANCH  13  22
HETATM   22  C   UNL     1      -6.800   6.028  64.271  1.00  0.00    -0.046 C  
HETATM   23  C   UNL     1      -6.807   3.622  64.774  1.00  0.00    -0.049 C  
HETATM   24  C   UNL     1      -7.705   3.094  65.904  1.00  0.00    -0.081 C  
HETATM   25  C   UNL     1      -7.445   4.861  64.167  1.00  0.00    -0.064 C  
HETATM   26  O   UNL     1      -7.786   4.033  66.975  1.00  0.00    -0.083 OA 
HETATM   27  C   UNL     1      -9.107   2.782  65.375  1.00  0.00    -0.145 C  
HETATM   28  H   UNL     1      -8.341   3.706  67.673  1.00  0.00     0.000 HD 
HETATM   29  C   UNL     1      -9.747   3.979  64.664  1.00  0.00    -0.185 C  
HETATM   30  C   UNL     1      -8.800   4.647  63.690  1.00  0.00    -0.129 C  
HETATM   31  C   UNL     1      -9.160   4.942  62.422  1.00  0.00    -0.082 C  
ENDBRANCH  13  22
TORSDOF 3
ENDMDL
MODEL      128
REMARK 921   NORMALIZED FREE ENERGY PREDICTED BY IDOCK:   -3.10 KCAL/MOL
REMARK 922        TOTAL FREE ENERGY PREDICTED BY IDOCK:   -4.18 KCAL/MOL
REMARK 923 INTER-LIGAND FREE ENERGY PREDICTED BY IDOCK:   -3.09 KCAL/MOL
REMARK 924 INTRA-LIGAND FREE ENERGY PREDICTED BY IDOCK:   -1.10 KCAL/MOL
REMARK 927      BINDING AFFINITY PREDICTED BY RF-SCORE:    0.00 PKD
ROOT
HETATM    1  C   UNL     1     -12.352  11.287  70.236  1.00  0.00    -0.389 C  
HETATM    2  C   UNL     1     -11.055  11.427  69.405  1.00  0.00    -0.301 C  
HETATM    3  C   UNL     1     -10.313  10.025  69.559  1.00  0.00    -0.256 C  
HETATM    4  C   UNL     1     -10.177  12.733  69.724  1.00  0.00     1.360 C  
HETATM    5  C   UNL     1      -8.890  12.734  68.884  1.00  0.00     0.333 C  
HETATM    6  C   UNL     1     -10.828  14.165  69.341  1.00  0.00    -0.169 C  
HETATM    7  C   UNL     1      -9.186  13.545  67.631  1.00  0.00    -0.214 C  
HETATM    8  C   UNL     1     -10.209  15.422  70.036  1.00  0.00    -0.265 C  
HETATM    9  C   UNL     1     -10.874  16.729  69.525  1.00  0.00    -0.225 C  
HETATM   10  C   UNL     1     -10.544  14.270  67.814  1.00  0.00    -0.253 C  
HETATM   11  C   UNL     1     -10.458  15.676  67.214  1.00  0.00    -0.292 C  
HETATM   12  C   UNL     1     -12.293  14.190  69.750  1.00  0.00    -0.350 C  
HETATM   13  C   UNL     1      -9.931  15.969  65.998  1.00  0.00    -0.365 C  
HETATM   14  C   UNL     1     -11.060  16.803  68.010  1.00  0.00    -0.220 C  
ENDROOT
BRANCH   3  15
HETATM   15  C   UNL     1     -11.322   8.881  69.300  1.00  0.00     0.325 C  
BRANCH  15  16
HETATM   16  C   UNL     1     -11.043   7.445  69.714  1.00  0.00    -0.169 C  
HETATM   17  C   UNL     1     -11.187   6.632  67.247  1.00  0.00    -0.304 C  
HETATM   18  O   UNL     1     -10.221   5.291  68.984  1.00  0.00    -0.203 OA 
HETATM   19  C   UNL     1     -10.367   6.645  68.552  1.00  0.00    -0.192 C  
HETATM   20  C   UNL     1      -8.959   7.168  68.236  1.00  0.00    -0.125 C  
HETATM   21  H   UNL     1      -9.811   4.805  68.279  1.00  0.00     0.000 HD 
ENDBRANCH  15  16
ENDBRANCH   3  15
BRANCH  13  22
HETATM   22  C   UNL     1      -9.793  15.011  64.929  1.00  0.00     0.097 C  
HETATM   23  C   UNL     1     -10.402  12.965  63.711  1.00  0.00    -0.143 C  
HETATM   24  C   UNL     1     -11.120  11.830  64.459  1.00  0.00    -0.315 C  
HETATM   25  C   UNL     1     -10.765  14.295  64.353  1.00  0.00    -0.117 C  
HETATM   26  O   UNL     1     -10.656  11.731  65.804  1.00  0.00    -0.251 OA 
HETATM   27  C   UNL     1     -12.635  12.049  64.443  1.00  0.00    -0.292 C  
HETATM   28  H   UNL     1     -11.099  11.030  66.267  1.00  0.00     0.000 HD 
HETATM   29  C   UNL     1     -13.036  13.423  64.991  1.00  0.00    -0.220 C  
HETATM   30  C   UNL     1     -12.194  14.543  64.417  1.00  0.00    -0.480 C  
HETATM   31  C   UNL     1     -12.741  15.668  63.906  1.00  0.00     0.910 C  
ENDBRANCH  13  22
TORSDOF 3
ENDMDL
MODEL      129
REMARK 921   NORMALIZED FREE ENERGY PREDICTED BY IDOCK:   -3.10 KCAL/MOL
REMARK 922        TOTAL FREE ENERGY PREDICTED BY IDOCK:   -4.18 KCAL/MOL
REMARK 923 INTER-LIGAND FREE ENERGY PREDICTED BY IDOCK:   -3.15 KCAL/MOL
REMARK 924 INTRA-LIGAND FREE ENERGY PREDICTED BY IDOCK:   -1.03 KCAL/MOL
REMARK 927      BINDING AFFINITY PREDICTED BY RF-SCORE:    0.00 PKD
ROOT
HETATM    1  C   UNL     1      -8.418   6.592  72.507  1.00  0.00    -0.121 C  
HETATM    2  C   UNL     1      -7.414   6.451  71.338  1.00  0.00    -0.089 C  
HETATM    3  C   UNL     1      -5.991   6.282  72.036  1.00  0.00    -0.037 C  
HETATM    4  C   UNL     1      -7.520   7.585  70.207  1.00  0.00    -0.085 C  
HETATM    5  C   UNL     1      -6.440   7.376  69.134  1.00  0.00    -0.040 C  
HETATM    6  C   UNL     1      -8.874   7.611  69.320  1.00  0.00    -0.136 C  
HETATM    7  C   UNL     1      -7.081   6.559  68.022  1.00  0.00    -0.086 C  
HETATM    8  C   UNL     1      -9.181   8.939  68.552  1.00  0.00    -0.137 C  
HETATM    9  C   UNL     1     -10.462   8.802  67.687  1.00  0.00    -0.310 C  
HETATM   10  C   UNL     1      -8.611   6.496  68.266  1.00  0.00    -0.115 C  
HETATM   11  C   UNL     1      -9.348   6.611  66.928  1.00  0.00    -0.171 C  
HETATM   12  C   UNL     1     -10.082   7.406  70.220  1.00  0.00    -0.197 C  
HETATM   13  C   UNL     1      -9.024   5.923  65.804  1.00  0.00    -0.131 C  
HETATM   14  C   UNL     1     -10.556   7.507  66.882  1.00  0.00    -0.367 C  
ENDROOT
BRANCH   3  15
HETATM   15  C   UNL     1      -6.091   5.214  73.151  1.00  0.00    -0.038 C  
BRANCH  15  16
HETATM   16  C   UNL     1      -5.387   3.870  73.051  1.00  0.00     0.000 C  
HETATM   17  C   UNL     1      -7.635   2.592  73.333  1.00  0.00    -0.046 C  
HETATM   18  O   UNL     1      -5.648   1.525  72.521  1.00  0.00    -0.003 OA 
HETATM   19  C   UNL     1      -6.351   2.769  72.499  1.00  0.00    -0.014 C  
HETATM   20  C   UNL     1      -6.751   3.031  71.041  1.00  0.00    -0.032 C  
HETATM   21  H   UNL     1      -6.233   0.856  72.186  1.00  0.00     0.000 HD 
ENDBRANCH  15  16
ENDBRANCH   3  15
BRANCH  13  22
HETATM   22  C   UNL     1      -8.269   4.694  65.802  1.00  0.00    -0.111 C  
HETATM   23  C   UNL     1      -7.715   2.447  64.974  1.00  0.00    -0.077 C  
HETATM   24  C   UNL     1      -8.788   1.634  64.233  1.00  0.00    -0.095 C  
HETATM   25  C   UNL     1      -7.967   3.930  64.747  1.00  0.00    -0.089 C  
HETATM   26  O   UNL     1     -10.083   1.878  64.779  1.00  0.00    -0.329 OA 
HETATM   27  C   UNL     1      -8.779   1.967  62.739  1.00  0.00    -0.077 C  
HETATM   28  H   UNL     1     -10.746   1.376  64.321  1.00  0.00     0.000 HD 
HETATM   29  C   UNL     1      -8.929   3.468  62.471  1.00  0.00    -0.089 C  
HETATM   30  C   UNL     1      -8.021   4.306  63.346  1.00  0.00    -0.084 C  
HETATM   31  C   UNL     1      -7.236   5.284  62.844  1.00  0.00    -0.043 C  
ENDBRANCH  13  22
TORSDOF 3
ENDMDL
MODEL      130
REMARK 921   NORMALIZED FREE ENERGY PREDICTED BY IDOCK:   -3.05 KCAL/MOL
REMARK 922        TOTAL FREE ENERGY PREDICTED BY IDOCK:   -4.13 KCAL/MOL
REMARK 923 INTER-LIGAND FREE ENERGY PREDICTED BY IDOCK:   -4.15 KCAL/MOL
REMARK 924 INTRA-LIGAND FREE ENERGY PREDICTED BY IDOCK:    0.02 KCAL/MOL
REMARK 927      BINDING AFFINITY PREDICTED BY RF-SCORE:    0.00 PKD
ROOT
HETATM    1  C   UNL     1     -11.291  11.444  69.708  1.00  0.00    -0.332 C  
HETATM    2  C   UNL     1     -10.554  11.269  68.359  1.00  0.00    -0.226 C  
HETATM    3  C   UNL     1     -10.722  12.667  67.613  1.00  0.00    -0.239 C  
HETATM    4  C   UNL     1     -10.963   9.963  67.521  1.00  0.00    -0.239 C  
HETATM    5  C   UNL     1     -10.213   9.927  66.180  1.00  0.00    -0.277 C  
HETATM    6  C   UNL     1     -10.574   8.529  68.163  1.00  0.00    -0.181 C  
HETATM    7  C   UNL     1      -8.963   9.087  66.402  1.00  0.00    -0.189 C  
HETATM    8  C   UNL     1     -11.340   7.283  67.607  1.00  0.00     0.304 C  
HETATM    9  C   UNL     1     -10.818   5.971  68.252  1.00  0.00    -0.366 C  
HETATM   10  C   UNL     1      -9.072   8.381  67.778  1.00  0.00    -0.142 C  
HETATM   11  C   UNL     1      -8.515   6.959  67.669  1.00  0.00    -0.122 C  
HETATM   12  C   UNL     1     -10.883   8.530  69.651  1.00  0.00    -0.157 C  
HETATM   13  C   UNL     1      -7.345   6.629  67.064  1.00  0.00    -0.082 C  
HETATM   14  C   UNL     1      -9.297   5.859  68.336  1.00  0.00    -0.124 C  
ENDROOT
BRANCH   3  15
HETATM   15  C   UNL     1     -10.366  13.815  68.588  1.00  0.00    -0.225 C  
BRANCH  15  16
HETATM   16  C   UNL     1      -9.249  14.805  68.300  1.00  0.00    -0.187 C  
HETATM   17  C   UNL     1     -10.822  16.260  66.826  1.00  0.00    -0.125 C  
HETATM   18  O   UNL     1      -8.724  17.074  67.650  1.00  0.00    -0.211 OA 
HETATM   19  C   UNL     1      -9.822  16.229  67.998  1.00  0.00    -0.236 C  
HETATM   20  C   UNL     1     -10.495  16.852  69.228  1.00  0.00    -0.319 C  
HETATM   21  H   UNL     1      -9.072  17.939  67.467  1.00  0.00     0.000 HD 
ENDBRANCH  15  16
ENDBRANCH   3  15
BRANCH  13  22
HETATM   22  C   UNL     1      -6.264   7.558  66.844  1.00  0.00    -0.048 C  
HETATM   23  C   UNL     1      -5.142   9.731  67.083  1.00  0.00    -0.034 C  
HETATM   24  C   UNL     1      -5.983  10.984  67.375  1.00  0.00    -0.049 C  
HETATM   25  C   UNL     1      -5.836   8.514  67.675  1.00  0.00    -0.043 C  
HETATM   26  O   UNL     1      -7.245  10.917  66.712  1.00  0.00    -0.118 OA 
HETATM   27  C   UNL     1      -6.192  11.153  68.882  1.00  0.00    -0.047 C  
HETATM   28  H   UNL     1      -7.765  11.691  66.892  1.00  0.00     0.000 HD 
HETATM   29  C   UNL     1      -6.798   9.906  69.534  1.00  0.00    -0.065 C  
HETATM   30  C   UNL     1      -6.111   8.631  69.096  1.00  0.00    -0.043 C  
HETATM   31  C   UNL     1      -5.691   7.698  69.978  1.00  0.00    -0.023 C  
ENDBRANCH  13  22
TORSDOF 3
ENDMDL
MODEL      131
REMARK 921   NORMALIZED FREE ENERGY PREDICTED BY IDOCK:   -3.00 KCAL/MOL
REMARK 922        TOTAL FREE ENERGY PREDICTED BY IDOCK:   -4.07 KCAL/MOL
REMARK 923 INTER-LIGAND FREE ENERGY PREDICTED BY IDOCK:   -3.13 KCAL/MOL
REMARK 924 INTRA-LIGAND FREE ENERGY PREDICTED BY IDOCK:   -0.94 KCAL/MOL
REMARK 927      BINDING AFFINITY PREDICTED BY RF-SCORE:    0.00 PKD
ROOT
HETATM    1  C   UNL     1      -6.853  12.516  67.434  1.00  0.00    -0.145 C  
HETATM    2  C   UNL     1      -7.992  11.599  66.927  1.00  0.00    -0.161 C  
HETATM    3  C   UNL     1      -7.448  10.982  65.562  1.00  0.00     0.196 C  
HETATM    4  C   UNL     1      -9.443  12.283  66.868  1.00  0.00    -0.217 C  
HETATM    5  C   UNL     1     -10.478  11.300  66.297  1.00  0.00    -0.308 C  
HETATM    6  C   UNL     1     -10.117  12.695  68.281  1.00  0.00    -0.233 C  
HETATM    7  C   UNL     1     -11.127  10.608  67.486  1.00  0.00    -0.367 C  
HETATM    8  C   UNL     1     -11.283  13.736  68.222  1.00  0.00    -0.301 C  
HETATM    9  C   UNL     1     -11.885  13.983  69.632  1.00  0.00    -0.386 C  
HETATM   10  C   UNL     1     -10.705  11.343  68.784  1.00  0.00    -0.240 C  
HETATM   11  C   UNL     1     -11.897  11.413  69.743  1.00  0.00    -0.435 C  
HETATM   12  C   UNL     1      -9.075  13.343  69.179  1.00  0.00     0.586 C  
HETATM   13  C   UNL     1     -12.715  10.371  70.040  1.00  0.00    -0.071 C  
HETATM   14  C   UNL     1     -12.136  12.720  70.452  1.00  0.00    -0.382 C  
ENDROOT
BRANCH   3  15
HETATM   15  C   UNL     1      -6.013  10.446  65.779  1.00  0.00    -0.117 C  
BRANCH  15  16
HETATM   16  C   UNL     1      -5.631   9.623  66.999  1.00  0.00    -0.047 C  
HETATM   17  C   UNL     1      -7.478   7.866  66.480  1.00  0.00    -0.088 C  
HETATM   18  O   UNL     1      -5.687   7.428  68.012  1.00  0.00    -0.025 OA 
HETATM   19  C   UNL     1      -5.990   8.114  66.796  1.00  0.00    -0.052 C  
HETATM   20  C   UNL     1      -5.144   7.465  65.693  1.00  0.00    -0.025 C  
HETATM   21  H   UNL     1      -5.905   6.512  67.888  1.00  0.00     0.000 HD 
ENDBRANCH  15  16
ENDBRANCH   3  15
BRANCH  13  22
HETATM   22  C   UNL     1     -12.346   8.987  69.875  1.00  0.00     1.000 C  
HETATM   23  C   UNL     1     -11.018   6.983  70.385  1.00  0.00    -0.301 C  
HETATM   24  C   UNL     1      -9.619   7.145  70.999  1.00  0.00    -0.158 C  
HETATM   25  C   UNL     1     -11.891   8.152  70.814  1.00  0.00    -0.167 C  
HETATM   26  O   UNL     1      -8.965   8.305  70.484  1.00  0.00    -0.141 OA 
HETATM   27  C   UNL     1      -9.707   7.229  72.525  1.00  0.00    -0.189 C  
HETATM   28  H   UNL     1      -8.101   8.405  70.864  1.00  0.00     0.000 HD 
HETATM   29  C   UNL     1     -10.658   8.332  72.999  1.00  0.00    -0.072 C  
HETATM   30  C   UNL     1     -11.977   8.319  72.255  1.00  0.00    -0.448 C  
HETATM   31  C   UNL     1     -13.166   8.365  72.893  1.00  0.00     0.159 C  
ENDBRANCH  13  22
TORSDOF 3
ENDMDL
MODEL      132
REMARK 921   NORMALIZED FREE ENERGY PREDICTED BY IDOCK:   -2.90 KCAL/MOL
REMARK 922        TOTAL FREE ENERGY PREDICTED BY IDOCK:   -3.95 KCAL/MOL
REMARK 923 INTER-LIGAND FREE ENERGY PREDICTED BY IDOCK:   -3.79 KCAL/MOL
REMARK 924 INTRA-LIGAND FREE ENERGY PREDICTED BY IDOCK:   -0.17 KCAL/MOL
REMARK 927      BINDING AFFINITY PREDICTED BY RF-SCORE:    0.00 PKD
ROOT
HETATM    1  C   UNL     1      -9.530   8.430  72.357  1.00  0.00    -0.365 C  
HETATM    2  C   UNL     1      -8.735   7.245  71.758  1.00  0.00    -0.123 C  
HETATM    3  C   UNL     1      -9.062   6.008  72.708  1.00  0.00    -0.129 C  
HETATM    4  C   UNL     1      -7.182   7.537  71.480  1.00  0.00    -0.070 C  
HETATM    5  C   UNL     1      -6.486   6.276  70.944  1.00  0.00    -0.048 C  
HETATM    6  C   UNL     1      -6.833   8.626  70.334  1.00  0.00    -0.042 C  
HETATM    7  C   UNL     1      -6.518   6.371  69.425  1.00  0.00    -0.040 C  
HETATM    8  C   UNL     1      -5.394   9.236  70.364  1.00  0.00    -0.031 C  
HETATM    9  C   UNL     1      -5.171  10.204  69.170  1.00  0.00    -0.035 C  
HETATM   10  C   UNL     1      -6.977   7.796  69.023  1.00  0.00    -0.069 C  
HETATM   11  C   UNL     1      -6.176   8.268  67.807  1.00  0.00    -0.052 C  
HETATM   12  C   UNL     1      -7.757   9.826  70.467  1.00  0.00    -0.094 C  
HETATM   13  C   UNL     1      -5.940   7.522  66.697  1.00  0.00    -0.040 C  
HETATM   14  C   UNL     1      -5.668   9.685  67.822  1.00  0.00    -0.040 C  
ENDROOT
BRANCH   3  15
HETATM   15  C   UNL     1     -10.590   5.926  72.935  1.00  0.00    -0.265 C  
BRANCH  15  16
HETATM   16  C   UNL     1     -11.335   4.601  72.960  1.00  0.00    -0.287 C  
HETATM   17  C   UNL     1      -9.345   3.380  71.813  1.00  0.00    -0.200 C  
HETATM   18  O   UNL     1     -11.111   2.194  72.920  1.00  0.00    -0.112 OA 
HETATM   19  C   UNL     1     -10.340   3.395  72.990  1.00  0.00    -0.165 C  
HETATM   20  C   UNL     1      -9.543   3.340  74.300  1.00  0.00    -0.126 C  
HETATM   21  H   UNL     1     -10.506   1.462  72.938  1.00  0.00     0.000 HD 
ENDBRANCH  15  16
ENDBRANCH   3  15
BRANCH  13  22
HETATM   22  C   UNL     1      -6.747   6.394  66.300  1.00  0.00    -0.056 C  
HETATM   23  C   UNL     1      -8.817   5.072  66.257  1.00  0.00    -0.118 C  
HETATM   24  C   UNL     1      -9.833   5.227  67.401  1.00  0.00    -0.160 C  
HETATM   25  C   UNL     1      -8.065   6.380  66.076  1.00  0.00    -0.120 C  
HETATM   26  O   UNL     1      -9.171   5.450  68.645  1.00  0.00    -0.113 OA 
HETATM   27  C   UNL     1     -10.800   6.377  67.109  1.00  0.00    -0.467 C  
HETATM   28  H   UNL     1      -9.798   5.546  69.352  1.00  0.00     0.000 HD 
HETATM   29  C   UNL     1     -10.074   7.696  66.821  1.00  0.00    -0.325 C  
HETATM   30  C   UNL     1      -8.929   7.525  65.846  1.00  0.00    -0.128 C  
HETATM   31  C   UNL     1      -8.770   8.328  64.772  1.00  0.00     0.034 C  
ENDBRANCH  13  22
TORSDOF 3
ENDMDL
MODEL      133
REMARK 921   NORMALIZED FREE ENERGY PREDICTED BY IDOCK:   -2.86 KCAL/MOL
REMARK 922        TOTAL FREE ENERGY PREDICTED BY IDOCK:   -3.90 KCAL/MOL
REMARK 923 INTER-LIGAND FREE ENERGY PREDICTED BY IDOCK:   -3.17 KCAL/MOL
REMARK 924 INTRA-LIGAND FREE ENERGY PREDICTED BY IDOCK:   -0.74 KCAL/MOL
REMARK 927      BINDING AFFINITY PREDICTED BY RF-SCORE:    0.00 PKD
ROOT
HETATM    1  C   UNL     1      -8.164   6.709  72.746  1.00  0.00    -0.108 C  
HETATM    2  C   UNL     1      -7.321   6.694  71.449  1.00  0.00    -0.083 C  
HETATM    3  C   UNL     1      -5.894   6.138  71.892  1.00  0.00    -0.032 C  
HETATM    4  C   UNL     1      -7.322   8.068  70.619  1.00  0.00    -0.056 C  
HETATM    5  C   UNL     1      -6.407   7.953  69.389  1.00  0.00    -0.035 C  
HETATM    6  C   UNL     1      -8.726   8.521  69.953  1.00  0.00    -0.132 C  
HETATM    7  C   UNL     1      -7.294   7.539  68.223  1.00  0.00    -0.096 C  
HETATM    8  C   UNL     1      -8.852  10.025  69.543  1.00  0.00    -0.209 C  
HETATM    9  C   UNL     1     -10.213  10.305  68.852  1.00  0.00    -0.220 C  
HETATM   10  C   UNL     1      -8.777   7.663  68.654  1.00  0.00    -0.128 C  
HETATM   11  C   UNL     1      -9.605   8.210  67.488  1.00  0.00    -0.196 C  
HETATM   12  C   UNL     1      -9.859   8.301  70.942  1.00  0.00    -0.215 C  
HETATM   13  C   UNL     1      -9.525   7.769  66.206  1.00  0.00    -0.201 C  
HETATM   14  C   UNL     1     -10.624   9.272  67.804  1.00  0.00    -0.307 C  
ENDROOT
BRANCH   3  15
HETATM   15  C   UNL     1      -6.084   4.864  72.749  1.00  0.00    -0.029 C  
BRANCH  15  16
HETATM   16  C   UNL     1      -5.800   3.473  72.206  1.00  0.00    -0.009 C  
HETATM   17  C   UNL     1      -8.313   2.821  72.366  1.00  0.00    -0.066 C  
HETATM   18  O   UNL     1      -6.739   1.549  71.081  1.00  0.00    -0.023 OA 
HETATM   19  C   UNL     1      -7.055   2.885  71.479  1.00  0.00    -0.032 C  
HETATM   20  C   UNL     1      -7.398   3.664  70.203  1.00  0.00    -0.041 C  
HETATM   21  H   UNL     1      -7.501   1.193  70.640  1.00  0.00     0.000 HD 
ENDBRANCH  15  16
ENDBRANCH   3  15
BRANCH  13  22
HETATM   22  C   UNL     1      -9.016   6.472  65.833  1.00  0.00    -0.103 C  
HETATM   23  C   UNL     1      -7.957   4.880  64.289  1.00  0.00    -0.108 C  
HETATM   24  C   UNL     1      -8.024   5.142  62.776  1.00  0.00    -0.084 C  
HETATM   25  C   UNL     1      -7.981   6.209  65.028  1.00  0.00    -0.123 C  
HETATM   26  O   UNL     1      -9.267   5.744  62.416  1.00  0.00    -0.345 OA 
HETATM   27  C   UNL     1      -6.862   6.035  62.333  1.00  0.00    -0.040 C  
HETATM   28  H   UNL     1      -9.308   5.906  61.482  1.00  0.00     0.000 HD 
HETATM   29  C   UNL     1      -6.791   7.344  63.126  1.00  0.00    -0.058 C  
HETATM   30  C   UNL     1      -6.932   7.126  64.617  1.00  0.00    -0.051 C  
HETATM   31  C   UNL     1      -6.079   7.672  65.510  1.00  0.00    -0.038 C  
ENDBRANCH  13  22
TORSDOF 3
ENDMDL
MODEL      134
REMARK 921   NORMALIZED FREE ENERGY PREDICTED BY IDOCK:   -2.48 KCAL/MOL
REMARK 922        TOTAL FREE ENERGY PREDICTED BY IDOCK:   -3.46 KCAL/MOL
REMARK 923 INTER-LIGAND FREE ENERGY PREDICTED BY IDOCK:   -2.30 KCAL/MOL
REMARK 924 INTRA-LIGAND FREE ENERGY PREDICTED BY IDOCK:   -1.15 KCAL/MOL
REMARK 927      BINDING AFFINITY PREDICTED BY RF-SCORE:    0.00 PKD
ROOT
HETATM    1  C   UNL     1     -12.242  13.361  67.933  1.00  0.00    -0.149 C  
HETATM    2  C   UNL     1     -11.668  14.094  69.168  1.00  0.00    -0.368 C  
HETATM    3  C   UNL     1     -12.230  13.290  70.424  1.00  0.00    -0.404 C  
HETATM    4  C   UNL     1     -11.893  15.684  69.184  1.00  0.00    -0.378 C  
HETATM    5  C   UNL     1     -11.335  16.293  70.480  1.00  0.00    -0.318 C  
HETATM    6  C   UNL     1     -11.123  16.545  68.049  1.00  0.00    -0.275 C  
HETATM    7  C   UNL     1      -9.916  16.749  70.173  1.00  0.00     0.788 C  
HETATM    8  C   UNL     1     -11.669  17.984  67.774  1.00  0.00     1.624 C  
HETATM    9  C   UNL     1     -10.797  18.722  66.723  1.00  0.00    -0.253 C  
HETATM   10  C   UNL     1      -9.689  16.679  68.641  1.00  0.00    -0.248 C  
HETATM   11  C   UNL     1      -8.858  17.885  68.191  1.00  0.00    -0.265 C  
HETATM   12  C   UNL     1     -11.227  15.837  66.708  1.00  0.00    -0.021 C  
HETATM   13  C   UNL     1      -7.734  18.326  68.812  1.00  0.00    -0.286 C  
HETATM   14  C   UNL     1      -9.290  18.589  66.933  1.00  0.00    -0.294 C  
ENDROOT
BRANCH   3  15
HETATM   15  C   UNL     1     -12.004  11.775  70.204  1.00  0.00    -0.421 C  
BRANCH  15  16
HETATM   16  C   UNL     1     -13.152  10.779  70.193  1.00  0.00     0.080 C  
HETATM   17  C   UNL     1     -11.623   8.899  71.139  1.00  0.00    -0.360 C  
HETATM   18  O   UNL     1     -14.014   8.730  71.145  1.00  0.00    -0.586 OA 
HETATM   19  C   UNL     1     -12.949   9.672  71.280  1.00  0.00    -0.360 C  
HETATM   20  C   UNL     1     -13.031  10.241  72.702  1.00  0.00     0.548 C  
HETATM   21  H   UNL     1     -13.891   8.058  71.805  1.00  0.00     0.000 HD 
ENDBRANCH  15  16
ENDBRANCH   3  15
BRANCH  13  22
HETATM   22  C   UNL     1      -6.917  17.507  69.674  1.00  0.00     0.140 C  
HETATM   23  C   UNL     1      -5.984  15.369  70.448  1.00  0.00    -0.080 C  
HETATM   24  C   UNL     1      -6.742  14.066  70.148  1.00  0.00     0.087 C  
HETATM   25  C   UNL     1      -6.275  16.380  69.349  1.00  0.00    -0.186 C  
HETATM   26  O   UNL     1      -8.153  14.273  70.197  1.00  0.00     0.177 OA 
HETATM   27  C   UNL     1      -6.342  13.514  68.778  1.00  0.00    -0.093 C  
HETATM   28  H   UNL     1      -8.622  13.467  70.012  1.00  0.00     0.000 HD 
HETATM   29  C   UNL     1      -6.525  14.539  67.655  1.00  0.00    -0.153 C  
HETATM   30  C   UNL     1      -5.964  15.899  68.015  1.00  0.00    -0.142 C  
HETATM   31  C   UNL     1      -5.147  16.585  67.186  1.00  0.00    -0.107 C  
ENDBRANCH  13  22
TORSDOF 3
ENDMDL
MODEL      135
REMARK 921   NORMALIZED FREE ENERGY PREDICTED BY IDOCK:   -2.33 KCAL/MOL
REMARK 922        TOTAL FREE ENERGY PREDICTED BY IDOCK:   -3.28 KCAL/MOL
REMARK 923 INTER-LIGAND FREE ENERGY PREDICTED BY IDOCK:   -2.44 KCAL/MOL
REMARK 924 INTRA-LIGAND FREE ENERGY PREDICTED BY IDOCK:   -0.84 KCAL/MOL
REMARK 927      BINDING AFFINITY PREDICTED BY RF-SCORE:    0.00 PKD
ROOT
HETATM    1  C   UNL     1      -6.378  11.800  69.341  1.00  0.00    -0.114 C  
HETATM    2  C   UNL     1      -7.213  12.348  68.160  1.00  0.00    -0.100 C  
HETATM    3  C   UNL     1      -7.311  11.138  67.128  1.00  0.00    -0.121 C  
HETATM    4  C   UNL     1      -6.713  13.752  67.563  1.00  0.00    -0.131 C  
HETATM    5  C   UNL     1      -7.579  14.165  66.362  1.00  0.00     1.848 C  
HETATM    6  C   UNL     1      -6.839  15.045  68.528  1.00  0.00    -0.102 C  
HETATM    7  C   UNL     1      -8.674  15.071  66.905  1.00  0.00    -0.285 C  
HETATM    8  C   UNL     1      -5.968  16.288  68.148  1.00  0.00    -0.115 C  
HETATM    9  C   UNL     1      -6.241  17.477  69.108  1.00  0.00    -0.226 C  
HETATM   10  C   UNL     1      -8.337  15.441  68.372  1.00  0.00    -0.147 C  
HETATM   11  C   UNL     1      -8.702  16.906  68.627  1.00  0.00    -0.267 C  
HETATM   12  C   UNL     1      -6.389  14.683  69.935  1.00  0.00    -0.158 C  
HETATM   13  C   UNL     1      -9.870  17.490  68.253  1.00  0.00    -0.319 C  
HETATM   14  C   UNL     1      -7.716  17.738  69.403  1.00  0.00     0.250 C  
ENDROOT
BRANCH   3  15
HETATM   15  C   UNL     1      -7.723   9.852  67.883  1.00  0.00    -0.090 C  
BRANCH  15  16
HETATM   16  C   UNL     1      -9.088   9.697  68.535  1.00  0.00    -0.131 C  
HETATM   17  C   UNL     1     -10.292  10.015  66.251  1.00  0.00    -0.235 C  
HETATM   18  O   UNL     1     -11.408   9.118  68.173  1.00  0.00    -0.380 OA 
HETATM   19  C   UNL     1     -10.140   9.148  67.515  1.00  0.00    -0.228 C  
HETATM   20  C   UNL     1      -9.825   7.710  67.083  1.00  0.00    -0.265 C  
HETATM   21  H   UNL     1     -12.046   8.784  67.554  1.00  0.00     0.000 HD 
ENDBRANCH  15  16
ENDBRANCH   3  15
BRANCH  13  22
HETATM   22  C   UNL     1     -11.084  16.759  67.983  1.00  0.00    -0.220 C  
HETATM   23  C   UNL     1     -12.534  14.778  68.090  1.00  0.00     0.320 C  
HETATM   24  C   UNL     1     -11.900  13.392  68.287  1.00  0.00    -0.358 C  
HETATM   25  C   UNL     1     -11.657  15.828  68.753  1.00  0.00    -0.401 C  
HETATM   26  O   UNL     1     -10.644  13.304  67.615  1.00  0.00    -0.232 OA 
HETATM   27  C   UNL     1     -11.719  13.090  69.777  1.00  0.00    -0.346 C  
HETATM   28  H   UNL     1     -10.252  12.448  67.737  1.00  0.00     0.000 HD 
HETATM   29  C   UNL     1     -10.924  14.179  70.504  1.00  0.00     0.457 C  
HETATM   30  C   UNL     1     -11.403  15.573  70.160  1.00  0.00    -0.339 C  
HETATM   31  C   UNL     1     -11.670  16.499  71.107  1.00  0.00    -0.001 C  
ENDBRANCH  13  22
TORSDOF 3
ENDMDL
MODEL      136
REMARK 921   NORMALIZED FREE ENERGY PREDICTED BY IDOCK:   -2.24 KCAL/MOL
REMARK 922        TOTAL FREE ENERGY PREDICTED BY IDOCK:   -3.18 KCAL/MOL
REMARK 923 INTER-LIGAND FREE ENERGY PREDICTED BY IDOCK:   -2.19 KCAL/MOL
REMARK 924 INTRA-LIGAND FREE ENERGY PREDICTED BY IDOCK:   -0.99 KCAL/MOL
REMARK 927      BINDING AFFINITY PREDICTED BY RF-SCORE:    0.00 PKD
ROOT
HETATM    1  C   UNL     1     -11.051   6.101  69.634  1.00  0.00    -0.489 C  
HETATM    2  C   UNL     1      -9.989   7.217  69.771  1.00  0.00    -0.183 C  
HETATM    3  C   UNL     1      -8.588   6.458  69.757  1.00  0.00    -0.138 C  
HETATM    4  C   UNL     1     -10.230   8.242  70.983  1.00  0.00    -0.230 C  
HETATM    5  C   UNL     1      -9.086   9.267  71.055  1.00  0.00    -0.253 C  
HETATM    6  C   UNL     1     -11.532   9.200  70.887  1.00  0.00    -0.357 C  
HETATM    7  C   UNL     1      -9.540  10.485  70.265  1.00  0.00     0.650 C  
HETATM    8  C   UNL     1     -12.016   9.857  72.221  1.00  0.00     0.461 C  
HETATM    9  C   UNL     1     -13.221  10.804  71.973  1.00  0.00    -0.466 C  
HETATM   10  C   UNL     1     -11.048  10.336  69.938  1.00  0.00    -0.362 C  
HETATM   11  C   UNL     1     -11.737  11.697  70.071  1.00  0.00    -0.402 C  
HETATM   12  C   UNL     1     -12.728   8.394  70.405  1.00  0.00     0.795 C  
HETATM   13  C   UNL     1     -11.260  12.861  69.559  1.00  0.00    -0.143 C  
HETATM   14  C   UNL     1     -13.071  11.730  70.767  1.00  0.00     0.137 C  
ENDROOT
BRANCH   3  15
HETATM   15  C   UNL     1      -8.561   5.455  68.579  1.00  0.00    -0.098 C  
BRANCH  15  16
HETATM   16  C   UNL     1      -7.588   4.288  68.532  1.00  0.00    -0.063 C  
HETATM   17  C   UNL     1      -9.485   2.594  69.082  1.00  0.00    -0.148 C  
HETATM   18  O   UNL     1      -7.362   1.902  68.209  1.00  0.00    -0.043 OA 
HETATM   19  C   UNL     1      -8.320   2.961  68.143  1.00  0.00    -0.078 C  
HETATM   20  C   UNL     1      -8.849   2.997  66.703  1.00  0.00    -0.155 C  
HETATM   21  H   UNL     1      -7.806   1.096  67.973  1.00  0.00     0.000 HD 
ENDBRANCH  15  16
ENDBRANCH   3  15
BRANCH  13  22
HETATM   22  C   UNL     1     -10.317  12.933  68.470  1.00  0.00    -0.239 C  
HETATM   23  C   UNL     1      -8.948  14.127  66.815  1.00  0.00    -0.229 C  
HETATM   24  C   UNL     1      -9.363  15.539  66.375  1.00  0.00    -0.298 C  
HETATM   25  C   UNL     1      -9.413  13.892  68.243  1.00  0.00    -0.217 C  
HETATM   26  O   UNL     1     -10.784  15.664  66.327  1.00  0.00    -0.308 OA 
HETATM   27  C   UNL     1      -8.777  16.591  67.320  1.00  0.00    -0.204 C  
HETATM   28  H   UNL     1     -11.040  16.537  66.055  1.00  0.00     0.000 HD 
HETATM   29  C   UNL     1      -9.140  16.332  68.785  1.00  0.00    -0.245 C  
HETATM   30  C   UNL     1      -8.933  14.887  69.186  1.00  0.00    -0.140 C  
HETATM   31  C   UNL     1      -8.260  14.537  70.304  1.00  0.00     1.256 C  
ENDBRANCH  13  22
TORSDOF 3
ENDMDL
MODEL      137
REMARK 921   NORMALIZED FREE ENERGY PREDICTED BY IDOCK:   -2.19 KCAL/MOL
REMARK 922        TOTAL FREE ENERGY PREDICTED BY IDOCK:   -3.12 KCAL/MOL
REMARK 923 INTER-LIGAND FREE ENERGY PREDICTED BY IDOCK:   -2.45 KCAL/MOL
REMARK 924 INTRA-LIGAND FREE ENERGY PREDICTED BY IDOCK:   -0.66 KCAL/MOL
REMARK 927      BINDING AFFINITY PREDICTED BY RF-SCORE:    0.00 PKD
ROOT
HETATM    1  C   UNL     1     -13.327  14.015  70.816  1.00  0.00    -0.086 C  
HETATM    2  C   UNL     1     -11.967  13.577  70.224  1.00  0.00    -0.386 C  
HETATM    3  C   UNL     1     -11.612  12.215  70.970  1.00  0.00     1.100 C  
HETATM    4  C   UNL     1     -10.826  14.707  70.226  1.00  0.00     0.004 C  
HETATM    5  C   UNL     1      -9.509  14.141  69.671  1.00  0.00     0.757 C  
HETATM    6  C   UNL     1     -11.066  15.994  69.274  1.00  0.00    -0.331 C  
HETATM    7  C   UNL     1      -9.483  14.472  68.186  1.00  0.00    -0.208 C  
HETATM    8  C   UNL     1     -10.220  17.269  69.595  1.00  0.00     0.070 C  
HETATM    9  C   UNL     1     -10.493  18.397  68.564  1.00  0.00    -0.219 C  
HETATM   10  C   UNL     1     -10.630  15.466  67.875  1.00  0.00    -0.267 C  
HETATM   11  C   UNL     1     -10.146  16.504  66.857  1.00  0.00    -0.281 C  
HETATM   12  C   UNL     1     -12.509  16.458  69.391  1.00  0.00     1.161 C  
HETATM   13  C   UNL     1      -9.457  16.215  65.724  1.00  0.00    -0.254 C  
HETATM   14  C   UNL     1     -10.519  17.941  67.107  1.00  0.00    -0.359 C  
ENDROOT
BRANCH   3  15
HETATM   15  C   UNL     1     -12.845  11.281  70.945  1.00  0.00    -0.343 C  
BRANCH  15  16
HETATM   16  C   UNL     1     -12.813   9.915  70.278  1.00  0.00     0.114 C  
HETATM   17  C   UNL     1     -11.872   8.806  72.435  1.00  0.00    -0.356 C  
HETATM   18  O   UNL     1     -12.819   7.524  70.644  1.00  0.00    -0.555 OA 
HETATM   19  C   UNL     1     -12.950   8.769  71.334  1.00  0.00    -0.268 C  
HETATM   20  C   UNL     1     -14.330   8.767  72.005  1.00  0.00    -0.466 C  
HETATM   21  H   UNL     1     -12.903   6.829  71.285  1.00  0.00     0.000 HD 
ENDBRANCH  15  16
ENDBRANCH   3  15
BRANCH  13  22
HETATM   22  C   UNL     1      -9.466  14.922  65.085  1.00  0.00     0.413 C  
HETATM   23  C   UNL     1     -10.350  12.662  64.694  1.00  0.00    -0.354 C  
HETATM   24  C   UNL     1     -11.177  11.978  65.794  1.00  0.00    -0.334 C  
HETATM   25  C   UNL     1     -10.532  14.168  64.796  1.00  0.00    -0.432 C  
HETATM   26  O   UNL     1     -10.689  12.323  67.090  1.00  0.00    -0.224 OA 
HETATM   27  C   UNL     1     -12.654  12.358  65.672  1.00  0.00     0.254 C  
HETATM   28  H   UNL     1     -11.200  11.901  67.770  1.00  0.00     0.000 HD 
HETATM   29  C   UNL     1     -12.872  13.875  65.670  1.00  0.00    -0.467 C  
HETATM   30  C   UNL     1     -11.919  14.595  64.739  1.00  0.00    -0.439 C  
HETATM   31  C   UNL     1     -12.342  15.512  63.841  1.00  0.00     0.303 C  
ENDBRANCH  13  22
TORSDOF 3
ENDMDL
MODEL      138
REMARK 921   NORMALIZED FREE ENERGY PREDICTED BY IDOCK:   -2.14 KCAL/MOL
REMARK 922        TOTAL FREE ENERGY PREDICTED BY IDOCK:   -3.06 KCAL/MOL
REMARK 923 INTER-LIGAND FREE ENERGY PREDICTED BY IDOCK:   -3.52 KCAL/MOL
REMARK 924 INTRA-LIGAND FREE ENERGY PREDICTED BY IDOCK:    0.46 KCAL/MOL
REMARK 927      BINDING AFFINITY PREDICTED BY RF-SCORE:    0.00 PKD
ROOT
HETATM    1  C   UNL     1      -7.595  10.018  64.740  1.00  0.00    -0.143 C  
HETATM    2  C   UNL     1      -8.357   8.870  65.444  1.00  0.00    -0.155 C  
HETATM    3  C   UNL     1      -8.254   7.633  64.446  1.00  0.00    -0.032 C  
HETATM    4  C   UNL     1      -9.830   9.246  65.960  1.00  0.00    -0.363 C  
HETATM    5  C   UNL     1     -10.510   8.018  66.586  1.00  0.00    -0.199 C  
HETATM    6  C   UNL     1      -9.934  10.333  67.155  1.00  0.00    -0.243 C  
HETATM    7  C   UNL     1     -10.240   8.085  68.082  1.00  0.00    -0.251 C  
HETATM    8  C   UNL     1     -11.323  11.025  67.351  1.00  0.00    -0.306 C  
HETATM    9  C   UNL     1     -11.303  11.984  68.571  1.00  0.00    -0.323 C  
HETATM   10  C   UNL     1      -9.642   9.475  68.421  1.00  0.00    -0.152 C  
HETATM   11  C   UNL     1     -10.219   9.971  69.750  1.00  0.00    -0.286 C  
HETATM   12  C   UNL     1      -8.973  11.481  66.891  1.00  0.00    -0.179 C  
HETATM   13  C   UNL     1     -10.326   9.220  70.876  1.00  0.00    -0.367 C  
HETATM   14  C   UNL     1     -10.638  11.415  69.823  1.00  0.00     0.198 C  
ENDROOT
BRANCH   3  15
HETATM   15  C   UNL     1      -6.786   7.467  63.986  1.00  0.00    -0.048 C  
BRANCH  15  16
HETATM   16  C   UNL     1      -6.314   6.251  63.206  1.00  0.00    -0.029 C  
HETATM   17  C   UNL     1      -5.622   5.027  65.395  1.00  0.00    -0.014 C  
HETATM   18  O   UNL     1      -5.867   3.876  63.306  1.00  0.00    -0.013 OA 
HETATM   19  C   UNL     1      -6.411   4.952  64.073  1.00  0.00    -0.022 C  
HETATM   20  C   UNL     1      -7.865   4.583  64.395  1.00  0.00    -0.086 C  
HETATM   21  H   UNL     1      -5.926   3.088  63.833  1.00  0.00     0.000 HD 
ENDBRANCH  15  16
ENDBRANCH   3  15
BRANCH  13  22
HETATM   22  C   UNL     1      -9.536   8.042  71.136  1.00  0.00    -0.189 C  
HETATM   23  C   UNL     1      -7.774   6.411  70.615  1.00  0.00    -0.105 C  
HETATM   24  C   UNL     1      -7.325   6.229  69.156  1.00  0.00    -0.089 C  
HETATM   25  C   UNL     1      -8.254   7.839  70.815  1.00  0.00    -0.107 C  
HETATM   26  O   UNL     1      -8.426   6.380  68.260  1.00  0.00    -0.115 OA 
HETATM   27  C   UNL     1      -6.223   7.231  68.803  1.00  0.00    -0.031 C  
HETATM   28  H   UNL     1      -8.149   6.268  67.359  1.00  0.00     0.000 HD 
HETATM   29  C   UNL     1      -6.632   8.680  69.087  1.00  0.00    -0.047 C  
HETATM   30  C   UNL     1      -7.271   8.844  70.450  1.00  0.00    -0.060 C  
HETATM   31  C   UNL     1      -6.887   9.808  71.315  1.00  0.00     0.238 C  
ENDBRANCH  13  22
TORSDOF 3
ENDMDL
MODEL      139
REMARK 921   NORMALIZED FREE ENERGY PREDICTED BY IDOCK:   -2.00 KCAL/MOL
REMARK 922        TOTAL FREE ENERGY PREDICTED BY IDOCK:   -2.89 KCAL/MOL
REMARK 923 INTER-LIGAND FREE ENERGY PREDICTED BY IDOCK:   -2.81 KCAL/MOL
REMARK 924 INTRA-LIGAND FREE ENERGY PREDICTED BY IDOCK:   -0.08 KCAL/MOL
REMARK 927      BINDING AFFINITY PREDICTED BY RF-SCORE:    0.00 PKD
ROOT
HETATM    1  C   UNL     1     -10.533  11.702  69.767  1.00  0.00     0.515 C  
HETATM    2  C   UNL     1     -10.756  10.599  68.705  1.00  0.00    -0.249 C  
HETATM    3  C   UNL     1     -11.993  11.104  67.839  1.00  0.00     0.002 C  
HETATM    4  C   UNL     1     -10.857   9.105  69.285  1.00  0.00    -0.150 C  
HETATM    5  C   UNL     1     -11.135   8.106  68.151  1.00  0.00     0.324 C  
HETATM    6  C   UNL     1      -9.519   8.487  69.956  1.00  0.00    -0.165 C  
HETATM    7  C   UNL     1      -9.785   7.571  67.698  1.00  0.00    -0.182 C  
HETATM    8  C   UNL     1      -9.716   7.255  70.899  1.00  0.00    -0.170 C  
HETATM    9  C   UNL     1      -8.352   6.718  71.411  1.00  0.00    -0.119 C  
HETATM   10  C   UNL     1      -8.703   8.017  68.715  1.00  0.00    -0.131 C  
HETATM   11  C   UNL     1      -7.701   6.879  68.928  1.00  0.00    -0.110 C  
HETATM   12  C   UNL     1      -8.853   9.533  70.834  1.00  0.00    -0.027 C  
HETATM   13  C   UNL     1      -7.135   6.149  67.933  1.00  0.00    -0.078 C  
HETATM   14  C   UNL     1      -7.268   6.597  70.342  1.00  0.00    -0.080 C  
ENDROOT
BRANCH   3  15
HETATM   15  C   UNL     1     -11.768  12.581  67.436  1.00  0.00    -0.432 C  
BRANCH  15  16
HETATM   16  C   UNL     1     -10.667  13.000  66.476  1.00  0.00    -0.290 C  
HETATM   17  C   UNL     1     -11.450  15.479  66.547  1.00  0.00     0.080 C  
HETATM   18  O   UNL     1      -9.302  14.838  65.697  1.00  0.00    -0.503 OA 
HETATM   19  C   UNL     1     -10.271  14.498  66.691  1.00  0.00    -0.275 C  
HETATM   20  C   UNL     1      -9.611  14.727  68.057  1.00  0.00    -0.209 C  
HETATM   21  H   UNL     1      -9.062  15.748  65.828  1.00  0.00     0.000 HD 
ENDBRANCH  15  16
ENDBRANCH   3  15
BRANCH  13  22
HETATM   22  C   UNL     1      -7.030   6.597  66.566  1.00  0.00    -0.066 C  
HETATM   23  C   UNL     1      -6.967   6.257  64.133  1.00  0.00    -0.044 C  
HETATM   24  C   UNL     1      -6.551   4.886  63.576  1.00  0.00    -0.030 C  
HETATM   25  C   UNL     1      -7.623   6.066  65.492  1.00  0.00    -0.085 C  
HETATM   26  O   UNL     1      -5.546   4.287  64.393  1.00  0.00    -0.013 OA 
HETATM   27  C   UNL     1      -7.763   3.957  63.472  1.00  0.00    -0.074 C  
HETATM   28  H   UNL     1      -5.288   3.440  64.049  1.00  0.00     0.000 HD 
HETATM   29  C   UNL     1      -8.513   3.818  64.801  1.00  0.00    -0.104 C  
HETATM   30  C   UNL     1      -8.752   5.153  65.473  1.00  0.00    -0.147 C  
HETATM   31  C   UNL     1      -9.965   5.516  65.944  1.00  0.00    -0.002 C  
ENDBRANCH  13  22
TORSDOF 3
ENDMDL
MODEL      140
REMARK 921   NORMALIZED FREE ENERGY PREDICTED BY IDOCK:   -1.98 KCAL/MOL
REMARK 922        TOTAL FREE ENERGY PREDICTED BY IDOCK:   -2.87 KCAL/MOL
REMARK 923 INTER-LIGAND FREE ENERGY PREDICTED BY IDOCK:   -3.71 KCAL/MOL
REMARK 924 INTRA-LIGAND FREE ENERGY PREDICTED BY IDOCK:    0.84 KCAL/MOL
REMARK 927      BINDING AFFINITY PREDICTED BY RF-SCORE:    0.00 PKD
ROOT
HETATM    1  C   UNL     1     -10.657   7.913  72.911  1.00  0.00    -0.434 C  
HETATM    2  C   UNL     1     -10.463   7.086  71.618  1.00  0.00    -0.219 C  
HETATM    3  C   UNL     1     -11.815   6.259  71.451  1.00  0.00    -0.268 C  
HETATM    4  C   UNL     1      -9.100   6.242  71.546  1.00  0.00    -0.145 C  
HETATM    5  C   UNL     1      -9.046   5.419  70.249  1.00  0.00    -0.166 C  
HETATM    6  C   UNL     1      -7.719   7.083  71.467  1.00  0.00    -0.090 C  
HETATM    7  C   UNL     1      -8.287   6.257  69.231  1.00  0.00    -0.117 C  
HETATM    8  C   UNL     1      -6.410   6.314  71.844  1.00  0.00    -0.043 C  
HETATM    9  C   UNL     1      -5.159   7.213  71.654  1.00  0.00    -0.027 C  
HETATM   10  C   UNL     1      -7.638   7.462  69.959  1.00  0.00    -0.089 C  
HETATM   11  C   UNL     1      -6.245   7.722  69.379  1.00  0.00    -0.034 C  
HETATM   12  C   UNL     1      -7.770   8.246  72.445  1.00  0.00    -0.168 C  
HETATM   13  C   UNL     1      -5.953   7.764  68.053  1.00  0.00    -0.041 C  
HETATM   14  C   UNL     1      -5.135   8.012  70.353  1.00  0.00    -0.023 C  
ENDROOT
BRANCH   3  15
HETATM   15  C   UNL     1     -13.023   7.209  71.631  1.00  0.00    -0.415 C  
BRANCH  15  16
HETATM   16  C   UNL     1     -12.891   8.570  72.296  1.00  0.00    -0.404 C  
HETATM   17  C   UNL     1     -11.906   9.614  70.128  1.00  0.00    -0.087 C  
HETATM   18  O   UNL     1     -12.742  10.955  71.929  1.00  0.00    -0.374 OA 
HETATM   19  C   UNL     1     -12.964   9.722  71.242  1.00  0.00    -0.380 C  
HETATM   20  C   UNL     1     -14.349   9.817  70.589  1.00  0.00     1.094 C  
HETATM   21  H   UNL     1     -12.787  11.655  71.289  1.00  0.00     0.000 HD 
ENDBRANCH  15  16
ENDBRANCH   3  15
BRANCH  13  22
HETATM   22  C   UNL     1      -6.930   8.019  67.023  1.00  0.00    -0.074 C  
HETATM   23  C   UNL     1      -8.948   9.086  66.114  1.00  0.00    -0.216 C  
HETATM   24  C   UNL     1     -10.030   9.595  67.080  1.00  0.00    -0.206 C  
HETATM   25  C   UNL     1      -7.592   9.158  66.798  1.00  0.00    -0.087 C  
HETATM   26  O   UNL     1     -10.142   8.739  68.217  1.00  0.00    -0.175 OA 
HETATM   27  C   UNL     1      -9.720  11.025  67.530  1.00  0.00    -0.190 C  
HETATM   28  H   UNL     1     -10.811   9.053  68.814  1.00  0.00     0.000 HD 
HETATM   29  C   UNL     1      -8.320  11.160  68.135  1.00  0.00    -0.136 C  
HETATM   30  C   UNL     1      -7.258  10.481  67.296  1.00  0.00    -0.090 C  
HETATM   31  C   UNL     1      -6.108  11.099  66.949  1.00  0.00    -0.104 C  
ENDBRANCH  13  22
TORSDOF 3
ENDMDL
MODEL      141
REMARK 921   NORMALIZED FREE ENERGY PREDICTED BY IDOCK:   -1.53 KCAL/MOL
REMARK 922        TOTAL FREE ENERGY PREDICTED BY IDOCK:   -2.34 KCAL/MOL
REMARK 923 INTER-LIGAND FREE ENERGY PREDICTED BY IDOCK:   -1.22 KCAL/MOL
REMARK 924 INTRA-LIGAND FREE ENERGY PREDICTED BY IDOCK:   -1.12 KCAL/MOL
REMARK 927      BINDING AFFINITY PREDICTED BY RF-SCORE:    0.00 PKD
ROOT
HETATM    1  C   UNL     1      -7.486   3.582  72.834  1.00  0.00    -0.059 C  
HETATM    2  C   UNL     1      -8.119   4.210  71.569  1.00  0.00    -0.082 C  
HETATM    3  C   UNL     1      -8.763   2.985  70.779  1.00  0.00    -0.130 C  
HETATM    4  C   UNL     1      -7.147   5.168  70.724  1.00  0.00    -0.060 C  
HETATM    5  C   UNL     1      -7.863   5.683  69.465  1.00  0.00    -0.092 C  
HETATM    6  C   UNL     1      -6.679   6.547  71.432  1.00  0.00    -0.058 C  
HETATM    7  C   UNL     1      -8.467   7.032  69.828  1.00  0.00    -0.137 C  
HETATM    8  C   UNL     1      -5.418   7.248  70.830  1.00  0.00    -0.027 C  
HETATM    9  C   UNL     1      -5.126   8.591  71.552  1.00  0.00    -0.033 C  
HETATM   10  C   UNL     1      -7.905   7.480  71.201  1.00  0.00    -0.091 C  
HETATM   11  C   UNL     1      -7.639   8.988  71.179  1.00  0.00    -0.130 C  
HETATM   12  C   UNL     1      -6.309   6.280  72.882  1.00  0.00    -0.063 C  
HETATM   13  C   UNL     1      -8.504   9.920  70.701  1.00  0.00     0.328 C  
HETATM   14  C   UNL     1      -6.351   9.471  71.790  1.00  0.00     0.171 C  
ENDROOT
BRANCH   3  15
HETATM   15  C   UNL     1      -9.595   2.124  71.759  1.00  0.00    -0.205 C  
BRANCH  15  16
HETATM   16  C   UNL     1     -11.073   2.380  72.009  1.00  0.00     1.113 C  
HETATM   17  C   UNL     1     -10.778   2.004  74.566  1.00  0.00    -0.137 C  
HETATM   18  O   UNL     1     -12.724   3.056  73.641  1.00  0.00     0.676 OA 
HETATM   19  C   UNL     1     -11.313   2.928  73.454  1.00  0.00    -0.116 C  
HETATM   20  C   UNL     1     -10.708   4.324  73.649  1.00  0.00    -0.336 C  
HETATM   21  H   UNL     1     -12.870   3.388  74.519  1.00  0.00     0.000 HD 
ENDBRANCH  15  16
ENDBRANCH   3  15
BRANCH  13  22
HETATM   22  C   UNL     1      -9.924   9.706  70.568  1.00  0.00    -0.318 C  
HETATM   23  C   UNL     1     -12.179  10.296  69.792  1.00  0.00    -0.075 C  
HETATM   24  C   UNL     1     -12.505  11.765  69.477  1.00  0.00     0.083 C  
HETATM   25  C   UNL     1     -10.702  10.047  69.535  1.00  0.00    -0.269 C  
HETATM   26  O   UNL     1     -11.820  12.643  70.369  1.00  0.00    -0.516 OA 
HETATM   27  C   UNL     1     -12.138  12.100  68.029  1.00  0.00    -0.043 C  
HETATM   28  H   UNL     1     -12.021  13.551  70.175  1.00  0.00     0.000 HD 
HETATM   29  C   UNL     1     -10.679  11.767  67.701  1.00  0.00    -0.254 C  
HETATM   30  C   UNL     1     -10.275  10.393  68.191  1.00  0.00    -0.187 C  
HETATM   31  C   UNL     1      -9.638   9.503  67.399  1.00  0.00    -0.178 C  
ENDBRANCH  13  22
TORSDOF 3
ENDMDL
MODEL      142
REMARK 921   NORMALIZED FREE ENERGY PREDICTED BY IDOCK:   -1.44 KCAL/MOL
REMARK 922        TOTAL FREE ENERGY PREDICTED BY IDOCK:   -2.24 KCAL/MOL
REMARK 923 INTER-LIGAND FREE ENERGY PREDICTED BY IDOCK:   -3.02 KCAL/MOL
REMARK 924 INTRA-LIGAND FREE ENERGY PREDICTED BY IDOCK:    0.78 KCAL/MOL
REMARK 927      BINDING AFFINITY PREDICTED BY RF-SCORE:    0.00 PKD
ROOT
HETATM    1  C   UNL     1     -10.657   7.913  72.911  1.00  0.00    -0.434 C  
HETATM    2  C   UNL     1     -10.463   7.086  71.618  1.00  0.00    -0.219 C  
HETATM    3  C   UNL     1     -11.815   6.259  71.451  1.00  0.00    -0.268 C  
HETATM    4  C   UNL     1      -9.100   6.242  71.546  1.00  0.00    -0.145 C  
HETATM    5  C   UNL     1      -9.046   5.419  70.249  1.00  0.00    -0.166 C  
HETATM    6  C   UNL     1      -7.719   7.083  71.467  1.00  0.00    -0.090 C  
HETATM    7  C   UNL     1      -8.287   6.257  69.231  1.00  0.00    -0.117 C  
HETATM    8  C   UNL     1      -6.410   6.314  71.844  1.00  0.00    -0.043 C  
HETATM    9  C   UNL     1      -5.159   7.213  71.654  1.00  0.00    -0.027 C  
HETATM   10  C   UNL     1      -7.638   7.462  69.959  1.00  0.00    -0.089 C  
HETATM   11  C   UNL     1      -6.245   7.722  69.379  1.00  0.00    -0.034 C  
HETATM   12  C   UNL     1      -7.770   8.246  72.445  1.00  0.00    -0.168 C  
HETATM   13  C   UNL     1      -5.953   7.764  68.053  1.00  0.00    -0.041 C  
HETATM   14  C   UNL     1      -5.135   8.012  70.353  1.00  0.00    -0.023 C  
ENDROOT
BRANCH   3  15
HETATM   15  C   UNL     1     -13.023   7.209  71.631  1.00  0.00    -0.415 C  
BRANCH  15  16
HETATM   16  C   UNL     1     -12.891   8.570  72.296  1.00  0.00    -0.404 C  
HETATM   17  C   UNL     1     -11.906   9.614  70.128  1.00  0.00    -0.087 C  
HETATM   18  O   UNL     1     -12.742  10.955  71.929  1.00  0.00    -0.374 OA 
HETATM   19  C   UNL     1     -12.964   9.722  71.242  1.00  0.00    -0.380 C  
HETATM   20  C   UNL     1     -14.349   9.817  70.589  1.00  0.00     1.094 C  
HETATM   21  H   UNL     1     -12.787  11.655  71.289  1.00  0.00     0.000 HD 
ENDBRANCH  15  16
ENDBRANCH   3  15
BRANCH  13  22
HETATM   22  C   UNL     1      -6.930   8.019  67.023  1.00  0.00    -0.074 C  
HETATM   23  C   UNL     1      -7.727   8.045  64.698  1.00  0.00    -0.126 C  
HETATM   24  C   UNL     1      -6.702   8.088  63.553  1.00  0.00    -0.075 C  
HETATM   25  C   UNL     1      -7.113   7.330  65.891  1.00  0.00    -0.066 C  
HETATM   26  O   UNL     1      -5.567   8.874  63.912  1.00  0.00    -0.068 OA 
HETATM   27  C   UNL     1      -6.260   6.673  63.173  1.00  0.00    -0.041 C  
HETATM   28  H   UNL     1      -4.934   8.901  63.205  1.00  0.00     0.000 HD 
HETATM   29  C   UNL     1      -5.727   5.882  64.372  1.00  0.00    -0.021 C  
HETATM   30  C   UNL     1      -6.624   5.996  65.586  1.00  0.00    -0.047 C  
HETATM   31  C   UNL     1      -7.027   4.916  66.290  1.00  0.00    -0.067 C  
ENDBRANCH  13  22
TORSDOF 3
ENDMDL
MODEL      143
REMARK 921   NORMALIZED FREE ENERGY PREDICTED BY IDOCK:   -0.51 KCAL/MOL
REMARK 922        TOTAL FREE ENERGY PREDICTED BY IDOCK:   -1.14 KCAL/MOL
REMARK 923 INTER-LIGAND FREE ENERGY PREDICTED BY IDOCK:   -1.37 KCAL/MOL
REMARK 924 INTRA-LIGAND FREE ENERGY PREDICTED BY IDOCK:    0.23 KCAL/MOL
REMARK 927      BINDING AFFINITY PREDICTED BY RF-SCORE:    0.00 PKD
ROOT
HETATM    1  C   UNL     1      -7.574   9.499  63.777  1.00  0.00    -0.121 C  
HETATM    2  C   UNL     1      -8.274   8.743  64.932  1.00  0.00    -0.160 C  
HETATM    3  C   UNL     1      -9.109   7.587  64.221  1.00  0.00     1.316 C  
HETATM    4  C   UNL     1      -9.080   9.671  65.964  1.00  0.00    -0.212 C  
HETATM    5  C   UNL     1      -9.779   8.809  67.028  1.00  0.00    -0.258 C  
HETATM    6  C   UNL     1      -8.207  10.686  66.874  1.00  0.00    -0.123 C  
HETATM    7  C   UNL     1      -8.834   8.735  68.219  1.00  0.00    -0.141 C  
HETATM    8  C   UNL     1      -8.981  11.875  67.532  1.00  0.00    -0.171 C  
HETATM    9  C   UNL     1      -8.043  12.722  68.434  1.00  0.00    -0.129 C  
HETATM   10  C   UNL     1      -7.689   9.759  68.014  1.00  0.00    -0.083 C  
HETATM   11  C   UNL     1      -7.349  10.422  69.352  1.00  0.00    -0.123 C  
HETATM   12  C   UNL     1      -7.140  11.354  66.021  1.00  0.00     0.238 C  
HETATM   13  C   UNL     1      -7.179   9.758  70.524  1.00  0.00    -0.130 C  
HETATM   14  C   UNL     1      -7.127  11.911  69.348  1.00  0.00     0.055 C  
ENDROOT
BRANCH   3  15
HETATM   15  C   UNL     1      -8.204   6.852  63.204  1.00  0.00     0.066 C  
BRANCH  15  16
HETATM   16  C   UNL     1      -7.154   5.842  63.636  1.00  0.00    -0.051 C  
HETATM   17  C   UNL     1      -8.828   4.690  65.259  1.00  0.00    -0.145 C  
HETATM   18  O   UNL     1      -6.777   3.649  64.583  1.00  0.00    -0.041 OA 
HETATM   19  C   UNL     1      -7.817   4.507  64.110  1.00  0.00    -0.086 C  
HETATM   20  C   UNL     1      -8.517   3.771  62.960  1.00  0.00    -0.086 C  
HETATM   21  H   UNL     1      -7.180   2.838  64.871  1.00  0.00     0.000 HD 
ENDBRANCH  15  16
ENDBRANCH   3  15
BRANCH  13  22
HETATM   22  C   UNL     1      -6.850   8.357  70.614  1.00  0.00    -0.039 C  
HETATM   23  C   UNL     1      -6.919   6.139  71.671  1.00  0.00    -0.076 C  
HETATM   24  C   UNL     1      -7.203   6.034  73.178  1.00  0.00    -0.085 C  
HETATM   25  C   UNL     1      -7.608   7.377  71.119  1.00  0.00    -0.082 C  
HETATM   26  O   UNL     1      -6.623   7.128  73.886  1.00  0.00    -0.069 OA 
HETATM   27  C   UNL     1      -8.711   5.983  73.439  1.00  0.00    -0.126 C  
HETATM   28  H   UNL     1      -6.798   7.063  74.817  1.00  0.00     0.000 HD 
HETATM   29  C   UNL     1      -9.456   7.164  72.810  1.00  0.00    -0.176 C  
HETATM   30  C   UNL     1      -9.037   7.417  71.378  1.00  0.00    -0.146 C  
HETATM   31  C   UNL     1      -9.933   7.576  70.380  1.00  0.00    -0.184 C  
ENDBRANCH  13  22
TORSDOF 3
ENDMDL
MODEL      144
REMARK 921   NORMALIZED FREE ENERGY PREDICTED BY IDOCK:   -0.38 KCAL/MOL
REMARK 922        TOTAL FREE ENERGY PREDICTED BY IDOCK:   -0.99 KCAL/MOL
REMARK 923 INTER-LIGAND FREE ENERGY PREDICTED BY IDOCK:   -1.00 KCAL/MOL
REMARK 924 INTRA-LIGAND FREE ENERGY PREDICTED BY IDOCK:    0.01 KCAL/MOL
REMARK 927      BINDING AFFINITY PREDICTED BY RF-SCORE:    0.00 PKD
ROOT
HETATM    1  C   UNL     1      -7.660  16.900  66.691  1.00  0.00    -0.301 C  
HETATM    2  C   UNL     1      -7.550  15.696  67.657  1.00  0.00    -0.179 C  
HETATM    3  C   UNL     1      -6.076  15.783  68.257  1.00  0.00    -0.116 C  
HETATM    4  C   UNL     1      -7.982  14.281  67.036  1.00  0.00    -0.013 C  
HETATM    5  C   UNL     1      -7.776  13.157  68.065  1.00  0.00    -0.146 C  
HETATM    6  C   UNL     1      -9.543  14.097  66.647  1.00  0.00    -0.301 C  
HETATM    7  C   UNL     1      -9.107  12.969  68.778  1.00  0.00     0.168 C  
HETATM    8  C   UNL     1      -9.884  12.935  65.656  1.00  0.00    -0.185 C  
HETATM    9  C   UNL     1     -11.416  12.825  65.429  1.00  0.00    -0.363 C  
HETATM   10  C   UNL     1     -10.199  13.766  68.020  1.00  0.00    -0.248 C  
HETATM   11  C   UNL     1     -11.499  12.958  67.996  1.00  0.00    -0.361 C  
HETATM   12  C   UNL     1     -10.051  15.350  65.951  1.00  0.00    -0.370 C  
HETATM   13  C   UNL     1     -12.041  12.328  69.071  1.00  0.00    -0.197 C  
HETATM   14  C   UNL     1     -12.260  12.913  66.698  1.00  0.00    -0.229 C  
ENDROOT
BRANCH   3  15
HETATM   15  C   UNL     1      -5.800  17.230  68.730  1.00  0.00    -0.164 C  
BRANCH  15  16
HETATM   16  C   UNL     1      -5.824  18.413  67.776  1.00  0.00    -0.163 C  
HETATM   17  C   UNL     1      -8.058  19.276  68.790  1.00  0.00    -0.391 C  
HETATM   18  O   UNL     1      -6.665  20.649  67.404  1.00  0.00    -0.261 OA 
HETATM   19  C   UNL     1      -6.609  19.617  68.391  1.00  0.00    -0.272 C  
HETATM   20  C   UNL     1      -5.894  20.206  69.614  1.00  0.00    -0.365 C  
HETATM   21  H   UNL     1      -7.142  21.381  67.778  1.00  0.00     0.000 HD 
ENDBRANCH  15  16
ENDBRANCH   3  15
BRANCH  13  22
HETATM   22  C   UNL     1     -11.748  12.679  70.439  1.00  0.00    -0.097 C  
HETATM   23  C   UNL     1     -11.215  14.259  72.245  1.00  0.00     1.739 C  
HETATM   24  C   UNL     1     -10.549  15.600  71.898  1.00  0.00     1.055 C  
HETATM   25  C   UNL     1     -12.075  13.810  71.073  1.00  0.00    -0.324 C  
HETATM   26  O   UNL     1      -9.641  15.452  70.806  1.00  0.00     0.143 OA 
HETATM   27  C   UNL     1     -11.606  16.654  71.560  1.00  0.00     0.038 C  
HETATM   28  H   UNL     1      -9.229  16.281  70.592  1.00  0.00     0.000 HD 
HETATM   29  C   UNL     1     -12.558  16.198  70.450  1.00  0.00     0.418 C  
HETATM   30  C   UNL     1     -13.068  14.789  70.667  1.00  0.00    -0.343 C  
HETATM   31  C   UNL     1     -14.379  14.476  70.583  1.00  0.00     0.823 C  
ENDBRANCH  13  22
TORSDOF 3
ENDMDL
MODEL      145
REMARK 921   NORMALIZED FREE ENERGY PREDICTED BY IDOCK:    0.43 KCAL/MOL
REMARK 922        TOTAL FREE ENERGY PREDICTED BY IDOCK:   -0.03 KCAL/MOL
REMARK 923 INTER-LIGAND FREE ENERGY PREDICTED BY IDOCK:   -0.79 KCAL/MOL
REMARK 924 INTRA-LIGAND FREE ENERGY PREDICTED BY IDOCK:    0.76 KCAL/MOL
REMARK 927      BINDING AFFINITY PREDICTED BY RF-SCORE:    0.00 PKD
ROOT
HETATM    1  C   UNL     1      -9.744   7.250  65.358  1.00  0.00     1.187 C  
HETATM    2  C   UNL     1      -9.953   7.612  66.847  1.00  0.00    -0.325 C  
HETATM    3  C   UNL     1     -10.638   6.326  67.492  1.00  0.00    -0.348 C  
HETATM    4  C   UNL     1     -10.687   9.015  67.112  1.00  0.00    -0.206 C  
HETATM    5  C   UNL     1     -10.892   9.239  68.619  1.00  0.00    -0.120 C  
HETATM    6  C   UNL     1      -9.887  10.354  66.680  1.00  0.00    -0.251 C  
HETATM    7  C   UNL     1      -9.703  10.054  69.105  1.00  0.00    -0.217 C  
HETATM    8  C   UNL     1     -10.739  11.655  66.514  1.00  0.00    -0.313 C  
HETATM    9  C   UNL     1      -9.840  12.874  66.173  1.00  0.00    -0.270 C  
HETATM   10  C   UNL     1      -8.911  10.567  67.875  1.00  0.00    -0.137 C  
HETATM   11  C   UNL     1      -8.429  11.997  68.137  1.00  0.00    -0.171 C  
HETATM   12  C   UNL     1      -9.239  10.150  65.319  1.00  0.00    -0.257 C  
HETATM   13  C   UNL     1      -7.836  12.417  69.284  1.00  0.00     0.491 C  
HETATM   14  C   UNL     1      -8.570  12.989  67.013  1.00  0.00    -0.165 C  
ENDROOT
BRANCH   3  15
HETATM   15  C   UNL     1      -9.854   5.061  67.069  1.00  0.00    -0.205 C  
BRANCH  15  16
HETATM   16  C   UNL     1      -8.547   4.658  67.733  1.00  0.00    -0.105 C  
HETATM   17  C   UNL     1      -9.796   3.115  69.413  1.00  0.00     0.240 C  
HETATM   18  O   UNL     1      -7.429   2.973  69.060  1.00  0.00    -0.048 OA 
HETATM   19  C   UNL     1      -8.659   3.239  68.381  1.00  0.00    -0.093 C  
HETATM   20  C   UNL     1      -8.836   2.138  67.328  1.00  0.00    -0.155 C  
HETATM   21  H   UNL     1      -7.497   2.111  69.453  1.00  0.00     0.000 HD 
ENDBRANCH  15  16
ENDBRANCH   3  15
BRANCH  13  22
HETATM   22  C   UNL     1      -7.176  11.537  70.216  1.00  0.00     1.241 C  
HETATM   23  C   UNL     1      -6.443   9.338  71.032  1.00  0.00    -0.086 C  
HETATM   24  C   UNL     1      -7.207   8.079  70.588  1.00  0.00    -0.052 C  
HETATM   25  C   UNL     1      -6.543  10.392  69.941  1.00  0.00    -0.124 C  
HETATM   26  O   UNL     1      -8.602   8.348  70.457  1.00  0.00    -0.123 OA 
HETATM   27  C   UNL     1      -6.650   7.550  69.265  1.00  0.00    -0.040 C  
HETATM   28  H   UNL     1      -9.074   7.570  70.184  1.00  0.00     0.000 HD 
HETATM   29  C   UNL     1      -6.639   8.615  68.164  1.00  0.00    -0.061 C  
HETATM   30  C   UNL     1      -6.076   9.937  68.643  1.00  0.00    -0.041 C  
HETATM   31  C   UNL     1      -5.128  10.609  67.955  1.00  0.00    -0.037 C  
ENDBRANCH  13  22
TORSDOF 3
ENDMDL
MODEL      146
REMARK 921   NORMALIZED FREE ENERGY PREDICTED BY IDOCK:    0.90 KCAL/MOL
REMARK 922        TOTAL FREE ENERGY PREDICTED BY IDOCK:    0.52 KCAL/MOL
REMARK 923 INTER-LIGAND FREE ENERGY PREDICTED BY IDOCK:    0.93 KCAL/MOL
REMARK 924 INTRA-LIGAND FREE ENERGY PREDICTED BY IDOCK:   -0.41 KCAL/MOL
REMARK 927      BINDING AFFINITY PREDICTED BY RF-SCORE:    0.00 PKD
ROOT
HETATM    1  C   UNL     1     -11.203  17.302  68.208  1.00  0.00     0.098 C  
HETATM    2  C   UNL     1     -10.584  16.287  69.197  1.00  0.00    -0.292 C  
HETATM    3  C   UNL     1     -11.540  16.317  70.472  1.00  0.00    -0.223 C  
HETATM    4  C   UNL     1      -9.016  16.480  69.481  1.00  0.00     0.208 C  
HETATM    5  C   UNL     1      -8.527  15.456  70.518  1.00  0.00     1.476 C  
HETATM    6  C   UNL     1      -8.008  16.210  68.243  1.00  0.00    -0.152 C  
HETATM    7  C   UNL     1      -7.985  14.268  69.737  1.00  0.00     0.556 C  
HETATM    8  C   UNL     1      -6.570  16.813  68.368  1.00  0.00    -0.149 C  
HETATM    9  C   UNL     1      -5.690  16.417  67.152  1.00  0.00    -0.127 C  
HETATM   10  C   UNL     1      -7.881  14.658  68.241  1.00  0.00    -0.128 C  
HETATM   11  C   UNL     1      -6.602  14.063  67.644  1.00  0.00    -0.175 C  
HETATM   12  C   UNL     1      -8.571  16.834  66.976  1.00  0.00    -0.233 C  
HETATM   13  C   UNL     1      -6.185  12.783  67.825  1.00  0.00    -0.138 C  
HETATM   14  C   UNL     1      -5.784  14.949  66.743  1.00  0.00     1.894 C  
ENDROOT
BRANCH   3  15
HETATM   15  C   UNL     1     -13.013  16.204  70.010  1.00  0.00     1.279 C  
BRANCH  15  16
HETATM   16  C   UNL     1     -14.017  15.309  70.719  1.00  0.00    -0.090 C  
HETATM   17  C   UNL     1     -12.114  14.018  71.936  1.00  0.00     0.026 C  
HETATM   18  O   UNL     1     -14.404  13.884  72.634  1.00  0.00    -0.638 OA 
HETATM   19  C   UNL     1     -13.444  14.784  72.077  1.00  0.00    -0.379 C  
HETATM   20  C   UNL     1     -13.248  15.916  73.094  1.00  0.00    -0.692 C  
HETATM   21  H   UNL     1     -14.056  13.565  73.458  1.00  0.00     0.000 HD 
ENDBRANCH  15  16
ENDBRANCH   3  15
BRANCH  13  22
HETATM   22  C   UNL     1      -7.059  11.699  68.201  1.00  0.00    -0.078 C  
HETATM   23  C   UNL     1      -9.199  10.492  68.204  1.00  0.00    -0.148 C  
HETATM   24  C   UNL     1     -10.498  11.264  67.920  1.00  0.00    -0.188 C  
HETATM   25  C   UNL     1      -8.048  11.166  67.476  1.00  0.00    -0.119 C  
HETATM   26  O   UNL     1     -10.437  12.583  68.462  1.00  0.00    -0.230 OA 
HETATM   27  C   UNL     1     -10.767  11.329  66.415  1.00  0.00    -0.320 C  
HETATM   28  H   UNL     1     -11.240  13.060  68.286  1.00  0.00     0.000 HD 
HETATM   29  C   UNL     1      -9.587  11.911  65.631  1.00  0.00    -0.221 C  
HETATM   30  C   UNL     1      -8.262  11.306  66.046  1.00  0.00    -0.045 C  
HETATM   31  C   UNL     1      -7.370  10.836  65.147  1.00  0.00     0.154 C  
ENDBRANCH  13  22
TORSDOF 3
ENDMDL
MODEL      147
REMARK 921   NORMALIZED FREE ENERGY PREDICTED BY IDOCK:    1.81 KCAL/MOL
REMARK 922        TOTAL FREE ENERGY PREDICTED BY IDOCK:    1.58 KCAL/MOL
REMARK 923 INTER-LIGAND FREE ENERGY PREDICTED BY IDOCK:    0.89 KCAL/MOL
REMARK 924 INTRA-LIGAND FREE ENERGY PREDICTED BY IDOCK:    0.69 KCAL/MOL
REMARK 927      BINDING AFFINITY PREDICTED BY RF-SCORE:    0.00 PKD
ROOT
HETATM    1  C   UNL     1      -5.468  14.117  67.304  1.00  0.00     0.598 C  
HETATM    2  C   UNL     1      -6.971  14.250  67.643  1.00  0.00    -0.202 C  
HETATM    3  C   UNL     1      -7.272  15.814  67.581  1.00  0.00    -0.189 C  
HETATM    4  C   UNL     1      -7.440  13.490  68.977  1.00  0.00     0.046 C  
HETATM    5  C   UNL     1      -8.933  13.740  69.243  1.00  0.00     0.597 C  
HETATM    6  C   UNL     1      -7.368  11.872  68.963  1.00  0.00    -0.038 C  
HETATM    7  C   UNL     1      -9.689  12.579  68.615  1.00  0.00    -0.057 C  
HETATM    8  C   UNL     1      -7.384  11.160  70.355  1.00  0.00     1.294 C  
HETATM    9  C   UNL     1      -7.387   9.616  70.193  1.00  0.00    -0.141 C  
HETATM   10  C   UNL     1      -8.672  11.482  68.207  1.00  0.00    -0.162 C  
HETATM   11  C   UNL     1      -9.264  10.100  68.502  1.00  0.00    -0.144 C  
HETATM   12  C   UNL     1      -6.066  11.421  68.321  1.00  0.00    -0.045 C  
HETATM   13  C   UNL     1     -10.525   9.713  68.182  1.00  0.00    -0.266 C  
HETATM   14  C   UNL     1      -8.356   9.083  69.139  1.00  0.00    -0.123 C  
ENDROOT
BRANCH   3  15
HETATM   15  C   UNL     1      -6.682  16.397  66.275  1.00  0.00     0.615 C  
BRANCH  15  16
HETATM   16  C   UNL     1      -7.250  17.643  65.615  1.00  0.00     0.083 C  
HETATM   17  C   UNL     1      -9.506  17.370  66.880  1.00  0.00    -0.275 C  
HETATM   18  O   UNL     1      -8.887  19.414  65.791  1.00  0.00    -0.393 OA 
HETATM   19  C   UNL     1      -8.341  18.310  66.516  1.00  0.00    -0.266 C  
HETATM   20  C   UNL     1      -7.749  18.875  67.814  1.00  0.00    -0.265 C  
HETATM   21  H   UNL     1      -9.549  19.819  66.338  1.00  0.00     0.000 HD 
ENDBRANCH  15  16
ENDBRANCH   3  15
BRANCH  13  22
HETATM   22  C   UNL     1     -11.322  10.338  67.155  1.00  0.00     0.202 C  
HETATM   23  C   UNL     1     -11.666  11.837  65.238  1.00  0.00    -0.132 C  
HETATM   24  C   UNL     1     -10.702  13.014  65.022  1.00  0.00    -0.315 C  
HETATM   25  C   UNL     1     -10.925  10.705  65.932  1.00  0.00     0.073 C  
HETATM   26  O   UNL     1     -10.275  13.561  66.270  1.00  0.00    -0.285 OA 
HETATM   27  C   UNL     1      -9.488  12.573  64.202  1.00  0.00     0.371 C  
HETATM   28  H   UNL     1      -9.680  14.288  66.137  1.00  0.00     0.000 HD 
HETATM   29  C   UNL     1      -8.770  11.367  64.817  1.00  0.00     0.328 C  
HETATM   30  C   UNL     1      -9.730  10.271  65.230  1.00  0.00    -0.354 C  
HETATM   31  C   UNL     1      -9.540   8.978  64.887  1.00  0.00     0.338 C  
ENDBRANCH  13  22
TORSDOF 3
ENDMDL
MODEL      148
REMARK 921   NORMALIZED FREE ENERGY PREDICTED BY IDOCK:    1.83 KCAL/MOL
REMARK 922        TOTAL FREE ENERGY PREDICTED BY IDOCK:    1.61 KCAL/MOL
REMARK 923 INTER-LIGAND FREE ENERGY PREDICTED BY IDOCK:    2.37 KCAL/MOL
REMARK 924 INTRA-LIGAND FREE ENERGY PREDICTED BY IDOCK:   -0.75 KCAL/MOL
REMARK 927      BINDING AFFINITY PREDICTED BY RF-SCORE:    0.00 PKD
ROOT
HETATM    1  C   UNL     1     -10.209  11.745  66.750  1.00  0.00    -0.240 C  
HETATM    2  C   UNL     1      -9.140  12.467  67.605  1.00  0.00    -0.186 C  
HETATM    3  C   UNL     1      -7.852  11.531  67.531  1.00  0.00    -0.133 C  
HETATM    4  C   UNL     1      -9.619  12.901  69.074  1.00  0.00     0.377 C  
HETATM    5  C   UNL     1      -8.461  13.553  69.846  1.00  0.00     2.157 C  
HETATM    6  C   UNL     1     -10.766  14.040  69.164  1.00  0.00    -0.198 C  
HETATM    7  C   UNL     1      -8.586  15.054  69.634  1.00  0.00     0.005 C  
HETATM    8  C   UNL     1     -11.542  14.144  70.518  1.00  0.00    -0.205 C  
HETATM    9  C   UNL     1     -12.555  15.320  70.493  1.00  0.00    -0.450 C  
HETATM   10  C   UNL     1      -9.955  15.355  68.972  1.00  0.00    -0.229 C  
HETATM   11  C   UNL     1     -10.545  16.634  69.573  1.00  0.00    -0.308 C  
HETATM   12  C   UNL     1     -11.846  13.766  68.129  1.00  0.00    -0.411 C  
HETATM   13  C   UNL     1      -9.856  17.788  69.769  1.00  0.00     0.598 C  
HETATM   14  C   UNL     1     -12.011  16.624  69.913  1.00  0.00     0.929 C  
ENDROOT
BRANCH   3  15
HETATM   15  C   UNL     1      -7.585  11.143  66.057  1.00  0.00     0.023 C  
BRANCH  15  16
HETATM   16  C   UNL     1      -7.776   9.724  65.545  1.00  0.00    -0.121 C  
HETATM   17  C   UNL     1      -7.931  10.556  63.086  1.00  0.00    -0.083 C  
HETATM   18  O   UNL     1      -7.559   8.253  63.638  1.00  0.00    -0.118 OA 
HETATM   19  C   UNL     1      -7.263   9.581  64.075  1.00  0.00    -0.111 C  
HETATM   20  C   UNL     1      -5.742   9.756  63.976  1.00  0.00    -0.098 C  
HETATM   21  H   UNL     1      -7.248   8.167  62.745  1.00  0.00     0.000 HD 
ENDBRANCH  15  16
ENDBRANCH   3  15
BRANCH  13  22
HETATM   22  C   UNL     1      -8.650  18.134  69.058  1.00  0.00    -0.021 C  
HETATM   23  C   UNL     1      -7.051  17.937  67.202  1.00  0.00    -0.206 C  
HETATM   24  C   UNL     1      -6.993  16.630  66.395  1.00  0.00    -0.030 C  
HETATM   25  C   UNL     1      -8.461  18.134  67.734  1.00  0.00    -0.251 C  
HETATM   26  O   UNL     1      -7.236  15.500  67.233  1.00  0.00    -0.197 OA 
HETATM   27  C   UNL     1      -8.009  16.660  65.250  1.00  0.00     2.731 C  
HETATM   28  H   UNL     1      -7.201  14.693  66.734  1.00  0.00     0.000 HD 
HETATM   29  C   UNL     1      -9.432  16.958  65.735  1.00  0.00    -0.030 C  
HETATM   30  C   UNL     1      -9.483  18.122  66.701  1.00  0.00    -0.303 C  
HETATM   31  C   UNL     1     -10.361  19.138  66.561  1.00  0.00    -0.526 C  
ENDBRANCH  13  22
TORSDOF 3
ENDMDL
MODEL      149
REMARK 921   NORMALIZED FREE ENERGY PREDICTED BY IDOCK:    2.39 KCAL/MOL
REMARK 922        TOTAL FREE ENERGY PREDICTED BY IDOCK:    2.26 KCAL/MOL
REMARK 923 INTER-LIGAND FREE ENERGY PREDICTED BY IDOCK:    1.27 KCAL/MOL
REMARK 924 INTRA-LIGAND FREE ENERGY PREDICTED BY IDOCK:    0.99 KCAL/MOL
REMARK 927      BINDING AFFINITY PREDICTED BY RF-SCORE:    0.00 PKD
ROOT
HETATM    1  C   UNL     1     -11.925  12.962  67.353  1.00  0.00    -0.360 C  
HETATM    2  C   UNL     1     -10.475  13.433  67.617  1.00  0.00    -0.242 C  
HETATM    3  C   UNL     1      -9.552  12.322  66.943  1.00  0.00    -0.214 C  
HETATM    4  C   UNL     1     -10.144  13.801  69.143  1.00  0.00     0.112 C  
HETATM    5  C   UNL     1      -8.666  14.197  69.292  1.00  0.00     0.354 C  
HETATM    6  C   UNL     1     -10.901  15.089  69.767  1.00  0.00    -0.277 C  
HETATM    7  C   UNL     1      -8.606  15.713  69.175  1.00  0.00    -0.251 C  
HETATM    8  C   UNL     1     -10.939  15.189  71.328  1.00  0.00    -0.155 C  
HETATM    9  C   UNL     1     -11.626  16.503  71.788  1.00  0.00    -0.207 C  
HETATM   10  C   UNL     1     -10.050  16.277  69.230  1.00  0.00    -0.267 C  
HETATM   11  C   UNL     1     -10.063  17.572  70.048  1.00  0.00     0.770 C  
HETATM   12  C   UNL     1     -12.364  15.077  69.353  1.00  0.00    -0.161 C  
HETATM   13  C   UNL     1      -9.169  18.585  69.909  1.00  0.00     1.212 C  
HETATM   14  C   UNL     1     -11.187  17.755  71.032  1.00  0.00     2.565 C  
ENDROOT
BRANCH   3  15
HETATM   15  C   UNL     1     -10.061  12.031  65.512  1.00  0.00    -0.281 C  
BRANCH  15  16
HETATM   16  C   UNL     1     -11.461  11.501  65.242  1.00  0.00    -0.091 C  
HETATM   17  C   UNL     1     -12.196  13.769  64.203  1.00  0.00    -0.443 C  
HETATM   18  O   UNL     1     -13.457  11.753  63.900  1.00  0.00    -0.474 OA 
HETATM   19  C   UNL     1     -12.119  12.240  64.031  1.00  0.00    -0.471 C  
HETATM   20  C   UNL     1     -11.400  11.935  62.710  1.00  0.00     0.510 C  
HETATM   21  H   UNL     1     -13.856  12.202  63.164  1.00  0.00     0.000 HD 
ENDBRANCH  15  16
ENDBRANCH   3  15
BRANCH  13  22
HETATM   22  C   UNL     1      -8.382  18.806  68.721  1.00  0.00    -0.322 C  
HETATM   23  C   UNL     1      -7.769  18.401  66.376  1.00  0.00    -0.291 C  
HETATM   24  C   UNL     1      -8.132  17.056  65.725  1.00  0.00     0.311 C  
HETATM   25  C   UNL     1      -8.793  18.729  67.451  1.00  0.00    -0.285 C  
HETATM   26  O   UNL     1      -8.035  15.989  66.668  1.00  0.00    -0.243 OA 
HETATM   27  C   UNL     1      -9.544  17.108  65.137  1.00  0.00     1.459 C  
HETATM   28  H   UNL     1      -8.260  15.159  66.266  1.00  0.00     0.000 HD 
HETATM   29  C   UNL     1     -10.595  17.534  66.167  1.00  0.00    -0.211 C  
HETATM   30  C   UNL     1     -10.163  18.743  66.968  1.00  0.00    -0.426 C  
HETATM   31  C   UNL     1     -10.966  19.815  67.147  1.00  0.00    -0.351 C  
ENDBRANCH  13  22
TORSDOF 3
ENDMDL
MODEL      150
REMARK 921   NORMALIZED FREE ENERGY PREDICTED BY IDOCK:    2.47 KCAL/MOL
REMARK 922        TOTAL FREE ENERGY PREDICTED BY IDOCK:    2.36 KCAL/MOL
REMARK 923 INTER-LIGAND FREE ENERGY PREDICTED BY IDOCK:    2.42 KCAL/MOL
REMARK 924 INTRA-LIGAND FREE ENERGY PREDICTED BY IDOCK:   -0.06 KCAL/MOL
REMARK 927      BINDING AFFINITY PREDICTED BY RF-SCORE:    0.00 PKD
ROOT
HETATM    1  C   UNL     1     -11.120  13.734  64.414  1.00  0.00    -0.356 C  
HETATM    2  C   UNL     1     -10.240  13.744  65.686  1.00  0.00    -0.326 C  
HETATM    3  C   UNL     1      -9.605  15.205  65.737  1.00  0.00    -0.344 C  
HETATM    4  C   UNL     1      -9.212  12.518  65.815  1.00  0.00     0.111 C  
HETATM    5  C   UNL     1      -8.354  12.665  67.082  1.00  0.00    -0.172 C  
HETATM    6  C   UNL     1      -9.850  11.043  66.012  1.00  0.00    -0.273 C  
HETATM    7  C   UNL     1      -9.051  11.870  68.176  1.00  0.00    -0.190 C  
HETATM    8  C   UNL     1      -8.917   9.829  65.692  1.00  0.00    -0.199 C  
HETATM    9  C   UNL     1      -9.628   8.483  65.994  1.00  0.00    -0.236 C  
HETATM   10  C   UNL     1     -10.174  11.014  67.535  1.00  0.00    -0.219 C  
HETATM   11  C   UNL     1     -10.221   9.641  68.212  1.00  0.00    -0.216 C  
HETATM   12  C   UNL     1     -11.036  10.867  65.076  1.00  0.00    -0.035 C  
HETATM   13  C   UNL     1     -10.186   9.438  69.554  1.00  0.00    -0.219 C  
HETATM   14  C   UNL     1     -10.380   8.438  67.322  1.00  0.00    -0.369 C  
ENDROOT
BRANCH   3  15
HETATM   15  C   UNL     1     -10.718  16.256  65.514  1.00  0.00    -0.326 C  
BRANCH  15  16
HETATM   16  C   UNL     1     -11.275  17.098  66.650  1.00  0.00     0.590 C  
HETATM   17  C   UNL     1      -8.996  18.313  66.960  1.00  0.00    -0.274 C  
HETATM   18  O   UNL     1     -11.034  19.153  67.903  1.00  0.00    -0.327 OA 
HETATM   19  C   UNL     1     -10.518  18.462  66.764  1.00  0.00    -0.385 C  
HETATM   20  C   UNL     1     -10.765  19.361  65.545  1.00  0.00    -0.244 C  
HETATM   21  H   UNL     1     -10.574  19.980  67.972  1.00  0.00     0.000 HD 
ENDBRANCH  15  16
ENDBRANCH   3  15
BRANCH  13  22
HETATM   22  C   UNL     1     -10.546  10.438  70.529  1.00  0.00     0.001 C  
HETATM   23  C   UNL     1     -11.457  12.613  71.222  1.00  0.00     2.182 C  
HETATM   24  C   UNL     1     -11.474  13.776  70.217  1.00  0.00    -0.019 C  
HETATM   25  C   UNL     1     -11.568  11.298  70.467  1.00  0.00    -0.233 C  
HETATM   26  O   UNL     1     -10.326  13.736  69.370  1.00  0.00    -0.432 OA 
HETATM   27  C   UNL     1     -12.749  13.738  69.372  1.00  0.00     0.401 C  
HETATM   28  H   UNL     1     -10.337  14.454  68.749  1.00  0.00     0.000 HD 
HETATM   29  C   UNL     1     -12.952  12.390  68.673  1.00  0.00     2.426 C  
HETATM   30  C   UNL     1     -12.734  11.216  69.604  1.00  0.00     0.082 C  
HETATM   31  C   UNL     1     -13.616  10.198  69.700  1.00  0.00     2.020 C  
ENDBRANCH  13  22
TORSDOF 3
ENDMDL
MODEL      151
REMARK 921   NORMALIZED FREE ENERGY PREDICTED BY IDOCK:    2.61 KCAL/MOL
REMARK 922        TOTAL FREE ENERGY PREDICTED BY IDOCK:    2.53 KCAL/MOL
REMARK 923 INTER-LIGAND FREE ENERGY PREDICTED BY IDOCK:    3.58 KCAL/MOL
REMARK 924 INTRA-LIGAND FREE ENERGY PREDICTED BY IDOCK:   -1.06 KCAL/MOL
REMARK 927      BINDING AFFINITY PREDICTED BY RF-SCORE:    0.00 PKD
ROOT
HETATM    1  C   UNL     1      -7.720   9.541  63.751  1.00  0.00    -0.126 C  
HETATM    2  C   UNL     1      -8.779   9.012  64.747  1.00  0.00    -0.187 C  
HETATM    3  C   UNL     1      -9.771   8.130  63.865  1.00  0.00     3.484 C  
HETATM    4  C   UNL     1      -9.459  10.130  65.678  1.00  0.00    -0.275 C  
HETATM    5  C   UNL     1     -10.531   9.498  66.580  1.00  0.00    -0.241 C  
HETATM    6  C   UNL     1      -8.503  10.866  66.757  1.00  0.00    -0.139 C  
HETATM    7  C   UNL     1      -9.851   9.169  67.901  1.00  0.00    -0.204 C  
HETATM    8  C   UNL     1      -9.018  12.225  67.335  1.00  0.00    -0.183 C  
HETATM    9  C   UNL     1      -8.045  12.782  68.408  1.00  0.00    -0.129 C  
HETATM   10  C   UNL     1      -8.452   9.836  67.924  1.00  0.00    -0.125 C  
HETATM   11  C   UNL     1      -8.167  10.382  69.326  1.00  0.00    -0.163 C  
HETATM   12  C   UNL     1      -7.169  11.209  66.113  1.00  0.00     0.000 C  
HETATM   13  C   UNL     1      -8.380   9.700  70.481  1.00  0.00    -0.134 C  
HETATM   14  C   UNL     1      -7.549  11.751  69.420  1.00  0.00     0.269 C  
ENDROOT
BRANCH   3  15
HETATM   15  C   UNL     1      -8.948   7.171  62.973  1.00  0.00     1.131 C  
BRANCH  15  16
HETATM   16  C   UNL     1      -8.348   5.881  63.510  1.00  0.00     0.020 C  
HETATM   17  C   UNL     1     -10.554   5.289  64.753  1.00  0.00     1.257 C  
HETATM   18  O   UNL     1      -8.829   3.670  64.365  1.00  0.00    -0.112 OA 
HETATM   19  C   UNL     1      -9.458   4.813  63.780  1.00  0.00     0.166 C  
HETATM   20  C   UNL     1     -10.130   4.340  62.485  1.00  0.00    -0.100 C  
HETATM   21  H   UNL     1      -9.503   3.022  64.529  1.00  0.00     0.000 HD 
ENDBRANCH  15  16
ENDBRANCH   3  15
BRANCH  13  22
HETATM   22  C   UNL     1      -8.466   8.263  70.562  1.00  0.00    -0.129 C  
HETATM   23  C   UNL     1      -7.992   5.979  69.790  1.00  0.00    -0.106 C  
HETATM   24  C   UNL     1      -7.644   5.742  68.312  1.00  0.00    -0.085 C  
HETATM   25  C   UNL     1      -7.539   7.373  70.193  1.00  0.00    -0.089 C  
HETATM   26  O   UNL     1      -8.376   6.629  67.466  1.00  0.00    -0.120 OA 
HETATM   27  C   UNL     1      -6.142   5.917  68.077  1.00  0.00    -0.021 C  
HETATM   28  H   UNL     1      -8.162   6.482  66.553  1.00  0.00     0.000 HD 
HETATM   29  C   UNL     1      -5.626   7.275  68.564  1.00  0.00    -0.022 C  
HETATM   30  C   UNL     1      -6.129   7.624  69.948  1.00  0.00    -0.027 C  
HETATM   31  C   UNL     1      -5.306   8.053  70.929  1.00  0.00    -0.026 C  
ENDBRANCH  13  22
TORSDOF 3
ENDMDL
MODEL      152
REMARK 921   NORMALIZED FREE ENERGY PREDICTED BY IDOCK:    2.75 KCAL/MOL
REMARK 922        TOTAL FREE ENERGY PREDICTED BY IDOCK:    2.68 KCAL/MOL
REMARK 923 INTER-LIGAND FREE ENERGY PREDICTED BY IDOCK:    2.66 KCAL/MOL
REMARK 924 INTRA-LIGAND FREE ENERGY PREDICTED BY IDOCK:    0.02 KCAL/MOL
REMARK 927      BINDING AFFINITY PREDICTED BY RF-SCORE:    0.00 PKD
ROOT
HETATM    1  C   UNL     1      -7.460  11.965  66.456  1.00  0.00     0.158 C  
HETATM    2  C   UNL     1      -8.442  11.619  67.601  1.00  0.00    -0.142 C  
HETATM    3  C   UNL     1      -9.470  12.835  67.644  1.00  0.00    -0.190 C  
HETATM    4  C   UNL     1      -7.752  11.222  68.995  1.00  0.00    -0.095 C  
HETATM    5  C   UNL     1      -8.821  10.958  70.067  1.00  0.00     1.090 C  
HETATM    6  C   UNL     1      -6.899   9.847  69.026  1.00  0.00    -0.054 C  
HETATM    7  C   UNL     1      -9.087   9.460  70.059  1.00  0.00    -0.244 C  
HETATM    8  C   UNL     1      -5.880   9.682  70.201  1.00  0.00    -0.044 C  
HETATM    9  C   UNL     1      -5.188   8.294  70.152  1.00  0.00    -0.022 C  
HETATM   10  C   UNL     1      -8.006   8.764  69.193  1.00  0.00    -0.109 C  
HETATM   11  C   UNL     1      -7.596   7.442  69.849  1.00  0.00    -0.090 C  
HETATM   12  C   UNL     1      -6.048   9.741  67.770  1.00  0.00    -0.051 C  
HETATM   13  C   UNL     1      -8.463   6.522  70.344  1.00  0.00    -0.131 C  
HETATM   14  C   UNL     1      -6.127   7.118  69.889  1.00  0.00    -0.027 C  
ENDROOT
BRANCH   3  15
HETATM   15  C   UNL     1      -9.970  13.134  66.210  1.00  0.00    -0.285 C  
BRANCH  15  16
HETATM   16  C   UNL     1     -11.354  13.700  65.937  1.00  0.00    -0.317 C  
HETATM   17  C   UNL     1     -12.000  13.524  68.450  1.00  0.00    -0.378 C  
HETATM   18  O   UNL     1     -13.258  14.844  66.894  1.00  0.00     1.099 OA 
HETATM   19  C   UNL     1     -11.927  14.422  67.200  1.00  0.00    -0.389 C  
HETATM   20  C   UNL     1     -11.129  15.683  67.554  1.00  0.00    -0.289 C  
HETATM   21  H   UNL     1     -13.606  15.282  67.661  1.00  0.00     0.000 HD 
ENDBRANCH  15  16
ENDBRANCH   3  15
BRANCH  13  22
HETATM   22  C   UNL     1      -9.845   6.421  69.943  1.00  0.00    -0.191 C  
HETATM   23  C   UNL     1     -11.659   5.720  68.441  1.00  0.00     1.292 C  
HETATM   24  C   UNL     1     -11.347   5.453  66.960  1.00  0.00     1.156 C  
HETATM   25  C   UNL     1     -10.424   5.418  69.274  1.00  0.00    -0.309 C  
HETATM   26  O   UNL     1     -10.347   6.348  66.478  1.00  0.00    -0.378 OA 
HETATM   27  C   UNL     1     -10.894   4.004  66.759  1.00  0.00     1.878 C  
HETATM   28  H   UNL     1     -10.154   6.183  65.563  1.00  0.00     0.000 HD 
HETATM   29  C   UNL     1      -9.711   3.629  67.657  1.00  0.00    -0.108 C  
HETATM   30  C   UNL     1      -9.909   4.072  69.091  1.00  0.00    -0.072 C  
HETATM   31  C   UNL     1      -9.713   3.241  70.137  1.00  0.00    -0.096 C  
ENDBRANCH  13  22
TORSDOF 3
ENDMDL
MODEL      153
REMARK 921   NORMALIZED FREE ENERGY PREDICTED BY IDOCK:    3.32 KCAL/MOL
REMARK 922        TOTAL FREE ENERGY PREDICTED BY IDOCK:    3.36 KCAL/MOL
REMARK 923 INTER-LIGAND FREE ENERGY PREDICTED BY IDOCK:    1.79 KCAL/MOL
REMARK 924 INTRA-LIGAND FREE ENERGY PREDICTED BY IDOCK:    1.57 KCAL/MOL
REMARK 927      BINDING AFFINITY PREDICTED BY RF-SCORE:    0.00 PKD
ROOT
HETATM    1  C   UNL     1     -12.514   7.814  70.572  1.00  0.00     0.283 C  
HETATM    2  C   UNL     1     -11.110   7.530  69.986  1.00  0.00    -0.219 C  
HETATM    3  C   UNL     1     -11.187   8.025  68.474  1.00  0.00     0.512 C  
HETATM    4  C   UNL     1     -10.563   6.039  70.219  1.00  0.00    -0.338 C  
HETATM    5  C   UNL     1      -9.193   5.858  69.546  1.00  0.00    -0.149 C  
HETATM    6  C   UNL     1     -10.246   5.604  71.746  1.00  0.00    -0.253 C  
HETATM    7  C   UNL     1      -8.143   6.142  70.610  1.00  0.00    -0.116 C  
HETATM    8  C   UNL     1     -10.152   4.069  72.030  1.00  0.00    -0.227 C  
HETATM    9  C   UNL     1      -9.771   3.796  73.510  1.00  0.00    -0.142 C  
HETATM   10  C   UNL     1      -8.840   6.226  71.991  1.00  0.00    -0.138 C  
HETATM   11  C   UNL     1      -7.957   5.561  73.052  1.00  0.00    -0.105 C  
HETATM   12  C   UNL     1     -11.359   6.091  72.661  1.00  0.00    -0.320 C  
HETATM   13  C   UNL     1      -6.622   5.766  73.188  1.00  0.00    -0.069 C  
HETATM   14  C   UNL     1      -8.637   4.664  74.051  1.00  0.00    -0.105 C  
ENDROOT
BRANCH   3  15
HETATM   15  C   UNL     1     -11.812   9.439  68.428  1.00  0.00     1.523 C  
BRANCH  15  16
HETATM   16  C   UNL     1     -10.994  10.695  68.684  1.00  0.00    -0.291 C  
HETATM   17  C   UNL     1     -13.094  11.976  69.530  1.00  0.00     1.577 C  
HETATM   18  O   UNL     1     -10.865  12.764  69.930  1.00  0.00    -0.277 OA 
HETATM   19  C   UNL     1     -11.636  11.566  69.814  1.00  0.00    -0.326 C  
HETATM   20  C   UNL     1     -11.585  10.866  71.178  1.00  0.00     0.144 C  
HETATM   21  H   UNL     1     -11.255  13.292  70.616  1.00  0.00     0.000 HD 
ENDBRANCH  15  16
ENDBRANCH   3  15
BRANCH  13  22
HETATM   22  C   UNL     1      -5.931   6.929  72.686  1.00  0.00    -0.042 C  
HETATM   23  C   UNL     1      -5.781   9.023  71.410  1.00  0.00    -0.055 C  
HETATM   24  C   UNL     1      -6.763   9.271  70.254  1.00  0.00    -0.066 C  
HETATM   25  C   UNL     1      -6.449   8.139  72.451  1.00  0.00    -0.078 C  
HETATM   26  O   UNL     1      -7.066   8.055  69.570  1.00  0.00    -0.056 OA 
HETATM   27  C   UNL     1      -8.052   9.915  70.771  1.00  0.00     0.426 C  
HETATM   28  H   UNL     1      -7.673   8.208  68.856  1.00  0.00     0.000 HD 
HETATM   29  C   UNL     1      -8.704   9.103  71.896  1.00  0.00     0.265 C  
HETATM   30  C   UNL     1      -7.706   8.669  72.949  1.00  0.00     0.042 C  
HETATM   31  C   UNL     1      -7.927   8.847  74.269  1.00  0.00     0.387 C  
ENDBRANCH  13  22
TORSDOF 3
ENDMDL
MODEL      154
REMARK 921   NORMALIZED FREE ENERGY PREDICTED BY IDOCK:    5.61 KCAL/MOL
REMARK 922        TOTAL FREE ENERGY PREDICTED BY IDOCK:    6.05 KCAL/MOL
REMARK 923 INTER-LIGAND FREE ENERGY PREDICTED BY IDOCK:    6.46 KCAL/MOL
REMARK 924 INTRA-LIGAND FREE ENERGY PREDICTED BY IDOCK:   -0.41 KCAL/MOL
REMARK 927      BINDING AFFINITY PREDICTED BY RF-SCORE:    0.00 PKD
ROOT
HETATM    1  C   UNL     1      -8.382   8.674  64.001  1.00  0.00    -0.125 C  
HETATM    2  C   UNL     1      -9.321   7.754  64.817  1.00  0.00     1.293 C  
HETATM    3  C   UNL     1     -10.001   6.797  63.738  1.00  0.00     5.150 C  
HETATM    4  C   UNL     1     -10.317   8.513  65.821  1.00  0.00     1.118 C  
HETATM    5  C   UNL     1     -11.236   7.505  66.530  1.00  0.00     1.409 C  
HETATM    6  C   UNL     1      -9.645   9.292  67.071  1.00  0.00    -0.223 C  
HETATM    7  C   UNL     1     -10.568   7.160  67.852  1.00  0.00    -0.269 C  
HETATM    8  C   UNL     1     -10.526  10.376  67.774  1.00  0.00    -0.268 C  
HETATM    9  C   UNL     1      -9.791  10.988  68.997  1.00  0.00    -0.165 C  
HETATM   10  C   UNL     1      -9.392   8.142  68.091  1.00  0.00    -0.139 C  
HETATM   11  C   UNL     1      -9.336   8.523  69.573  1.00  0.00    -0.161 C  
HETATM   12  C   UNL     1      -8.413  10.050  66.603  1.00  0.00    -0.126 C  
HETATM   13  C   UNL     1      -9.428   7.643  70.603  1.00  0.00    -0.163 C  
HETATM   14  C   UNL     1      -9.100   9.972  69.904  1.00  0.00    -0.188 C  
ENDROOT
BRANCH   3  15
HETATM   15  C   UNL     1      -8.909   6.219  62.806  1.00  0.00     0.475 C  
BRANCH  15  16
HETATM   16  C   UNL     1      -8.409   4.789  62.934  1.00  0.00    -0.104 C  
HETATM   17  C   UNL     1      -7.460   5.258  65.310  1.00  0.00    -0.077 C  
HETATM   18  O   UNL     1      -7.779   3.034  64.474  1.00  0.00    -0.075 OA 
HETATM   19  C   UNL     1      -8.341   4.348  64.433  1.00  0.00    -0.109 C  
HETATM   20  C   UNL     1      -9.734   4.259  65.071  1.00  0.00    -0.194 C  
HETATM   21  H   UNL     1      -7.738   2.766  65.384  1.00  0.00     0.000 HD 
ENDBRANCH  15  16
ENDBRANCH   3  15
BRANCH  13  22
HETATM   22  C   UNL     1      -9.143   6.234  70.485  1.00  0.00    -0.157 C  
HETATM   23  C   UNL     1      -7.649   4.283  70.442  1.00  0.00    -0.045 C  
HETATM   24  C   UNL     1      -6.168   4.478  70.080  1.00  0.00    -0.022 C  
HETATM   25  C   UNL     1      -8.174   5.549  71.101  1.00  0.00    -0.120 C  
HETATM   26  O   UNL     1      -6.012   5.500  69.097  1.00  0.00    -0.021 OA 
HETATM   27  C   UNL     1      -5.351   4.823  71.328  1.00  0.00    -0.004 C  
HETATM   28  H   UNL     1      -5.097   5.621  68.873  1.00  0.00     0.000 HD 
HETATM   29  C   UNL     1      -5.909   6.036  72.079  1.00  0.00    -0.032 C  
HETATM   30  C   UNL     1      -7.409   5.962  72.265  1.00  0.00    -0.094 C  
HETATM   31  C   UNL     1      -7.999   6.174  73.461  1.00  0.00    -0.102 C  
ENDBRANCH  13  22
TORSDOF 3
ENDMDL
MODEL      155
REMARK 921   NORMALIZED FREE ENERGY PREDICTED BY IDOCK:    6.94 KCAL/MOL
REMARK 922        TOTAL FREE ENERGY PREDICTED BY IDOCK:    7.61 KCAL/MOL
REMARK 923 INTER-LIGAND FREE ENERGY PREDICTED BY IDOCK:    3.43 KCAL/MOL
REMARK 924 INTRA-LIGAND FREE ENERGY PREDICTED BY IDOCK:    4.19 KCAL/MOL
REMARK 927      BINDING AFFINITY PREDICTED BY RF-SCORE:    0.00 PKD
ROOT
HETATM    1  C   UNL     1      -7.460  11.965  66.456  1.00  0.00     0.158 C  
HETATM    2  C   UNL     1      -8.442  11.619  67.601  1.00  0.00    -0.142 C  
HETATM    3  C   UNL     1      -9.470  12.835  67.644  1.00  0.00    -0.190 C  
HETATM    4  C   UNL     1      -7.752  11.222  68.995  1.00  0.00    -0.095 C  
HETATM    5  C   UNL     1      -8.821  10.958  70.067  1.00  0.00     1.090 C  
HETATM    6  C   UNL     1      -6.899   9.847  69.026  1.00  0.00    -0.054 C  
HETATM    7  C   UNL     1      -9.087   9.460  70.059  1.00  0.00    -0.244 C  
HETATM    8  C   UNL     1      -5.880   9.682  70.201  1.00  0.00    -0.044 C  
HETATM    9  C   UNL     1      -5.188   8.294  70.152  1.00  0.00    -0.022 C  
HETATM   10  C   UNL     1      -8.006   8.764  69.193  1.00  0.00    -0.109 C  
HETATM   11  C   UNL     1      -7.596   7.442  69.849  1.00  0.00    -0.090 C  
HETATM   12  C   UNL     1      -6.048   9.741  67.770  1.00  0.00    -0.051 C  
HETATM   13  C   UNL     1      -8.463   6.522  70.344  1.00  0.00    -0.131 C  
HETATM   14  C   UNL     1      -6.127   7.118  69.889  1.00  0.00    -0.027 C  
ENDROOT
BRANCH   3  15
HETATM   15  C   UNL     1      -9.970  13.134  66.210  1.00  0.00    -0.285 C  
BRANCH  15  16
HETATM   16  C   UNL     1     -11.354  13.700  65.937  1.00  0.00    -0.317 C  
HETATM   17  C   UNL     1     -12.000  13.524  68.450  1.00  0.00    -0.378 C  
HETATM   18  O   UNL     1     -13.258  14.844  66.894  1.00  0.00     1.099 OA 
HETATM   19  C   UNL     1     -11.927  14.422  67.200  1.00  0.00    -0.389 C  
HETATM   20  C   UNL     1     -11.129  15.683  67.554  1.00  0.00    -0.289 C  
HETATM   21  H   UNL     1     -13.606  15.282  67.661  1.00  0.00     0.000 HD 
ENDBRANCH  15  16
ENDBRANCH   3  15
BRANCH  13  22
HETATM   22  C   UNL     1      -9.845   6.421  69.943  1.00  0.00    -0.191 C  
HETATM   23  C   UNL     1     -11.893   7.247  68.865  1.00  0.00     1.098 C  
HETATM   24  C   UNL     1     -12.087   8.761  68.680  1.00  0.00     2.937 C  
HETATM   25  C   UNL     1     -10.407   6.927  68.840  1.00  0.00    -0.198 C  
HETATM   26  O   UNL     1     -11.532   9.486  69.777  1.00  0.00    -0.420 OA 
HETATM   27  C   UNL     1     -11.450   9.228  67.368  1.00  0.00     1.300 C  
HETATM   28  H   UNL     1     -11.652  10.421  69.662  1.00  0.00     0.000 HD 
HETATM   29  C   UNL     1      -9.973   8.834  67.260  1.00  0.00    -0.281 C  
HETATM   30  C   UNL     1      -9.729   7.390  67.642  1.00  0.00    -0.178 C  
HETATM   31  C   UNL     1      -9.004   6.552  66.870  1.00  0.00    -0.128 C  
ENDBRANCH  13  22
TORSDOF 3
ENDMDL
MODEL      156
REMARK 921   NORMALIZED FREE ENERGY PREDICTED BY IDOCK:   11.51 KCAL/MOL
REMARK 922        TOTAL FREE ENERGY PREDICTED BY IDOCK:   12.98 KCAL/MOL
REMARK 923 INTER-LIGAND FREE ENERGY PREDICTED BY IDOCK:   12.46 KCAL/MOL
REMARK 924 INTRA-LIGAND FREE ENERGY PREDICTED BY IDOCK:    0.52 KCAL/MOL
REMARK 927      BINDING AFFINITY PREDICTED BY RF-SCORE:    0.00 PKD
ROOT
HETATM    1  C   UNL     1      -7.448  13.585  67.346  1.00  0.00    -0.136 C  
HETATM    2  C   UNL     1      -8.889  13.073  67.111  1.00  0.00    -0.218 C  
HETATM    3  C   UNL     1      -8.870  12.446  65.646  1.00  0.00     0.515 C  
HETATM    4  C   UNL     1     -10.050  14.140  67.412  1.00  0.00    -0.240 C  
HETATM    5  C   UNL     1     -11.428  13.541  67.088  1.00  0.00    -0.368 C  
HETATM    6  C   UNL     1     -10.239  14.603  68.952  1.00  0.00    -0.241 C  
HETATM    7  C   UNL     1     -11.968  12.961  68.387  1.00  0.00    -0.289 C  
HETATM    8  C   UNL     1     -11.030  15.932  69.190  1.00  0.00    -0.284 C  
HETATM    9  C   UNL     1     -11.201  16.217  70.706  1.00  0.00    -0.356 C  
HETATM   10  C   UNL     1     -11.070  13.434  69.558  1.00  0.00    -0.100 C  
HETATM   11  C   UNL     1     -11.942  13.755  70.775  1.00  0.00    -0.318 C  
HETATM   12  C   UNL     1      -8.879  14.853  69.585  1.00  0.00     0.106 C  
HETATM   13  C   UNL     1     -12.942  12.964  71.242  1.00  0.00    -0.317 C  
HETATM   14  C   UNL     1     -11.622  15.010  71.542  1.00  0.00    -0.409 C  
ENDROOT
BRANCH   3  15
HETATM   15  C   UNL     1      -7.645  11.512  65.505  1.00  0.00     0.771 C  
BRANCH  15  16
HETATM   16  C   UNL     1      -7.704  10.038  65.874  1.00  0.00    -0.116 C  
HETATM   17  C   UNL     1     -10.138   9.839  64.979  1.00  0.00     0.026 C  
HETATM   18  O   UNL     1      -8.774   7.917  65.420  1.00  0.00    -0.291 OA 
HETATM   19  C   UNL     1      -8.707   9.267  64.954  1.00  0.00    -0.192 C  
HETATM   20  C   UNL     1      -8.229   9.215  63.497  1.00  0.00    -0.178 C  
HETATM   21  H   UNL     1      -9.383   7.449  64.862  1.00  0.00     0.000 HD 
ENDBRANCH  15  16
ENDBRANCH   3  15
BRANCH  13  22
HETATM   22  C   UNL     1     -13.043  11.551  70.971  1.00  0.00    -0.102 C  
HETATM   23  C   UNL     1     -12.255   9.428  70.016  1.00  0.00     0.408 C  
HETATM   24  C   UNL     1     -11.288   9.454  68.822  1.00  0.00     0.287 C  
HETATM   25  C   UNL     1     -12.040  10.673  70.861  1.00  0.00    -0.489 C  
HETATM   26  O   UNL     1     -11.579  10.547  67.952  1.00  0.00    -0.650 OA 
HETATM   27  C   UNL     1      -9.838   9.541  69.306  1.00  0.00    -0.184 C  
HETATM   28  H   UNL     1     -10.981  10.563  67.214  1.00  0.00     0.000 HD 
HETATM   29  C   UNL     1      -9.603  10.730  70.243  1.00  0.00     1.140 C  
HETATM   30  C   UNL     1     -10.670  10.845  71.311  1.00  0.00     2.430 C  
HETATM   31  C   UNL     1     -10.368  11.002  72.619  1.00  0.00    12.257 C  
ENDBRANCH  13  22
TORSDOF 3
ENDMDL
MODEL      157
REMARK 921   NORMALIZED FREE ENERGY PREDICTED BY IDOCK:   11.96 KCAL/MOL
REMARK 922        TOTAL FREE ENERGY PREDICTED BY IDOCK:   13.51 KCAL/MOL
REMARK 923 INTER-LIGAND FREE ENERGY PREDICTED BY IDOCK:   14.69 KCAL/MOL
REMARK 924 INTRA-LIGAND FREE ENERGY PREDICTED BY IDOCK:   -1.17 KCAL/MOL
REMARK 927      BINDING AFFINITY PREDICTED BY RF-SCORE:    0.00 PKD
ROOT
HETATM    1  C   UNL     1     -11.208  13.928  66.664  1.00  0.00    -0.328 C  
HETATM    2  C   UNL     1     -11.494  14.770  67.930  1.00  0.00    -0.361 C  
HETATM    3  C   UNL     1     -12.351  13.815  68.875  1.00  0.00    -0.067 C  
HETATM    4  C   UNL     1     -12.102  16.230  67.656  1.00  0.00     1.058 C  
HETATM    5  C   UNL     1     -12.399  16.946  68.983  1.00  0.00     2.290 C  
HETATM    6  C   UNL     1     -11.141  17.296  66.907  1.00  0.00     0.306 C  
HETATM    7  C   UNL     1     -11.175  17.790  69.307  1.00  0.00     1.367 C  
HETATM    8  C   UNL     1     -11.845  18.527  66.247  1.00  0.00     3.029 C  
HETATM    9  C   UNL     1     -10.805  19.502  65.632  1.00  0.00    -0.354 C  
HETATM   10  C   UNL     1     -10.245  17.818  68.067  1.00  0.00    -0.377 C  
HETATM   11  C   UNL     1      -9.644  19.218  67.910  1.00  0.00    -0.409 C  
HETATM   12  C   UNL     1     -10.415  16.614  65.758  1.00  0.00    -0.324 C  
HETATM   13  C   UNL     1      -9.102  19.947  68.919  1.00  0.00    -0.089 C  
HETATM   14  C   UNL     1      -9.598  19.797  66.521  1.00  0.00    -0.509 C  
ENDROOT
BRANCH   3  15
HETATM   15  C   UNL     1     -11.666  12.430  68.960  1.00  0.00    -0.372 C  
BRANCH  15  16
HETATM   16  C   UNL     1     -12.458  11.144  69.141  1.00  0.00     0.083 C  
HETATM   17  C   UNL     1     -11.268  10.647  71.401  1.00  0.00     0.870 C  
HETATM   18  O   UNL     1     -13.281   9.526  70.739  1.00  0.00    -0.568 OA 
HETATM   19  C   UNL     1     -12.610  10.785  70.656  1.00  0.00    -0.357 C  
HETATM   20  C   UNL     1     -13.479  11.805  71.404  1.00  0.00     0.200 C  
HETATM   21  H   UNL     1     -13.374   9.309  71.659  1.00  0.00     0.000 HD 
ENDBRANCH  15  16
ENDBRANCH   3  15
BRANCH  13  22
HETATM   22  C   UNL     1      -8.606  19.375  70.147  1.00  0.00     1.280 C  
HETATM   23  C   UNL     1      -7.199  17.845  71.456  1.00  0.00     6.140 C  
HETATM   24  C   UNL     1      -6.684  16.552  70.802  1.00  0.00     1.791 C  
HETATM   25  C   UNL     1      -7.376  18.910  70.386  1.00  0.00     1.390 C  
HETATM   26  O   UNL     1      -7.651  16.015  69.901  1.00  0.00     0.049 OA 
HETATM   27  C   UNL     1      -5.368  16.810  70.065  1.00  0.00    -0.194 C  
HETATM   28  H   UNL     1      -7.333  15.217  69.496  1.00  0.00     0.000 HD 
HETATM   29  C   UNL     1      -5.478  17.948  69.045  1.00  0.00    -0.188 C  
HETATM   30  C   UNL     1      -6.174  19.167  69.612  1.00  0.00    -0.295 C  
HETATM   31  C   UNL     1      -5.663  20.412  69.490  1.00  0.00    -0.373 C  
ENDBRANCH  13  22
TORSDOF 3
ENDMDL
MODEL      158
REMARK 921   NORMALIZED FREE ENERGY PREDICTED BY IDOCK:   12.90 KCAL/MOL
REMARK 922        TOTAL FREE ENERGY PREDICTED BY IDOCK:   14.62 KCAL/MOL
REMARK 923 INTER-LIGAND FREE ENERGY PREDICTED BY IDOCK:   15.02 KCAL/MOL
REMARK 924 INTRA-LIGAND FREE ENERGY PREDICTED BY IDOCK:   -0.40 KCAL/MOL
REMARK 927      BINDING AFFINITY PREDICTED BY RF-SCORE:    0.00 PKD
ROOT
HETATM    1  C   UNL     1     -13.726  16.561  68.361  1.00  0.00     6.554 C  
HETATM    2  C   UNL     1     -12.255  16.085  68.408  1.00  0.00     0.518 C  
HETATM    3  C   UNL     1     -11.494  17.181  69.279  1.00  0.00     0.862 C  
HETATM    4  C   UNL     1     -11.605  15.735  66.982  1.00  0.00     0.244 C  
HETATM    5  C   UNL     1     -10.131  15.332  67.148  1.00  0.00    -0.240 C  
HETATM    6  C   UNL     1     -12.215  14.460  66.192  1.00  0.00    -0.358 C  
HETATM    7  C   UNL     1     -10.103  13.814  67.254  1.00  0.00    -0.239 C  
HETATM    8  C   UNL     1     -11.917  14.382  64.658  1.00  0.00    -0.475 C  
HETATM    9  C   UNL     1     -12.493  13.078  64.042  1.00  0.00    -0.369 C  
HETATM   10  C   UNL     1     -11.502  13.260  66.882  1.00  0.00    -0.376 C  
HETATM   11  C   UNL     1     -11.343  11.976  66.062  1.00  0.00    -0.398 C  
HETATM   12  C   UNL     1     -13.732  14.476  66.283  1.00  0.00     3.479 C  
HETATM   13  C   UNL     1     -10.503  10.956  66.375  1.00  0.00    -0.307 C  
HETATM   14  C   UNL     1     -12.230  11.814  64.857  1.00  0.00     0.121 C  
ENDROOT
BRANCH   3  15
HETATM   15  C   UNL     1     -12.299  17.456  70.572  1.00  0.00     6.118 C  
BRANCH  15  16
HETATM   16  C   UNL     1     -12.966  16.342  71.364  1.00  0.00     0.821 C  
HETATM   17  C   UNL     1     -10.750  14.981  71.451  1.00  0.00     0.334 C  
HETATM   18  O   UNL     1     -12.608  14.497  72.886  1.00  0.00    -0.357 OA 
HETATM   19  C   UNL     1     -11.926  15.579  72.249  1.00  0.00    -0.450 C  
HETATM   20  C   UNL     1     -11.356  16.467  73.362  1.00  0.00     0.966 C  
HETATM   21  H   UNL     1     -11.977  14.034  73.423  1.00  0.00     0.000 HD 
ENDBRANCH  15  16
ENDBRANCH   3  15
BRANCH  13  22
HETATM   22  C   UNL     1      -9.990  10.715  67.701  1.00  0.00    -0.197 C  
HETATM   23  C   UNL     1      -9.588   9.331  69.691  1.00  0.00    -0.192 C  
HETATM   24  C   UNL     1     -10.513   8.136  69.975  1.00  0.00    -0.231 C  
HETATM   25  C   UNL     1      -9.519   9.563  68.190  1.00  0.00    -0.145 C  
HETATM   26  O   UNL     1     -11.855   8.424  69.582  1.00  0.00    -0.075 OA 
HETATM   27  C   UNL     1     -10.013   6.884  69.251  1.00  0.00    -0.164 C  
HETATM   28  H   UNL     1     -12.426   7.686  69.757  1.00  0.00     0.000 HD 
HETATM   29  C   UNL     1      -9.833   7.108  67.746  1.00  0.00    -0.175 C  
HETATM   30  C   UNL     1      -9.099   8.395  67.436  1.00  0.00    -0.152 C  
HETATM   31  C   UNL     1      -8.054   8.442  66.582  1.00  0.00    -0.101 C  
ENDBRANCH  13  22
TORSDOF 3
ENDMDL
MODEL      159
REMARK 921   NORMALIZED FREE ENERGY PREDICTED BY IDOCK:   13.39 KCAL/MOL
REMARK 922        TOTAL FREE ENERGY PREDICTED BY IDOCK:   15.20 KCAL/MOL
REMARK 923 INTER-LIGAND FREE ENERGY PREDICTED BY IDOCK:    1.49 KCAL/MOL
REMARK 924 INTRA-LIGAND FREE ENERGY PREDICTED BY IDOCK:   13.70 KCAL/MOL
REMARK 927      BINDING AFFINITY PREDICTED BY RF-SCORE:    0.00 PKD
ROOT
HETATM    1  C   UNL     1      -8.414  10.644  67.203  1.00  0.00    -0.128 C  
HETATM    2  C   UNL     1      -8.393  11.881  68.132  1.00  0.00    -0.161 C  
HETATM    3  C   UNL     1      -7.682  11.382  69.467  1.00  0.00     0.267 C  
HETATM    4  C   UNL     1      -9.806  12.621  68.313  1.00  0.00    -0.227 C  
HETATM    5  C   UNL     1      -9.676  13.794  69.298  1.00  0.00     0.415 C  
HETATM    6  C   UNL     1     -10.426  13.348  67.006  1.00  0.00    -0.257 C  
HETATM    7  C   UNL     1      -9.413  15.038  68.464  1.00  0.00    -0.203 C  
HETATM    8  C   UNL     1     -11.956  13.670  67.045  1.00  0.00    -0.448 C  
HETATM    9  C   UNL     1     -12.401  14.430  65.767  1.00  0.00    -0.345 C  
HETATM   10  C   UNL     1      -9.651  14.699  66.970  1.00  0.00    -0.246 C  
HETATM   11  C   UNL     1     -10.340  15.880  66.280  1.00  0.00    -0.324 C  
HETATM   12  C   UNL     1     -10.258  12.451  65.790  1.00  0.00    -0.283 C  
HETATM   13  C   UNL     1      -9.966  17.179  66.411  1.00  0.00    -0.315 C  
HETATM   14  C   UNL     1     -11.473  15.566  65.340  1.00  0.00    -0.046 C  
ENDROOT
BRANCH   3  15
HETATM   15  C   UNL     1      -6.385  10.621  69.104  1.00  0.00    -0.053 C  
BRANCH  15  16
HETATM   16  C   UNL     1      -6.239   9.122  69.313  1.00  0.00    -0.041 C  
HETATM   17  C   UNL     1      -6.271   9.409  71.898  1.00  0.00     0.105 C  
HETATM   18  O   UNL     1      -6.608   7.284  70.841  1.00  0.00    -0.043 OA 
HETATM   19  C   UNL     1      -6.864   8.681  70.678  1.00  0.00    -0.045 C  
HETATM   20  C   UNL     1      -8.388   8.861  70.697  1.00  0.00    -0.190 C  
HETATM   21  H   UNL     1      -6.987   7.016  71.670  1.00  0.00     0.000 HD 
ENDBRANCH  15  16
ENDBRANCH   3  15
BRANCH  13  22
HETATM   22  C   UNL     1      -8.650  17.599  66.827  1.00  0.00    -0.276 C  
HETATM   23  C   UNL     1      -6.625  17.454  68.210  1.00  0.00    -0.174 C  
HETATM   24  C   UNL     1      -6.706  16.792  69.595  1.00  0.00    -0.093 C  
HETATM   25  C   UNL     1      -7.664  16.827  67.295  1.00  0.00    -0.200 C  
HETATM   26  O   UNL     1      -7.961  17.061  70.218  1.00  0.00     1.818 OA 
HETATM   27  C   UNL     1      -6.492  15.280  69.481  1.00  0.00    -0.152 C  
HETATM   28  H   UNL     1      -8.012  16.651  71.073  1.00  0.00     0.000 HD 
HETATM   29  C   UNL     1      -7.457  14.623  68.488  1.00  0.00    -0.120 C  
HETATM   30  C   UNL     1      -7.549  15.384  67.182  1.00  0.00    -0.238 C  
HETATM   31  C   UNL     1      -7.437  14.774  65.982  1.00  0.00     3.496 C  
ENDBRANCH  13  22
TORSDOF 3
ENDMDL
MODEL      160
REMARK 921   NORMALIZED FREE ENERGY PREDICTED BY IDOCK:   14.74 KCAL/MOL
REMARK 922        TOTAL FREE ENERGY PREDICTED BY IDOCK:   16.78 KCAL/MOL
REMARK 923 INTER-LIGAND FREE ENERGY PREDICTED BY IDOCK:    4.99 KCAL/MOL
REMARK 924 INTRA-LIGAND FREE ENERGY PREDICTED BY IDOCK:   11.78 KCAL/MOL
REMARK 927      BINDING AFFINITY PREDICTED BY RF-SCORE:    0.00 PKD
ROOT
HETATM    1  C   UNL     1     -11.282   8.195  69.689  1.00  0.00     0.085 C  
HETATM    2  C   UNL     1     -10.064   8.484  68.781  1.00  0.00    -0.210 C  
HETATM    3  C   UNL     1      -8.980   7.387  69.184  1.00  0.00    -0.135 C  
HETATM    4  C   UNL     1      -9.563  10.009  68.777  1.00  0.00    -0.168 C  
HETATM    5  C   UNL     1      -8.317  10.163  67.889  1.00  0.00    -0.117 C  
HETATM    6  C   UNL     1     -10.566  11.109  68.140  1.00  0.00    -0.227 C  
HETATM    7  C   UNL     1      -8.811  10.583  66.513  1.00  0.00    -0.155 C  
HETATM    8  C   UNL     1     -10.303  12.601  68.526  1.00  0.00    -0.232 C  
HETATM    9  C   UNL     1     -11.286  13.551  67.790  1.00  0.00    -0.327 C  
HETATM   10  C   UNL     1     -10.313  10.955  66.611  1.00  0.00    -0.289 C  
HETATM   11  C   UNL     1     -10.597  12.174  65.730  1.00  0.00    -0.295 C  
HETATM   12  C   UNL     1     -11.988  10.841  68.610  1.00  0.00    -0.103 C  
HETATM   13  C   UNL     1     -10.160  12.327  64.453  1.00  0.00    -0.296 C  
HETATM   14  C   UNL     1     -11.478  13.251  66.305  1.00  0.00    -0.358 C  
ENDROOT
BRANCH   3  15
HETATM   15  C   UNL     1      -9.651   5.993  69.219  1.00  0.00    -0.162 C  
BRANCH  15  16
HETATM   16  C   UNL     1     -10.067   5.328  70.521  1.00  0.00    -0.315 C  
HETATM   17  C   UNL     1      -7.636   5.439  71.438  1.00  0.00    -0.102 C  
HETATM   18  O   UNL     1      -9.522   5.015  72.856  1.00  0.00    -0.137 OA 
HETATM   19  C   UNL     1      -9.123   5.747  71.696  1.00  0.00    -0.143 C  
HETATM   20  C   UNL     1      -9.258   7.237  72.039  1.00  0.00    -0.149 C  
HETATM   21  H   UNL     1      -8.948   5.269  73.569  1.00  0.00     0.000 HD 
ENDBRANCH  15  16
ENDBRANCH   3  15
BRANCH  13  22
HETATM   22  C   UNL     1      -9.770  11.231  63.601  1.00  0.00    -0.351 C  
HETATM   23  C   UNL     1      -8.769   9.031  63.157  1.00  0.00    -0.114 C  
HETATM   24  C   UNL     1      -7.719   8.473  64.132  1.00  0.00    -0.135 C  
HETATM   25  C   UNL     1      -9.728   9.933  63.918  1.00  0.00     0.045 C  
HETATM   26  O   UNL     1      -6.905   9.519  64.660  1.00  0.00    -0.092 OA 
HETATM   27  C   UNL     1      -8.397   7.710  65.273  1.00  0.00    -0.121 C  
HETATM   28  H   UNL     1      -6.256   9.174  65.262  1.00  0.00     0.000 HD 
HETATM   29  C   UNL     1      -9.446   8.555  66.003  1.00  0.00    -0.256 C  
HETATM   30  C   UNL     1     -10.368   9.284  65.049  1.00  0.00     1.516 C  
HETATM   31  C   UNL     1     -11.712   9.257  65.182  1.00  0.00     8.337 C  
ENDBRANCH  13  22
TORSDOF 3
ENDMDL
MODEL      161
REMARK 921   NORMALIZED FREE ENERGY PREDICTED BY IDOCK:   17.58 KCAL/MOL
REMARK 922        TOTAL FREE ENERGY PREDICTED BY IDOCK:   20.13 KCAL/MOL
REMARK 923 INTER-LIGAND FREE ENERGY PREDICTED BY IDOCK:   11.47 KCAL/MOL
REMARK 924 INTRA-LIGAND FREE ENERGY PREDICTED BY IDOCK:    8.65 KCAL/MOL
REMARK 927      BINDING AFFINITY PREDICTED BY RF-SCORE:    0.00 PKD
ROOT
HETATM    1  C   UNL     1      -6.089  14.990  67.114  1.00  0.00     0.543 C  
HETATM    2  C   UNL     1      -6.803  16.256  67.644  1.00  0.00    -0.165 C  
HETATM    3  C   UNL     1      -5.744  17.433  67.463  1.00  0.00    -0.151 C  
HETATM    4  C   UNL     1      -7.461  16.110  69.101  1.00  0.00    -0.221 C  
HETATM    5  C   UNL     1      -8.087  17.442  69.544  1.00  0.00     0.576 C  
HETATM    6  C   UNL     1      -8.709  15.089  69.243  1.00  0.00    -0.161 C  
HETATM    7  C   UNL     1      -9.556  17.387  69.150  1.00  0.00    -0.069 C  
HETATM    8  C   UNL     1      -9.055  14.606  70.690  1.00  0.00     2.151 C  
HETATM    9  C   UNL     1     -10.312  13.695  70.691  1.00  0.00     2.942 C  
HETATM   10  C   UNL     1      -9.904  15.938  68.720  1.00  0.00    -0.216 C  
HETATM   11  C   UNL     1     -11.299  15.573  69.236  1.00  0.00    -0.330 C  
HETATM   12  C   UNL     1      -8.415  13.809  68.477  1.00  0.00    -0.117 C  
HETATM   13  C   UNL     1     -12.396  16.368  69.135  1.00  0.00     0.910 C  
HETATM   14  C   UNL     1     -11.474  14.206  69.842  1.00  0.00    -0.288 C  
ENDROOT
BRANCH   3  15
HETATM   15  C   UNL     1      -5.153  17.375  66.034  1.00  0.00    -0.124 C  
BRANCH  15  16
HETATM   16  C   UNL     1      -5.156  18.579  65.106  1.00  0.00    -0.205 C  
HETATM   17  C   UNL     1      -7.526  19.283  65.913  1.00  0.00    -0.282 C  
HETATM   18  O   UNL     1      -6.092  20.771  64.698  1.00  0.00    -0.259 OA 
HETATM   19  C   UNL     1      -6.069  19.719  65.665  1.00  0.00    -0.190 C  
HETATM   20  C   UNL     1      -5.513  20.316  66.964  1.00  0.00    -0.185 C  
HETATM   21  H   UNL     1      -6.646  21.463  65.038  1.00  0.00     0.000 HD 
ENDBRANCH  15  16
ENDBRANCH   3  15
BRANCH  13  22
HETATM   22  C   UNL     1     -12.532  17.431  68.170  1.00  0.00     3.653 C  
HETATM   23  C   UNL     1     -11.671  19.023  66.508  1.00  0.00     1.769 C  
HETATM   24  C   UNL     1     -10.193  19.442  66.563  1.00  0.00    -0.450 C  
HETATM   25  C   UNL     1     -11.811  17.613  67.058  1.00  0.00     2.335 C  
HETATM   26  O   UNL     1      -9.734  19.522  67.912  1.00  0.00    -0.321 OA 
HETATM   27  C   UNL     1      -9.325  18.459  65.773  1.00  0.00     0.402 C  
HETATM   28  H   UNL     1      -8.821  19.781  67.946  1.00  0.00     0.000 HD 
HETATM   29  C   UNL     1      -9.515  17.009  66.231  1.00  0.00    -0.281 C  
HETATM   30  C   UNL     1     -10.974  16.636  66.384  1.00  0.00     0.120 C  
HETATM   31  C   UNL     1     -11.491  15.510  65.847  1.00  0.00     0.082 C  
ENDBRANCH  13  22
TORSDOF 3
ENDMDL
MODEL      162
REMARK 921   NORMALIZED FREE ENERGY PREDICTED BY IDOCK:   21.29 KCAL/MOL
REMARK 922        TOTAL FREE ENERGY PREDICTED BY IDOCK:   24.48 KCAL/MOL
REMARK 923 INTER-LIGAND FREE ENERGY PREDICTED BY IDOCK:    3.29 KCAL/MOL
REMARK 924 INTRA-LIGAND FREE ENERGY PREDICTED BY IDOCK:   21.19 KCAL/MOL
REMARK 927      BINDING AFFINITY PREDICTED BY RF-SCORE:    0.00 PKD
ROOT
HETATM    1  C   UNL     1     -12.260  13.376  66.536  1.00  0.00    -0.414 C  
HETATM    2  C   UNL     1     -11.153  13.956  67.449  1.00  0.00    -0.313 C  
HETATM    3  C   UNL     1     -10.954  12.868  68.596  1.00  0.00    -0.295 C  
HETATM    4  C   UNL     1     -11.392  15.466  67.936  1.00  0.00    -0.328 C  
HETATM    5  C   UNL     1     -10.263  15.911  68.880  1.00  0.00    -0.226 C  
HETATM    6  C   UNL     1     -11.353  16.618  66.800  1.00  0.00     0.560 C  
HETATM    7  C   UNL     1      -9.227  16.617  68.018  1.00  0.00    -0.223 C  
HETATM    8  C   UNL     1     -12.011  17.988  67.170  1.00  0.00     2.863 C  
HETATM    9  C   UNL     1     -11.837  19.021  66.024  1.00  0.00     2.953 C  
HETATM   10  C   UNL     1      -9.826  16.855  66.608  1.00  0.00    -0.295 C  
HETATM   11  C   UNL     1      -9.391  18.230  66.092  1.00  0.00    -0.146 C  
HETATM   12  C   UNL     1     -12.114  16.153  65.569  1.00  0.00     1.425 C  
HETATM   13  C   UNL     1      -8.124  18.714  66.150  1.00  0.00    -0.208 C  
HETATM   14  C   UNL     1     -10.437  19.075  65.417  1.00  0.00     0.215 C  
ENDROOT
BRANCH   3  15
HETATM   15  C   UNL     1     -10.823  11.465  67.955  1.00  0.00    -0.274 C  
BRANCH  15  16
HETATM   16  C   UNL     1     -11.299  10.205  68.659  1.00  0.00    -0.172 C  
HETATM   17  C   UNL     1      -8.974   9.078  68.364  1.00  0.00    -0.133 C  
HETATM   18  O   UNL     1     -10.617   8.243  69.897  1.00  0.00    -0.227 OA 
HETATM   19  C   UNL     1     -10.106   9.455  69.339  1.00  0.00    -0.198 C  
HETATM   20  C   UNL     1      -9.503  10.262  70.496  1.00  0.00     0.633 C  
HETATM   21  H   UNL     1      -9.892   7.788  70.309  1.00  0.00     0.000 HD 
ENDBRANCH  15  16
ENDBRANCH   3  15
BRANCH  13  22
HETATM   22  C   UNL     1      -6.951  17.884  66.276  1.00  0.00    -0.310 C  
HETATM   23  C   UNL     1      -5.460  16.341  67.475  1.00  0.00    -0.168 C  
HETATM   24  C   UNL     1      -5.475  16.323  69.011  1.00  0.00    -0.111 C  
HETATM   25  C   UNL     1      -6.835  16.744  66.966  1.00  0.00    -0.246 C  
HETATM   26  O   UNL     1      -5.696  17.632  69.536  1.00  0.00    -0.201 OA 
HETATM   27  C   UNL     1      -6.551  15.364  69.527  1.00  0.00    -0.166 C  
HETATM   28  H   UNL     1      -5.706  17.621  70.486  1.00  0.00     0.000 HD 
HETATM   29  C   UNL     1      -7.939  15.676  68.957  1.00  0.00    -0.208 C  
HETATM   30  C   UNL     1      -7.911  15.904  67.460  1.00  0.00    -0.166 C  
HETATM   31  C   UNL     1      -8.774  15.290  66.621  1.00  0.00    -0.327 C  
ENDBRANCH  13  22
TORSDOF 3
ENDMDL
MODEL      163
REMARK 921   NORMALIZED FREE ENERGY PREDICTED BY IDOCK:   21.73 KCAL/MOL
REMARK 922        TOTAL FREE ENERGY PREDICTED BY IDOCK:   25.00 KCAL/MOL
REMARK 923 INTER-LIGAND FREE ENERGY PREDICTED BY IDOCK:   11.03 KCAL/MOL
REMARK 924 INTRA-LIGAND FREE ENERGY PREDICTED BY IDOCK:   13.97 KCAL/MOL
REMARK 927      BINDING AFFINITY PREDICTED BY RF-SCORE:    0.00 PKD
ROOT
HETATM    1  C   UNL     1      -9.760  17.080  70.231  1.00  0.00     1.658 C  
HETATM    2  C   UNL     1      -9.026  15.999  69.402  1.00  0.00    -0.170 C  
HETATM    3  C   UNL     1      -7.563  15.922  70.030  1.00  0.00     0.493 C  
HETATM    4  C   UNL     1      -9.107  16.189  67.810  1.00  0.00    -0.197 C  
HETATM    5  C   UNL     1      -8.296  15.095  67.097  1.00  0.00    -0.247 C  
HETATM    6  C   UNL     1     -10.565  16.025  67.126  1.00  0.00    -0.305 C  
HETATM    7  C   UNL     1      -9.272  13.976  66.763  1.00  0.00    -0.280 C  
HETATM    8  C   UNL     1     -10.738  16.634  65.695  1.00  0.00    -0.222 C  
HETATM    9  C   UNL     1     -12.154  16.342  65.130  1.00  0.00     1.252 C  
HETATM   10  C   UNL     1     -10.716  14.480  67.013  1.00  0.00    -0.291 C  
HETATM   11  C   UNL     1     -11.642  13.947  65.915  1.00  0.00    -0.348 C  
HETATM   12  C   UNL     1     -11.612  16.737  67.968  1.00  0.00     0.342 C  
HETATM   13  C   UNL     1     -11.663  12.662  65.476  1.00  0.00    -0.446 C  
HETATM   14  C   UNL     1     -12.640  14.908  65.328  1.00  0.00     0.111 C  
ENDROOT
BRANCH   3  15
HETATM   15  C   UNL     1      -7.671  15.826  71.570  1.00  0.00     4.880 C  
BRANCH  15  16
HETATM   16  C   UNL     1      -7.496  14.512  72.314  1.00  0.00     4.406 C  
HETATM   17  C   UNL     1      -5.216  14.071  71.143  1.00  0.00    -0.147 C  
HETATM   18  O   UNL     1      -5.904  12.870  73.101  1.00  0.00     0.420 OA 
HETATM   19  C   UNL     1      -5.982  14.154  72.477  1.00  0.00     0.375 C  
HETATM   20  C   UNL     1      -5.253  15.143  73.396  1.00  0.00     0.565 C  
HETATM   21  H   UNL     1      -4.985  12.653  73.200  1.00  0.00     0.000 HD 
ENDBRANCH  15  16
ENDBRANCH   3  15
BRANCH  13  22
HETATM   22  C   UNL     1     -11.176  11.542  66.243  1.00  0.00    -0.286 C  
HETATM   23  C   UNL     1      -9.565   9.761  66.763  1.00  0.00    -0.228 C  
HETATM   24  C   UNL     1      -8.648   9.228  65.651  1.00  0.00    -0.153 C  
HETATM   25  C   UNL     1      -9.901  11.216  66.480  1.00  0.00    -0.242 C  
HETATM   26  O   UNL     1      -9.323   9.215  64.394  1.00  0.00    -0.417 OA 
HETATM   27  C   UNL     1      -7.375  10.073  65.552  1.00  0.00    -0.137 C  
HETATM   28  H   UNL     1      -8.756   8.887  63.706  1.00  0.00     0.000 HD 
HETATM   29  C   UNL     1      -7.673  11.564  65.367  1.00  0.00     0.841 C  
HETATM   30  C   UNL     1      -8.733  12.066  66.324  1.00  0.00    -0.027 C  
HETATM   31  C   UNL     1      -8.568  13.186  67.061  1.00  0.00    -0.168 C  
ENDBRANCH  13  22
TORSDOF 3
ENDMDL
MODEL      164
REMARK 921   NORMALIZED FREE ENERGY PREDICTED BY IDOCK:   22.76 KCAL/MOL
REMARK 922        TOTAL FREE ENERGY PREDICTED BY IDOCK:   26.21 KCAL/MOL
REMARK 923 INTER-LIGAND FREE ENERGY PREDICTED BY IDOCK:   26.06 KCAL/MOL
REMARK 924 INTRA-LIGAND FREE ENERGY PREDICTED BY IDOCK:    0.14 KCAL/MOL
REMARK 927      BINDING AFFINITY PREDICTED BY RF-SCORE:    0.00 PKD
ROOT
HETATM    1  C   UNL     1      -7.703  13.686  67.348  1.00  0.00    -0.156 C  
HETATM    2  C   UNL     1      -8.861  12.665  67.248  1.00  0.00    -0.196 C  
HETATM    3  C   UNL     1      -8.252  11.427  66.450  1.00  0.00    -0.124 C  
HETATM    4  C   UNL     1     -10.246  13.255  66.694  1.00  0.00    -0.265 C  
HETATM    5  C   UNL     1     -11.300  12.142  66.584  1.00  0.00    -0.405 C  
HETATM    6  C   UNL     1     -11.004  14.344  67.623  1.00  0.00    -0.294 C  
HETATM    7  C   UNL     1     -12.097  12.165  67.880  1.00  0.00    -0.027 C  
HETATM    8  C   UNL     1     -12.078  15.236  66.919  1.00  0.00     0.404 C  
HETATM    9  C   UNL     1     -12.776  16.178  67.936  1.00  0.00     2.411 C  
HETATM   10  C   UNL     1     -11.731  13.449  68.669  1.00  0.00    -0.384 C  
HETATM   11  C   UNL     1     -12.991  14.023  69.324  1.00  0.00     1.071 C  
HETATM   12  C   UNL     1      -9.995  15.335  68.181  1.00  0.00    -0.221 C  
HETATM   13  C   UNL     1     -13.907  13.295  70.013  1.00  0.00     3.149 C  
HETATM   14  C   UNL     1     -13.189  15.513  69.248  1.00  0.00     1.436 C  
ENDROOT
BRANCH   3  15
HETATM   15  C   UNL     1      -6.884  11.044  67.064  1.00  0.00    -0.109 C  
BRANCH  15  16
HETATM   16  C   UNL     1      -6.755  10.019  68.178  1.00  0.00    -0.059 C  
HETATM   17  C   UNL     1      -8.663   8.571  67.163  1.00  0.00    -0.134 C  
HETATM   18  O   UNL     1      -7.155   7.722  68.821  1.00  0.00    -0.072 OA 
HETATM   19  C   UNL     1      -7.218   8.604  67.698  1.00  0.00    -0.084 C  
HETATM   20  C   UNL     1      -6.288   8.028  66.623  1.00  0.00    -0.054 C  
HETATM   21  H   UNL     1      -7.436   6.863  68.530  1.00  0.00     0.000 HD 
ENDBRANCH  15  16
ENDBRANCH   3  15
BRANCH  13  22
HETATM   22  C   UNL     1     -13.631  12.011  70.608  1.00  0.00     1.594 C  
HETATM   23  C   UNL     1     -12.155  10.166  71.284  1.00  0.00    -0.489 C  
HETATM   24  C   UNL     1     -10.818   9.966  70.551  1.00  0.00    -0.326 C  
HETATM   25  C   UNL     1     -12.522  11.641  71.258  1.00  0.00    -0.371 C  
HETATM   26  O   UNL     1     -10.939  10.295  69.168  1.00  0.00    -0.216 OA 
HETATM   27  C   UNL     1      -9.719  10.814  71.196  1.00  0.00     4.053 C  
HETATM   28  H   UNL     1     -10.114  10.171  68.715  1.00  0.00     0.000 HD 
HETATM   29  C   UNL     1     -10.095  12.297  71.281  1.00  0.00     9.184 C  
HETATM   30  C   UNL     1     -11.497  12.509  71.811  1.00  0.00     3.627 C  
HETATM   31  C   UNL     1     -11.769  13.385  72.803  1.00  0.00     3.124 C  
ENDBRANCH  13  22
TORSDOF 3
ENDMDL
MODEL      165
REMARK 921   NORMALIZED FREE ENERGY PREDICTED BY IDOCK:   25.53 KCAL/MOL
REMARK 922        TOTAL FREE ENERGY PREDICTED BY IDOCK:   29.46 KCAL/MOL
REMARK 923 INTER-LIGAND FREE ENERGY PREDICTED BY IDOCK:    9.66 KCAL/MOL
REMARK 924 INTRA-LIGAND FREE ENERGY PREDICTED BY IDOCK:   19.80 KCAL/MOL
REMARK 927      BINDING AFFINITY PREDICTED BY RF-SCORE:    0.00 PKD
ROOT
HETATM    1  C   UNL     1      -7.455  12.891  66.717  1.00  0.00     0.448 C  
HETATM    2  C   UNL     1      -8.591  11.883  66.424  1.00  0.00    -0.077 C  
HETATM    3  C   UNL     1      -8.680  11.811  64.835  1.00  0.00     0.649 C  
HETATM    4  C   UNL     1      -9.968  12.163  67.200  1.00  0.00    -0.210 C  
HETATM    5  C   UNL     1     -11.036  11.138  66.788  1.00  0.00    -0.309 C  
HETATM    6  C   UNL     1      -9.949  11.999  68.811  1.00  0.00    -0.086 C  
HETATM    7  C   UNL     1     -10.979  10.012  67.810  1.00  0.00    -0.310 C  
HETATM    8  C   UNL     1     -11.114  12.685  69.597  1.00  0.00     0.030 C  
HETATM    9  C   UNL     1     -11.015  12.386  71.117  1.00  0.00     3.912 C  
HETATM   10  C   UNL     1     -10.085  10.458  68.996  1.00  0.00    -0.227 C  
HETATM   11  C   UNL     1     -10.694   9.964  70.311  1.00  0.00    -0.367 C  
HETATM   12  C   UNL     1      -8.687  12.629  69.377  1.00  0.00     1.257 C  
HETATM   13  C   UNL     1     -11.162   8.707  70.524  1.00  0.00    -0.266 C  
HETATM   14  C   UNL     1     -10.717  10.929  71.466  1.00  0.00     3.370 C  
ENDROOT
BRANCH   3  15
HETATM   15  C   UNL     1      -7.259  11.622  64.251  1.00  0.00     2.724 C  
BRANCH  15  16
HETATM   16  C   UNL     1      -6.454  10.353  64.474  1.00  0.00    -0.039 C  
HETATM   17  C   UNL     1      -8.545   9.102  65.386  1.00  0.00    -0.192 C  
HETATM   18  O   UNL     1      -6.558   7.947  64.703  1.00  0.00    -0.051 OA 
HETATM   19  C   UNL     1      -7.366   9.085  64.393  1.00  0.00    -0.099 C  
HETATM   20  C   UNL     1      -7.924   8.867  62.980  1.00  0.00    -0.161 C  
HETATM   21  H   UNL     1      -7.112   7.178  64.653  1.00  0.00     0.000 HD 
ENDBRANCH  15  16
ENDBRANCH   3  15
BRANCH  13  22
HETATM   22  C   UNL     1     -10.764   7.559  69.748  1.00  0.00    -0.249 C  
HETATM   23  C   UNL     1      -9.911   6.453  67.726  1.00  0.00    -0.147 C  
HETATM   24  C   UNL     1     -10.056   7.156  66.367  1.00  0.00     0.020 C  
HETATM   25  C   UNL     1      -9.801   7.501  68.821  1.00  0.00    -0.166 C  
HETATM   26  O   UNL     1     -11.277   7.892  66.300  1.00  0.00     0.751 OA 
HETATM   27  C   UNL     1      -8.868   8.088  66.114  1.00  0.00    -0.198 C  
HETATM   28  H   UNL     1     -11.366   8.327  65.460  1.00  0.00     0.000 HD 
HETATM   29  C   UNL     1      -8.662   9.097  67.247  1.00  0.00    -0.122 C  
HETATM   30  C   UNL     1      -8.723   8.452  68.616  1.00  0.00    -0.133 C  
HETATM   31  C   UNL     1      -7.781   8.670  69.559  1.00  0.00    -0.090 C  
ENDBRANCH  13  22
TORSDOF 3
ENDMDL
MODEL      166
REMARK 921   NORMALIZED FREE ENERGY PREDICTED BY IDOCK:   28.94 KCAL/MOL
REMARK 922        TOTAL FREE ENERGY PREDICTED BY IDOCK:   33.47 KCAL/MOL
REMARK 923 INTER-LIGAND FREE ENERGY PREDICTED BY IDOCK:   15.33 KCAL/MOL
REMARK 924 INTRA-LIGAND FREE ENERGY PREDICTED BY IDOCK:   18.14 KCAL/MOL
REMARK 927      BINDING AFFINITY PREDICTED BY RF-SCORE:    0.00 PKD
ROOT
HETATM    1  C   UNL     1     -10.899  16.603  70.814  1.00  0.00     0.347 C  
HETATM    2  C   UNL     1     -10.103  15.285  70.963  1.00  0.00     0.870 C  
HETATM    3  C   UNL     1     -10.765  14.542  72.208  1.00  0.00     2.409 C  
HETATM    4  C   UNL     1      -8.507  15.452  71.003  1.00  0.00     2.898 C  
HETATM    5  C   UNL     1      -7.829  14.089  71.212  1.00  0.00     4.658 C  
HETATM    6  C   UNL     1      -7.791  15.979  69.650  1.00  0.00     0.088 C  
HETATM    7  C   UNL     1      -7.488  13.554  69.829  1.00  0.00     0.752 C  
HETATM    8  C   UNL     1      -6.348  16.562  69.805  1.00  0.00    -0.183 C  
HETATM    9  C   UNL     1      -5.753  16.959  68.427  1.00  0.00    -0.130 C  
HETATM   10  C   UNL     1      -7.697  14.685  68.790  1.00  0.00    -0.137 C  
HETATM   11  C   UNL     1      -6.585  14.624  67.738  1.00  0.00    -0.189 C  
HETATM   12  C   UNL     1      -8.598  17.120  69.052  1.00  0.00    -0.101 C  
HETATM   13  C   UNL     1      -6.164  13.491  67.119  1.00  0.00     0.559 C  
HETATM   14  C   UNL     1      -5.961  15.928  67.319  1.00  0.00    -0.056 C  
ENDROOT
BRANCH   3  15
HETATM   15  C   UNL     1     -12.304  14.545  72.046  1.00  0.00    -0.367 C  
BRANCH  15  16
HETATM   16  C   UNL     1     -12.994  13.916  70.847  1.00  0.00    -0.316 C  
HETATM   17  C   UNL     1     -10.899  12.471  70.310  1.00  0.00     1.427 C  
HETATM   18  O   UNL     1     -13.052  12.008  69.362  1.00  0.00     0.960 OA 
HETATM   19  C   UNL     1     -12.421  12.491  70.550  1.00  0.00    -0.185 C  
HETATM   20  C   UNL     1     -12.750  11.495  71.669  1.00  0.00    -0.396 C  
HETATM   21  H   UNL     1     -12.704  11.143  69.182  1.00  0.00     0.000 HD 
ENDBRANCH  15  16
ENDBRANCH   3  15
BRANCH  13  22
HETATM   22  C   UNL     1      -6.958  12.292  67.010  1.00  0.00    -0.036 C  
HETATM   23  C   UNL     1      -7.616  10.017  67.664  1.00  0.00    -0.091 C  
HETATM   24  C   UNL     1      -6.598   9.118  68.386  1.00  0.00    -0.059 C  
HETATM   25  C   UNL     1      -7.325  11.471  68.000  1.00  0.00    -0.091 C  
HETATM   26  O   UNL     1      -5.276   9.353  67.903  1.00  0.00    -0.037 OA 
HETATM   27  C   UNL     1      -6.652   9.351  69.898  1.00  0.00    -0.055 C  
HETATM   28  H   UNL     1      -4.647   8.798  68.349  1.00  0.00     0.000 HD 
HETATM   29  C   UNL     1      -6.463  10.825  70.272  1.00  0.00    -0.128 C  
HETATM   30  C   UNL     1      -7.310  11.751  69.425  1.00  0.00     0.136 C  
HETATM   31  C   UNL     1      -8.081  12.720  69.964  1.00  0.00     2.784 C  
ENDBRANCH  13  22
TORSDOF 3
ENDMDL
MODEL      167
REMARK 921   NORMALIZED FREE ENERGY PREDICTED BY IDOCK:   33.10 KCAL/MOL
REMARK 922        TOTAL FREE ENERGY PREDICTED BY IDOCK:   38.36 KCAL/MOL
REMARK 923 INTER-LIGAND FREE ENERGY PREDICTED BY IDOCK:   35.80 KCAL/MOL
REMARK 924 INTRA-LIGAND FREE ENERGY PREDICTED BY IDOCK:    2.56 KCAL/MOL
REMARK 927      BINDING AFFINITY PREDICTED BY RF-SCORE:    0.00 PKD
ROOT
HETATM    1  C   UNL     1     -10.339  11.764  70.353  1.00  0.00     2.498 C  
HETATM    2  C   UNL     1      -9.036  11.908  69.531  1.00  0.00     1.230 C  
HETATM    3  C   UNL     1      -8.386  10.453  69.532  1.00  0.00    -0.126 C  
HETATM    4  C   UNL     1      -8.078  13.115  69.976  1.00  0.00     2.545 C  
HETATM    5  C   UNL     1      -6.794  13.123  69.131  1.00  0.00    -0.062 C  
HETATM    6  C   UNL     1      -8.637  14.618  69.750  1.00  0.00     0.424 C  
HETATM    7  C   UNL     1      -7.040  14.077  67.972  1.00  0.00    -0.147 C  
HETATM    8  C   UNL     1      -7.938  15.754  70.566  1.00  0.00     1.715 C  
HETATM    9  C   UNL     1      -8.519  17.146  70.199  1.00  0.00     2.429 C  
HETATM   10  C   UNL     1      -8.349  14.863  68.239  1.00  0.00    -0.148 C  
HETATM   11  C   UNL     1      -8.174  16.316  67.789  1.00  0.00    -0.158 C  
HETATM   12  C   UNL     1     -10.096  14.692  70.171  1.00  0.00     0.436 C  
HETATM   13  C   UNL     1      -7.631  16.701  66.605  1.00  0.00    -0.314 C  
HETATM   14  C   UNL     1      -8.702  17.390  68.702  1.00  0.00    -0.261 C  
ENDROOT
BRANCH   3  15
HETATM   15  C   UNL     1      -9.465   9.408  69.163  1.00  0.00    -0.163 C  
BRANCH  15  16
HETATM   16  C   UNL     1      -9.114   7.977  68.790  1.00  0.00    -0.144 C  
HETATM   17  C   UNL     1      -8.681   7.360  71.279  1.00  0.00    -0.126 C  
HETATM   18  O   UNL     1      -8.972   5.695  69.579  1.00  0.00    -0.117 OA 
HETATM   19  C   UNL     1      -9.412   6.997  69.972  1.00  0.00    -0.161 C  
HETATM   20  C   UNL     1     -10.914   6.892  70.268  1.00  0.00    -0.322 C  
HETATM   21  H   UNL     1      -9.153   5.101  70.297  1.00  0.00     0.000 HD 
ENDBRANCH  15  16
ENDBRANCH   3  15
BRANCH  13  22
HETATM   22  C   UNL     1      -7.556  15.852  65.442  1.00  0.00     4.302 C  
HETATM   23  C   UNL     1      -7.732  13.701  64.267  1.00  0.00    13.685 C  
HETATM   24  C   UNL     1      -7.588  12.395  65.065  1.00  0.00     4.329 C  
HETATM   25  C   UNL     1      -8.307  14.779  65.172  1.00  0.00     4.803 C  
HETATM   26  O   UNL     1      -6.637  12.541  66.119  1.00  0.00     0.398 OA 
HETATM   27  C   UNL     1      -8.941  11.963  65.638  1.00  0.00     0.107 C  
HETATM   28  H   UNL     1      -6.548  11.735  66.612  1.00  0.00     0.000 HD 
HETATM   29  C   UNL     1      -9.602  13.062  66.476  1.00  0.00    -0.260 C  
HETATM   30  C   UNL     1      -9.569  14.411  65.791  1.00  0.00    -0.216 C  
HETATM   31  C   UNL     1     -10.667  15.189  65.675  1.00  0.00    -0.374 C  
ENDBRANCH  13  22
TORSDOF 3
ENDMDL
MODEL      168
REMARK 921   NORMALIZED FREE ENERGY PREDICTED BY IDOCK:   37.29 KCAL/MOL
REMARK 922        TOTAL FREE ENERGY PREDICTED BY IDOCK:   43.29 KCAL/MOL
REMARK 923 INTER-LIGAND FREE ENERGY PREDICTED BY IDOCK:   42.61 KCAL/MOL
REMARK 924 INTRA-LIGAND FREE ENERGY PREDICTED BY IDOCK:    0.67 KCAL/MOL
REMARK 927      BINDING AFFINITY PREDICTED BY RF-SCORE:    0.00 PKD
ROOT
HETATM    1  C   UNL     1     -13.196  13.069  70.202  1.00  0.00     0.949 C  
HETATM    2  C   UNL     1     -11.698  13.188  69.832  1.00  0.00    -0.327 C  
HETATM    3  C   UNL     1     -11.345  11.817  69.101  1.00  0.00    -0.340 C  
HETATM    4  C   UNL     1     -10.730  13.620  71.037  1.00  0.00     2.986 C  
HETATM    5  C   UNL     1      -9.267  13.647  70.568  1.00  0.00     4.545 C  
HETATM    6  C   UNL     1     -10.920  15.114  71.631  1.00  0.00    -0.032 C  
HETATM    7  C   UNL     1      -8.970  15.079  70.147  1.00  0.00     0.597 C  
HETATM    8  C   UNL     1     -10.322  15.384  73.051  1.00  0.00     3.827 C  
HETATM    9  C   UNL     1     -10.508  16.869  73.464  1.00  0.00     6.282 C  
HETATM   10  C   UNL     1     -10.138  15.988  70.606  1.00  0.00     0.772 C  
HETATM   11  C   UNL     1      -9.582  17.324  71.108  1.00  0.00     5.369 C  
HETATM   12  C   UNL     1     -12.401  15.425  71.778  1.00  0.00    -0.453 C  
HETATM   13  C   UNL     1      -8.639  18.061  70.466  1.00  0.00     4.224 C  
HETATM   14  C   UNL     1     -10.171  17.885  72.374  1.00  0.00     5.991 C  
ENDROOT
BRANCH   3  15
HETATM   15  C   UNL     1     -12.421  11.514  68.031  1.00  0.00     1.121 C  
BRANCH  15  16
HETATM   16  C   UNL     1     -13.500  12.519  67.662  1.00  0.00     6.853 C  
HETATM   17  C   UNL     1     -11.719  14.295  67.001  1.00  0.00    -0.427 C  
HETATM   18  O   UNL     1     -14.020  14.486  66.355  1.00  0.00     2.214 OA 
HETATM   19  C   UNL     1     -12.986  13.526  66.581  1.00  0.00     0.905 C  
HETATM   20  C   UNL     1     -12.714  12.838  65.237  1.00  0.00    -0.332 C  
HETATM   21  H   UNL     1     -13.708  15.098  65.699  1.00  0.00     0.000 HD 
ENDBRANCH  15  16
ENDBRANCH   3  15
BRANCH  13  22
HETATM   22  C   UNL     1      -8.356  17.951  69.056  1.00  0.00    -0.029 C  
HETATM   23  C   UNL     1      -7.778  18.858  66.846  1.00  0.00    -0.250 C  
HETATM   24  C   UNL     1      -8.086  20.332  66.535  1.00  0.00    -0.219 C  
HETATM   25  C   UNL     1      -7.519  18.706  68.336  1.00  0.00    -0.320 C  
HETATM   26  O   UNL     1      -9.296  20.746  67.167  1.00  0.00    -0.594 OA 
HETATM   27  C   UNL     1      -6.929  21.229  66.982  1.00  0.00    -0.233 C  
HETATM   28  H   UNL     1      -9.486  21.656  66.975  1.00  0.00     0.000 HD 
HETATM   29  C   UNL     1      -6.569  21.032  68.458  1.00  0.00     0.062 C  
HETATM   30  C   UNL     1      -6.463  19.570  68.837  1.00  0.00    -0.326 C  
HETATM   31  C   UNL     1      -5.407  19.075  69.519  1.00  0.00    -0.204 C  
ENDBRANCH  13  22
TORSDOF 3
ENDMDL
MODEL      169
REMARK 921   NORMALIZED FREE ENERGY PREDICTED BY IDOCK:   72.91 KCAL/MOL
REMARK 922        TOTAL FREE ENERGY PREDICTED BY IDOCK:   85.16 KCAL/MOL
REMARK 923 INTER-LIGAND FREE ENERGY PREDICTED BY IDOCK:   86.02 KCAL/MOL
REMARK 924 INTRA-LIGAND FREE ENERGY PREDICTED BY IDOCK:   -0.87 KCAL/MOL
REMARK 927      BINDING AFFINITY PREDICTED BY RF-SCORE:    0.00 PKD
ROOT
HETATM    1  C   UNL     1     -12.158   8.906  66.869  1.00  0.00     6.516 C  
HETATM    2  C   UNL     1     -11.715  10.103  67.744  1.00  0.00     0.806 C  
HETATM    3  C   UNL     1     -11.746   9.554  69.239  1.00  0.00     0.415 C  
HETATM    4  C   UNL     1     -12.504  11.474  67.473  1.00  0.00     1.648 C  
HETATM    5  C   UNL     1     -12.021  12.571  68.436  1.00  0.00    -0.271 C  
HETATM    6  C   UNL     1     -12.284  12.175  66.030  1.00  0.00     0.109 C  
HETATM    7  C   UNL     1     -10.933  13.345  67.707  1.00  0.00    -0.281 C  
HETATM    8  C   UNL     1     -13.356  13.227  65.594  1.00  0.00     0.884 C  
HETATM    9  C   UNL     1     -12.985  13.872  64.231  1.00  0.00     0.460 C  
HETATM   10  C   UNL     1     -10.929  12.918  66.217  1.00  0.00    -0.305 C  
HETATM   11  C   UNL     1     -10.677  14.144  65.334  1.00  0.00    -0.350 C  
HETATM   12  C   UNL     1     -12.321  11.120  64.936  1.00  0.00     1.861 C  
HETATM   13  C   UNL     1      -9.715  15.075  65.557  1.00  0.00    -0.294 C  
HETATM   14  C   UNL     1     -11.521  14.288  64.096  1.00  0.00    -0.149 C  
ENDROOT
BRANCH   3  15
HETATM   15  C   UNL     1     -11.015   8.192  69.301  1.00  0.00     0.030 C  
BRANCH  15  16
HETATM   16  C   UNL     1      -9.870   7.930  70.265  1.00  0.00    -0.184 C  
HETATM   17  C   UNL     1     -11.432   8.252  72.320  1.00  0.00    -0.452 C  
HETATM   18  O   UNL     1      -9.276   7.220  72.500  1.00  0.00    -0.136 OA 
HETATM   19  C   UNL     1     -10.395   7.352  71.621  1.00  0.00    -0.196 C  
HETATM   20  C   UNL     1     -11.000   5.952  71.453  1.00  0.00    -0.327 C  
HETATM   21  H   UNL     1      -9.595   6.869  73.322  1.00  0.00     0.000 HD 
ENDBRANCH  15  16
ENDBRANCH   3  15
BRANCH  13  22
HETATM   22  C   UNL     1      -8.534  14.837  66.352  1.00  0.00     0.167 C  
HETATM   23  C   UNL     1      -6.278  13.941  66.735  1.00  0.00     2.027 C  
HETATM   24  C   UNL     1      -5.787  12.755  65.889  1.00  0.00     4.210 C  
HETATM   25  C   UNL     1      -7.271  14.757  65.922  1.00  0.00     5.051 C  
HETATM   26  O   UNL     1      -6.857  11.857  65.599  1.00  0.00     0.370 OA 
HETATM   27  C   UNL     1      -5.151  13.250  64.587  1.00  0.00    11.419 C  
HETATM   28  H   UNL     1      -6.554  11.124  65.076  1.00  0.00     0.000 HD 
HETATM   29  C   UNL     1      -6.086  14.160  63.785  1.00  0.00    24.634 C  
HETATM   30  C   UNL     1      -6.746  15.216  64.647  1.00  0.00    17.038 C  
HETATM   31  C   UNL     1      -6.765  16.521  64.301  1.00  0.00    11.320 C  
ENDBRANCH  13  22
TORSDOF 3
ENDMDL
