MODEL        1
REMARK 921   NORMALIZED FREE ENERGY PREDICTED BY IDOCK:   -8.54 KCAL/MOL
REMARK 922        TOTAL FREE ENERGY PREDICTED BY IDOCK:  -11.00 KCAL/MOL
REMARK 923 INTER-LIGAND FREE ENERGY PREDICTED BY IDOCK:  -10.04 KCAL/MOL
REMARK 924 INTRA-LIGAND FREE ENERGY PREDICTED BY IDOCK:   -0.96 KCAL/MOL
REMARK 927      BINDING AFFINITY PREDICTED BY RF-SCORE:    0.00 PKD
ROOT
HETATM    1  C   UNL     1      -9.953   9.310  68.719  1.00  0.00    -0.193 C  
HETATM    2  C   UNL     1     -10.667  10.524  69.332  1.00  0.00    -0.277 C  
HETATM    3  C   UNL     1     -11.390  10.065  70.638  1.00  0.00    -0.425 C  
HETATM    4  C   UNL     1     -11.674  11.344  68.380  1.00  0.00    -0.373 C  
HETATM    5  C   UNL     1     -10.068  14.128  65.284  1.00  0.00    -0.364 C  
HETATM    6  C   UNL     1     -12.099  12.605  69.129  1.00  0.00    -0.191 C  
HETATM    7  C   UNL     1     -10.917  13.541  68.957  1.00  0.00    -0.264 C  
HETATM    8  C   UNL     1     -12.082  12.673  66.045  1.00  0.00    -0.429 C  
HETATM    9  C   UNL     1     -11.089  11.977  67.040  1.00  0.00    -0.351 C  
HETATM   10  C   UNL     1     -10.184  13.153  67.625  1.00  0.00    -0.224 C  
HETATM   11  C   UNL     1     -10.479  10.839  66.186  1.00  0.00    -0.278 C  
HETATM   12  C   UNL     1     -10.040  14.415  66.752  1.00  0.00    -0.266 C  
HETATM   13  C   UNL     1     -11.318  13.354  64.869  1.00  0.00    -0.345 C  
HETATM   14  C   UNL     1      -9.986  15.659  67.280  1.00  0.00    -0.236 C  
ENDROOT
BRANCH   3  15
HETATM   15  C   UNL     1     -10.582   9.182  71.602  1.00  0.00    -0.427 C  
BRANCH  15  16
HETATM   16  C   UNL     1     -11.437   8.156  72.356  1.00  0.00    -0.462 C  
HETATM   17  O   UNL     1     -12.101   5.877  72.699  1.00  0.00    -0.528 OA 
HETATM   18  C   UNL     1      -9.812   6.198  72.179  1.00  0.00    -0.174 C  
HETATM   19  C   UNL     1     -11.607   6.495  70.443  1.00  0.00    -0.470 C  
HETATM   20  C   UNL     1     -11.233   6.695  71.910  1.00  0.00    -0.264 C  
HETATM   21  H   UNL     1     -11.974   4.976  72.424  1.00  0.00     0.000 HD 
ENDBRANCH  15  16
ENDBRANCH   3  15
BRANCH  14  22
HETATM   22  C   UNL     1     -10.405  16.897  66.642  1.00  0.00    -0.299 C  
HETATM   23  C   UNL     1     -10.303  19.375  66.286  1.00  0.00    -0.584 C  
HETATM   24  C   UNL     1      -9.919  20.415  67.358  1.00  0.00    -0.416 C  
HETATM   25  C   UNL     1      -9.662  18.023  66.561  1.00  0.00    -0.338 C  
HETATM   26  O   UNL     1     -10.540  20.122  68.614  1.00  0.00    -0.447 OA 
HETATM   27  C   UNL     1      -8.406  20.509  67.545  1.00  0.00    -0.310 C  
HETATM   28  H   UNL     1     -10.303  20.763  69.273  1.00  0.00     0.000 HD 
HETATM   29  C   UNL     1      -7.786  19.139  67.830  1.00  0.00    -0.285 C  
HETATM   30  C   UNL     1      -8.223  18.102  66.800  1.00  0.00    -0.270 C  
HETATM   31  O   UNL     1      -6.365  19.277  67.856  1.00  0.00    -0.213 OA 
HETATM   32  C   UNL     1      -7.358  17.349  66.083  1.00  0.00    -0.331 C  
HETATM   33  H   UNL     1      -5.979  18.427  68.033  1.00  0.00     0.000 HD 
ENDBRANCH  14  22
TORSDOF 3
ENDMDL
MODEL        2
REMARK 921   NORMALIZED FREE ENERGY PREDICTED BY IDOCK:   -8.47 KCAL/MOL
REMARK 922        TOTAL FREE ENERGY PREDICTED BY IDOCK:  -10.92 KCAL/MOL
REMARK 923 INTER-LIGAND FREE ENERGY PREDICTED BY IDOCK:   -9.54 KCAL/MOL
REMARK 924 INTRA-LIGAND FREE ENERGY PREDICTED BY IDOCK:   -1.39 KCAL/MOL
REMARK 927      BINDING AFFINITY PREDICTED BY RF-SCORE:    0.00 PKD
ROOT
HETATM    1  C   UNL     1     -11.244  11.124  67.865  1.00  0.00    -0.365 C  
HETATM    2  C   UNL     1     -11.282  12.257  68.901  1.00  0.00    -0.323 C  
HETATM    3  C   UNL     1     -12.386  11.925  69.956  1.00  0.00    -0.202 C  
HETATM    4  C   UNL     1     -11.457  13.758  68.346  1.00  0.00    -0.351 C  
HETATM    5  C   UNL     1      -8.002  15.878  66.482  1.00  0.00    -0.231 C  
HETATM    6  C   UNL     1     -11.264  14.714  69.519  1.00  0.00    -0.300 C  
HETATM    7  C   UNL     1      -9.757  14.779  69.686  1.00  0.00     0.107 C  
HETATM    8  C   UNL     1     -10.588  15.725  66.685  1.00  0.00    -0.307 C  
HETATM    9  C   UNL     1     -10.364  14.311  67.327  1.00  0.00    -0.260 C  
HETATM   10  C   UNL     1      -9.104  14.480  68.291  1.00  0.00    -0.196 C  
HETATM   11  C   UNL     1     -10.319  13.372  66.098  1.00  0.00    -0.295 C  
HETATM   12  C   UNL     1      -8.119  15.615  67.949  1.00  0.00    -0.149 C  
HETATM   13  C   UNL     1      -9.356  16.159  65.833  1.00  0.00    -0.316 C  
HETATM   14  C   UNL     1      -7.501  16.349  68.903  1.00  0.00    -0.214 C  
ENDROOT
BRANCH   3  15
HETATM   15  C   UNL     1     -12.409  10.489  70.503  1.00  0.00    -0.432 C  
BRANCH  15  16
HETATM   16  C   UNL     1     -13.138  10.357  71.846  1.00  0.00    -0.563 C  
HETATM   17  O   UNL     1     -14.043   8.962  73.574  1.00  0.00    -1.189 OA 
HETATM   18  C   UNL     1     -12.029   8.185  72.597  1.00  0.00    -0.353 C  
HETATM   19  C   UNL     1     -14.211   8.111  71.346  1.00  0.00    -0.431 C  
HETATM   20  C   UNL     1     -13.350   8.907  72.324  1.00  0.00    -0.449 C  
HETATM   21  H   UNL     1     -14.173   8.068  73.869  1.00  0.00     0.000 HD 
ENDBRANCH  15  16
ENDBRANCH   3  15
BRANCH  14  22
HETATM   22  C   UNL     1      -7.034  17.721  68.782  1.00  0.00    -0.257 C  
HETATM   23  C   UNL     1      -7.158  20.053  67.876  1.00  0.00    -0.319 C  
HETATM   24  C   UNL     1      -7.718  20.445  66.493  1.00  0.00    -0.191 C  
HETATM   25  C   UNL     1      -7.791  18.772  68.395  1.00  0.00    -0.351 C  
HETATM   26  O   UNL     1      -7.270  19.543  65.476  1.00  0.00    -0.355 OA 
HETATM   27  C   UNL     1      -9.244  20.499  66.492  1.00  0.00    -0.232 C  
HETATM   28  H   UNL     1      -7.615  19.785  64.624  1.00  0.00     0.000 HD 
HETATM   29  C   UNL     1      -9.858  19.196  67.008  1.00  0.00    -0.336 C  
HETATM   30  C   UNL     1      -9.251  18.785  68.347  1.00  0.00    -0.376 C  
HETATM   31  O   UNL     1     -11.272  19.365  67.111  1.00  0.00    -0.351 OA 
HETATM   32  C   UNL     1      -9.984  18.522  69.451  1.00  0.00     0.051 C  
HETATM   33  H   UNL     1     -11.653  18.556  67.432  1.00  0.00     0.000 HD 
ENDBRANCH  14  22
TORSDOF 3
ENDMDL
MODEL        3
REMARK 921   NORMALIZED FREE ENERGY PREDICTED BY IDOCK:   -7.87 KCAL/MOL
REMARK 922        TOTAL FREE ENERGY PREDICTED BY IDOCK:  -10.21 KCAL/MOL
REMARK 923 INTER-LIGAND FREE ENERGY PREDICTED BY IDOCK:   -9.05 KCAL/MOL
REMARK 924 INTRA-LIGAND FREE ENERGY PREDICTED BY IDOCK:   -1.16 KCAL/MOL
REMARK 927      BINDING AFFINITY PREDICTED BY RF-SCORE:    0.00 PKD
ROOT
HETATM    1  C   UNL     1     -11.732  10.259  68.239  1.00  0.00     0.169 C  
HETATM    2  C   UNL     1     -11.356  11.532  69.010  1.00  0.00    -0.339 C  
HETATM    3  C   UNL     1     -11.791  11.354  70.500  1.00  0.00    -0.394 C  
HETATM    4  C   UNL     1     -11.889  12.933  68.423  1.00  0.00    -0.357 C  
HETATM    5  C   UNL     1      -9.918  14.771  64.867  1.00  0.00    -0.089 C  
HETATM    6  C   UNL     1     -11.231  14.054  69.224  1.00  0.00    -0.304 C  
HETATM    7  C   UNL     1      -9.837  14.150  68.630  1.00  0.00    -0.206 C  
HETATM    8  C   UNL     1     -12.071  14.638  66.315  1.00  0.00    -0.213 C  
HETATM    9  C   UNL     1     -11.462  13.335  66.941  1.00  0.00    -0.376 C  
HETATM   10  C   UNL     1      -9.911  13.651  67.145  1.00  0.00    -0.242 C  
HETATM   11  C   UNL     1     -11.939  12.225  65.976  1.00  0.00    -0.342 C  
HETATM   12  C   UNL     1      -9.299  14.728  66.227  1.00  0.00    -0.310 C  
HETATM   13  C   UNL     1     -11.434  14.946  64.925  1.00  0.00    -0.407 C  
HETATM   14  C   UNL     1      -8.357  15.597  66.660  1.00  0.00    -0.310 C  
ENDROOT
BRANCH   3  15
HETATM   15  C   UNL     1     -11.441  10.015  71.167  1.00  0.00    -0.432 C  
BRANCH  15  16
HETATM   16  C   UNL     1     -12.669   9.170  71.526  1.00  0.00    -0.409 C  
HETATM   17  O   UNL     1     -13.621   7.032  72.050  1.00  0.00    -0.541 OA 
HETATM   18  C   UNL     1     -11.450   7.412  72.916  1.00  0.00    -0.269 C  
HETATM   19  C   UNL     1     -11.834   7.022  70.461  1.00  0.00    -0.337 C  
HETATM   20  C   UNL     1     -12.381   7.670  71.731  1.00  0.00    -0.319 C  
HETATM   21  H   UNL     1     -13.443   6.107  72.176  1.00  0.00     0.000 HD 
ENDBRANCH  15  16
ENDBRANCH   3  15
BRANCH  14  22
HETATM   22  C   UNL     1      -8.110  16.939  66.154  1.00  0.00    -0.295 C  
HETATM   23  C   UNL     1      -8.557  19.401  66.036  1.00  0.00    -0.196 C  
HETATM   24  C   UNL     1      -9.927  20.071  66.271  1.00  0.00    -0.481 C  
HETATM   25  C   UNL     1      -8.441  18.085  66.790  1.00  0.00    -0.274 C  
HETATM   26  O   UNL     1     -10.978  19.347  65.625  1.00  0.00    -0.373 OA 
HETATM   27  C   UNL     1     -10.244  20.214  67.758  1.00  0.00    -0.514 C  
HETATM   28  H   UNL     1     -11.821  19.760  65.769  1.00  0.00     0.000 HD 
HETATM   29  C   UNL     1     -10.130  18.876  68.492  1.00  0.00    -0.402 C  
HETATM   30  C   UNL     1      -8.797  18.192  68.203  1.00  0.00    -0.289 C  
HETATM   31  O   UNL     1     -10.301  19.106  69.891  1.00  0.00    -0.239 OA 
HETATM   32  C   UNL     1      -7.946  17.775  69.166  1.00  0.00     0.042 C  
HETATM   33  H   UNL     1     -10.230  18.276  70.347  1.00  0.00     0.000 HD 
ENDBRANCH  14  22
TORSDOF 3
ENDMDL
MODEL        4
REMARK 921   NORMALIZED FREE ENERGY PREDICTED BY IDOCK:   -7.60 KCAL/MOL
REMARK 922        TOTAL FREE ENERGY PREDICTED BY IDOCK:   -9.89 KCAL/MOL
REMARK 923 INTER-LIGAND FREE ENERGY PREDICTED BY IDOCK:   -8.27 KCAL/MOL
REMARK 924 INTRA-LIGAND FREE ENERGY PREDICTED BY IDOCK:   -1.62 KCAL/MOL
REMARK 927      BINDING AFFINITY PREDICTED BY RF-SCORE:    0.00 PKD
ROOT
HETATM    1  C   UNL     1     -12.352  12.593  69.871  1.00  0.00    -0.126 C  
HETATM    2  C   UNL     1     -11.407  11.686  69.069  1.00  0.00    -0.337 C  
HETATM    3  C   UNL     1     -11.501  12.084  67.562  1.00  0.00    -0.403 C  
HETATM    4  C   UNL     1     -11.581  10.097  69.252  1.00  0.00    -0.120 C  
HETATM    5  C   UNL     1     -10.045   8.079  72.923  1.00  0.00    -0.376 C  
HETATM    6  C   UNL     1     -10.421   9.416  68.530  1.00  0.00    -0.239 C  
HETATM    7  C   UNL     1      -9.260   9.563  69.497  1.00  0.00    -0.198 C  
HETATM    8  C   UNL     1     -11.705   7.961  70.928  1.00  0.00    -0.271 C  
HETATM    9  C   UNL     1     -11.419   9.489  70.716  1.00  0.00    -0.378 C  
HETATM   10  C   UNL     1      -9.850   9.660  70.948  1.00  0.00    -0.168 C  
HETATM   11  C   UNL     1     -12.451  10.171  71.646  1.00  0.00    -0.506 C  
HETATM   12  C   UNL     1      -9.163   8.605  71.836  1.00  0.00    -0.345 C  
HETATM   13  C   UNL     1     -11.359   7.519  72.382  1.00  0.00    -0.360 C  
HETATM   14  C   UNL     1      -7.914   8.149  71.585  1.00  0.00    -0.144 C  
ENDROOT
BRANCH   3  15
HETATM   15  C   UNL     1     -11.455  13.586  67.239  1.00  0.00    -0.369 C  
BRANCH  15  16
HETATM   16  C   UNL     1     -12.306  13.979  66.024  1.00  0.00    -0.504 C  
HETATM   17  O   UNL     1     -12.433  14.722  63.748  1.00  0.00    -1.045 OA 
HETATM   18  C   UNL     1     -10.658  13.229  64.227  1.00  0.00    -0.402 C  
HETATM   19  C   UNL     1     -10.628  15.609  65.039  1.00  0.00    -0.422 C  
HETATM   20  C   UNL     1     -11.498  14.383  64.775  1.00  0.00    -0.402 C  
HETATM   21  H   UNL     1     -11.935  14.972  62.978  1.00  0.00     0.000 HD 
ENDBRANCH  15  16
ENDBRANCH   3  15
BRANCH  14  22
HETATM   22  C   UNL     1      -7.375   6.844  71.936  1.00  0.00    -0.087 C  
HETATM   23  C   UNL     1      -7.469   4.344  72.049  1.00  0.00    -0.075 C  
HETATM   24  C   UNL     1      -8.757   3.503  72.166  1.00  0.00    -0.087 C  
HETATM   25  C   UNL     1      -7.728   5.674  71.359  1.00  0.00    -0.109 C  
HETATM   26  O   UNL     1      -9.667   4.075  73.111  1.00  0.00    -0.121 OA 
HETATM   27  C   UNL     1      -9.456   3.341  70.818  1.00  0.00    -0.237 C  
HETATM   28  H   UNL     1     -10.460   3.556  73.183  1.00  0.00     0.000 HD 
HETATM   29  C   UNL     1      -9.714   4.692  70.148  1.00  0.00    -0.215 C  
HETATM   30  C   UNL     1      -8.447   5.541  70.094  1.00  0.00    -0.117 C  
HETATM   31  O   UNL     1     -10.239   4.462  68.840  1.00  0.00    -0.007 OA 
HETATM   32  C   UNL     1      -7.955   6.079  68.956  1.00  0.00    -0.104 C  
HETATM   33  H   UNL     1     -10.399   5.301  68.424  1.00  0.00     0.000 HD 
ENDBRANCH  14  22
TORSDOF 3
ENDMDL
MODEL        5
REMARK 921   NORMALIZED FREE ENERGY PREDICTED BY IDOCK:   -7.55 KCAL/MOL
REMARK 922        TOTAL FREE ENERGY PREDICTED BY IDOCK:   -9.84 KCAL/MOL
REMARK 923 INTER-LIGAND FREE ENERGY PREDICTED BY IDOCK:   -9.03 KCAL/MOL
REMARK 924 INTRA-LIGAND FREE ENERGY PREDICTED BY IDOCK:   -0.82 KCAL/MOL
REMARK 927      BINDING AFFINITY PREDICTED BY RF-SCORE:    0.00 PKD
ROOT
HETATM    1  C   UNL     1      -9.900   9.048  67.469  1.00  0.00    -0.230 C  
HETATM    2  C   UNL     1     -10.513  10.172  68.317  1.00  0.00    -0.244 C  
HETATM    3  C   UNL     1     -11.106   9.543  69.618  1.00  0.00    -0.196 C  
HETATM    4  C   UNL     1     -11.593  11.128  67.602  1.00  0.00    -0.266 C  
HETATM    5  C   UNL     1     -10.252  14.299  64.764  1.00  0.00    -0.284 C  
HETATM    6  C   UNL     1     -11.904  12.276  68.559  1.00  0.00    -0.359 C  
HETATM    7  C   UNL     1     -10.723  13.214  68.391  1.00  0.00    -0.270 C  
HETATM    8  C   UNL     1     -12.212  12.775  65.531  1.00  0.00    -0.519 C  
HETATM    9  C   UNL     1     -11.137  11.935  66.306  1.00  0.00    -0.364 C  
HETATM   10  C   UNL     1     -10.146  13.008  66.947  1.00  0.00    -0.243 C  
HETATM   11  C   UNL     1     -10.650  10.922  65.243  1.00  0.00    -0.259 C  
HETATM   12  C   UNL     1     -10.062  14.378  66.245  1.00  0.00    -0.308 C  
HETATM   13  C   UNL     1     -11.558  13.605  64.384  1.00  0.00    -0.421 C  
HETATM   14  C   UNL     1      -9.920  15.535  66.931  1.00  0.00    -0.251 C  
ENDROOT
BRANCH   3  15
HETATM   15  C   UNL     1     -10.224   8.525  70.357  1.00  0.00    -0.215 C  
BRANCH  15  16
HETATM   16  C   UNL     1      -9.637   9.061  71.669  1.00  0.00    -0.319 C  
HETATM   17  O   UNL     1      -8.908   8.662  73.919  1.00  0.00    -0.216 OA 
HETATM   18  C   UNL     1      -8.444   6.921  72.381  1.00  0.00    -0.120 C  
HETATM   19  C   UNL     1     -10.784   7.376  73.183  1.00  0.00    -0.436 C  
HETATM   20  C   UNL     1      -9.453   8.002  72.773  1.00  0.00    -0.269 C  
HETATM   21  H   UNL     1      -8.795   8.009  74.600  1.00  0.00     0.000 HD 
ENDBRANCH  15  16
ENDBRANCH   3  15
BRANCH  14  22
HETATM   22  C   UNL     1     -10.372  16.855  66.519  1.00  0.00    -0.299 C  
HETATM   23  C   UNL     1     -10.297  19.359  66.562  1.00  0.00    -0.564 C  
HETATM   24  C   UNL     1      -9.871  20.218  67.771  1.00  0.00    -0.393 C  
HETATM   25  C   UNL     1      -9.638  17.988  66.589  1.00  0.00    -0.315 C  
HETATM   26  O   UNL     1     -10.435  19.719  68.988  1.00  0.00    -0.586 OA 
HETATM   27  C   UNL     1      -8.352  20.297  67.907  1.00  0.00    -0.205 C  
HETATM   28  H   UNL     1     -10.173  20.249  69.732  1.00  0.00     0.000 HD 
HETATM   29  C   UNL     1      -7.714  18.907  67.941  1.00  0.00    -0.261 C  
HETATM   30  C   UNL     1      -8.190  18.044  66.776  1.00  0.00    -0.272 C  
HETATM   31  O   UNL     1      -6.293  19.055  67.928  1.00  0.00    -0.207 OA 
HETATM   32  C   UNL     1      -7.355  17.426  65.912  1.00  0.00    -0.136 C  
HETATM   33  H   UNL     1      -5.897  18.192  67.950  1.00  0.00     0.000 HD 
ENDBRANCH  14  22
TORSDOF 3
ENDMDL
MODEL        6
REMARK 921   NORMALIZED FREE ENERGY PREDICTED BY IDOCK:   -7.43 KCAL/MOL
REMARK 922        TOTAL FREE ENERGY PREDICTED BY IDOCK:   -9.70 KCAL/MOL
REMARK 923 INTER-LIGAND FREE ENERGY PREDICTED BY IDOCK:   -7.96 KCAL/MOL
REMARK 924 INTRA-LIGAND FREE ENERGY PREDICTED BY IDOCK:   -1.73 KCAL/MOL
REMARK 927      BINDING AFFINITY PREDICTED BY RF-SCORE:    0.00 PKD
ROOT
HETATM    1  C   UNL     1      -9.564   9.604  65.466  1.00  0.00    -0.351 C  
HETATM    2  C   UNL     1      -9.685  10.096  66.915  1.00  0.00    -0.233 C  
HETATM    3  C   UNL     1      -9.249  11.595  66.966  1.00  0.00    -0.185 C  
HETATM    4  C   UNL     1      -8.926   9.243  68.049  1.00  0.00    -0.128 C  
HETATM    5  C   UNL     1     -10.631   5.367  69.457  1.00  0.00    -0.316 C  
HETATM    6  C   UNL     1      -9.351   9.792  69.408  1.00  0.00    -0.212 C  
HETATM    7  C   UNL     1     -10.720   9.177  69.633  1.00  0.00    -0.236 C  
HETATM    8  C   UNL     1      -8.498   6.833  69.231  1.00  0.00    -0.129 C  
HETATM    9  C   UNL     1      -9.314   7.706  68.214  1.00  0.00    -0.145 C  
HETATM   10  C   UNL     1     -10.777   7.825  68.840  1.00  0.00    -0.108 C  
HETATM   11  C   UNL     1      -9.070   6.990  66.864  1.00  0.00    -0.156 C  
HETATM   12  C   UNL     1     -11.211   6.701  69.802  1.00  0.00    -0.413 C  
HETATM   13  C   UNL     1      -9.107   5.404  69.363  1.00  0.00    -0.135 C  
HETATM   14  C   UNL     1     -11.970   6.939  70.896  1.00  0.00    -0.430 C  
ENDROOT
BRANCH   3  15
HETATM   15  C   UNL     1      -9.815  12.518  65.875  1.00  0.00    -0.257 C  
BRANCH  15  16
HETATM   16  C   UNL     1     -11.305  12.836  66.054  1.00  0.00    -0.363 C  
HETATM   17  O   UNL     1     -13.310  13.858  65.227  1.00  0.00    -0.732 OA 
HETATM   18  C   UNL     1     -11.920  12.878  63.578  1.00  0.00    -0.629 C  
HETATM   19  C   UNL     1     -11.272  15.010  64.744  1.00  0.00    -0.393 C  
HETATM   20  C   UNL     1     -11.934  13.643  64.902  1.00  0.00    -0.383 C  
HETATM   21  H   UNL     1     -13.698  14.356  64.517  1.00  0.00     0.000 HD 
ENDBRANCH  15  16
ENDBRANCH   3  15
BRANCH  14  22
HETATM   22  C   UNL     1     -11.986   6.169  72.130  1.00  0.00    -0.314 C  
HETATM   23  C   UNL     1     -10.898   4.814  73.934  1.00  0.00    -0.360 C  
HETATM   24  C   UNL     1      -9.653   3.920  73.752  1.00  0.00    -0.105 C  
HETATM   25  C   UNL     1     -10.918   5.957  72.932  1.00  0.00    -0.303 C  
HETATM   26  O   UNL     1      -9.732   3.159  72.543  1.00  0.00    -0.124 OA 
HETATM   27  C   UNL     1      -8.361   4.734  73.760  1.00  0.00    -0.105 C  
HETATM   28  H   UNL     1      -8.966   2.608  72.431  1.00  0.00     0.000 HD 
HETATM   29  C   UNL     1      -8.403   5.871  72.737  1.00  0.00    -0.118 C  
HETATM   30  C   UNL     1      -9.668   6.711  72.885  1.00  0.00    -0.168 C  
HETATM   31  O   UNL     1      -7.229   6.670  72.893  1.00  0.00    -0.080 OA 
HETATM   32  C   UNL     1      -9.660   8.053  73.045  1.00  0.00    -0.347 C  
HETATM   33  H   UNL     1      -7.255   7.377  72.258  1.00  0.00     0.000 HD 
ENDBRANCH  14  22
TORSDOF 3
ENDMDL
MODEL        7
REMARK 921   NORMALIZED FREE ENERGY PREDICTED BY IDOCK:   -7.28 KCAL/MOL
REMARK 922        TOTAL FREE ENERGY PREDICTED BY IDOCK:   -9.52 KCAL/MOL
REMARK 923 INTER-LIGAND FREE ENERGY PREDICTED BY IDOCK:   -7.72 KCAL/MOL
REMARK 924 INTRA-LIGAND FREE ENERGY PREDICTED BY IDOCK:   -1.80 KCAL/MOL
REMARK 927      BINDING AFFINITY PREDICTED BY RF-SCORE:    0.00 PKD
ROOT
HETATM    1  C   UNL     1     -11.410  10.254  68.583  1.00  0.00    -0.226 C  
HETATM    2  C   UNL     1     -10.289  10.921  67.772  1.00  0.00    -0.218 C  
HETATM    3  C   UNL     1      -9.204   9.844  67.451  1.00  0.00    -0.151 C  
HETATM    4  C   UNL     1      -9.615  12.243  68.396  1.00  0.00    -0.183 C  
HETATM    5  C   UNL     1     -11.763  16.150  68.227  1.00  0.00    -0.074 C  
HETATM    6  C   UNL     1      -8.689  12.836  67.338  1.00  0.00    -0.196 C  
HETATM    7  C   UNL     1      -9.634  13.565  66.400  1.00  0.00    -0.268 C  
HETATM    8  C   UNL     1      -9.936  14.739  69.420  1.00  0.00    -0.096 C  
HETATM    9  C   UNL     1     -10.557  13.491  68.701  1.00  0.00    -0.259 C  
HETATM   10  C   UNL     1     -10.902  13.984  67.223  1.00  0.00    -0.288 C  
HETATM   11  C   UNL     1     -11.667  13.040  69.680  1.00  0.00    -0.364 C  
HETATM   12  C   UNL     1     -11.140  15.495  67.036  1.00  0.00    -0.238 C  
HETATM   13  C   UNL     1     -10.963  15.909  69.506  1.00  0.00    -0.311 C  
HETATM   14  C   UNL     1     -10.734  16.160  65.930  1.00  0.00    -0.261 C  
ENDROOT
BRANCH   3  15
HETATM   15  C   UNL     1      -9.708   8.485  66.942  1.00  0.00    -0.286 C  
BRANCH  15  16
HETATM   16  C   UNL     1      -9.065   7.287  67.653  1.00  0.00    -0.124 C  
HETATM   17  O   UNL     1      -9.274   5.092  68.596  1.00  0.00    -0.111 OA 
HETATM   18  C   UNL     1     -10.555   5.480  66.642  1.00  0.00    -0.365 C  
HETATM   19  C   UNL     1     -11.173   6.524  68.846  1.00  0.00    -0.341 C  
HETATM   20  C   UNL     1     -10.023   6.112  67.929  1.00  0.00    -0.134 C  
HETATM   21  H   UNL     1      -9.865   4.368  68.766  1.00  0.00     0.000 HD 
ENDBRANCH  15  16
ENDBRANCH   3  15
BRANCH  14  22
HETATM   22  C   UNL     1     -10.378  17.567  65.840  1.00  0.00    -0.265 C  
HETATM   23  C   UNL     1      -9.320  19.666  66.708  1.00  0.00    -0.451 C  
HETATM   24  C   UNL     1      -9.164  20.036  68.198  1.00  0.00    -0.228 C  
HETATM   25  C   UNL     1      -9.361  18.159  66.507  1.00  0.00    -0.301 C  
HETATM   26  O   UNL     1     -10.354  19.742  68.935  1.00  0.00    -0.582 OA 
HETATM   27  C   UNL     1      -7.976  19.323  68.840  1.00  0.00    -0.353 C  
HETATM   28  H   UNL     1     -10.258  19.970  69.852  1.00  0.00     0.000 HD 
HETATM   29  C   UNL     1      -8.045  17.809  68.632  1.00  0.00    -0.276 C  
HETATM   30  C   UNL     1      -8.263  17.455  67.164  1.00  0.00    -0.229 C  
HETATM   31  O   UNL     1      -6.843  17.222  69.133  1.00  0.00    -0.233 OA 
HETATM   32  C   UNL     1      -7.464  16.614  66.471  1.00  0.00    -0.306 C  
HETATM   33  H   UNL     1      -6.885  16.282  69.004  1.00  0.00     0.000 HD 
ENDBRANCH  14  22
TORSDOF 3
ENDMDL
MODEL        8
REMARK 921   NORMALIZED FREE ENERGY PREDICTED BY IDOCK:   -7.27 KCAL/MOL
REMARK 922        TOTAL FREE ENERGY PREDICTED BY IDOCK:   -9.50 KCAL/MOL
REMARK 923 INTER-LIGAND FREE ENERGY PREDICTED BY IDOCK:   -7.69 KCAL/MOL
REMARK 924 INTRA-LIGAND FREE ENERGY PREDICTED BY IDOCK:   -1.82 KCAL/MOL
REMARK 927      BINDING AFFINITY PREDICTED BY RF-SCORE:    0.00 PKD
ROOT
HETATM    1  C   UNL     1      -8.594  12.076  67.625  1.00  0.00    -0.163 C  
HETATM    2  C   UNL     1      -9.866  11.382  68.134  1.00  0.00    -0.195 C  
HETATM    3  C   UNL     1     -11.042  12.409  68.083  1.00  0.00    -0.288 C  
HETATM    4  C   UNL     1      -9.792  10.671  69.575  1.00  0.00    -0.115 C  
HETATM    5  C   UNL     1      -7.732   6.739  70.033  1.00  0.00    -0.102 C  
HETATM    6  C   UNL     1     -11.086   9.887  69.775  1.00  0.00    -0.294 C  
HETATM    7  C   UNL     1     -10.871   8.624  68.961  1.00  0.00    -0.043 C  
HETATM    8  C   UNL     1      -8.545   8.903  71.220  1.00  0.00    -0.259 C  
HETATM    9  C   UNL     1      -8.710   9.520  69.787  1.00  0.00    -0.204 C  
HETATM   10  C   UNL     1      -9.328   8.351  68.893  1.00  0.00    -0.147 C  
HETATM   11  C   UNL     1      -7.308  10.104  69.494  1.00  0.00    -0.123 C  
HETATM   12  C   UNL     1      -9.057   6.907  69.360  1.00  0.00    -0.141 C  
HETATM   13  C   UNL     1      -7.551   7.701  71.205  1.00  0.00    -0.080 C  
HETATM   14  C   UNL     1      -9.978   5.924  69.243  1.00  0.00    -0.224 C  
ENDROOT
BRANCH   3  15
HETATM   15  C   UNL     1     -11.178  13.243  66.799  1.00  0.00    -0.331 C  
BRANCH  15  16
HETATM   16  C   UNL     1     -12.152  12.643  65.778  1.00  0.00    -0.484 C  
HETATM   17  O   UNL     1     -12.873  12.412  63.503  1.00  0.00    -0.749 OA 
HETATM   18  C   UNL     1     -10.528  12.542  63.813  1.00  0.00    -0.451 C  
HETATM   19  C   UNL     1     -12.006  14.555  64.114  1.00  0.00    -0.346 C  
HETATM   20  C   UNL     1     -11.881  13.046  64.316  1.00  0.00    -0.396 C  
HETATM   21  H   UNL     1     -12.706  12.662  62.601  1.00  0.00     0.000 HD 
ENDBRANCH  15  16
ENDBRANCH   3  15
BRANCH  14  22
HETATM   22  C   UNL     1     -10.109   4.746  70.086  1.00  0.00    -0.310 C  
HETATM   23  C   UNL     1     -10.084   3.563  72.295  1.00  0.00    -0.220 C  
HETATM   24  C   UNL     1      -9.224   3.963  73.512  1.00  0.00    -0.101 C  
HETATM   25  C   UNL     1     -10.392   4.760  71.408  1.00  0.00    -0.192 C  
HETATM   26  O   UNL     1      -7.891   4.302  73.118  1.00  0.00    -0.083 OA 
HETATM   27  C   UNL     1      -9.840   5.127  74.286  1.00  0.00    -0.198 C  
HETATM   28  H   UNL     1      -7.362   4.548  73.868  1.00  0.00     0.000 HD 
HETATM   29  C   UNL     1     -10.131   6.321  73.375  1.00  0.00    -0.203 C  
HETATM   30  C   UNL     1     -10.928   5.904  72.142  1.00  0.00    -0.317 C  
HETATM   31  O   UNL     1     -10.828   7.314  74.130  1.00  0.00    -0.536 OA 
HETATM   32  C   UNL     1     -12.094   6.480  71.775  1.00  0.00    -0.393 C  
HETATM   33  H   UNL     1     -11.009   8.055  73.565  1.00  0.00     0.000 HD 
ENDBRANCH  14  22
TORSDOF 3
ENDMDL
MODEL        9
REMARK 921   NORMALIZED FREE ENERGY PREDICTED BY IDOCK:   -7.19 KCAL/MOL
REMARK 922        TOTAL FREE ENERGY PREDICTED BY IDOCK:   -9.41 KCAL/MOL
REMARK 923 INTER-LIGAND FREE ENERGY PREDICTED BY IDOCK:   -7.63 KCAL/MOL
REMARK 924 INTRA-LIGAND FREE ENERGY PREDICTED BY IDOCK:   -1.79 KCAL/MOL
REMARK 927      BINDING AFFINITY PREDICTED BY RF-SCORE:    0.00 PKD
ROOT
HETATM    1  C   UNL     1     -11.885  11.997  69.541  1.00  0.00    -0.390 C  
HETATM    2  C   UNL     1     -10.650  11.135  69.240  1.00  0.00    -0.212 C  
HETATM    3  C   UNL     1     -10.048  11.594  67.874  1.00  0.00    -0.198 C  
HETATM    4  C   UNL     1     -10.842   9.537  69.270  1.00  0.00    -0.211 C  
HETATM    5  C   UNL     1     -11.120   7.384  73.169  1.00  0.00    -0.357 C  
HETATM    6  C   UNL     1      -9.461   8.900  69.147  1.00  0.00    -0.157 C  
HETATM    7  C   UNL     1      -8.884   9.019  70.546  1.00  0.00    -0.242 C  
HETATM    8  C   UNL     1     -11.665   7.332  70.629  1.00  0.00    -0.310 C  
HETATM    9  C   UNL     1     -11.359   8.870  70.622  1.00  0.00    -0.299 C  
HETATM   10  C   UNL     1     -10.080   9.049  71.560  1.00  0.00    -0.409 C  
HETATM   11  C   UNL     1     -12.723   9.501  70.990  1.00  0.00    -0.314 C  
HETATM   12  C   UNL     1      -9.852   7.966  72.631  1.00  0.00    -0.316 C  
HETATM   13  C   UNL     1     -12.019   6.834  72.063  1.00  0.00    -0.355 C  
HETATM   14  C   UNL     1      -8.616   7.534  72.973  1.00  0.00    -0.185 C  
ENDROOT
BRANCH   3  15
HETATM   15  C   UNL     1      -9.901  13.109  67.657  1.00  0.00    -0.219 C  
BRANCH  15  16
HETATM   16  C   UNL     1      -9.901  13.520  66.179  1.00  0.00    -0.292 C  
HETATM   17  O   UNL     1     -10.800  14.869  64.413  1.00  0.00    -0.621 OA 
HETATM   18  C   UNL     1     -10.642  15.936  66.522  1.00  0.00    -0.297 C  
HETATM   19  C   UNL     1     -12.358  14.152  66.079  1.00  0.00    -0.470 C  
HETATM   20  C   UNL     1     -10.926  14.611  65.814  1.00  0.00    -0.330 C  
HETATM   21  H   UNL     1     -11.433  15.542  64.188  1.00  0.00     0.000 HD 
ENDBRANCH  15  16
ENDBRANCH   3  15
BRANCH  14  22
HETATM   22  C   UNL     1      -8.262   6.222  73.491  1.00  0.00    -0.117 C  
HETATM   23  C   UNL     1      -8.419   3.722  73.545  1.00  0.00    -0.087 C  
HETATM   24  C   UNL     1      -9.666   2.898  73.164  1.00  0.00    -0.102 C  
HETATM   25  C   UNL     1      -8.386   5.057  72.817  1.00  0.00    -0.112 C  
HETATM   26  O   UNL     1     -10.858   3.479  73.701  1.00  0.00    -0.198 OA 
HETATM   27  C   UNL     1      -9.809   2.747  71.650  1.00  0.00    -0.211 C  
HETATM   28  H   UNL     1     -11.626   2.971  73.467  1.00  0.00     0.000 HD 
HETATM   29  C   UNL     1      -9.782   4.104  70.942  1.00  0.00    -0.189 C  
HETATM   30  C   UNL     1      -8.578   4.936  71.374  1.00  0.00    -0.132 C  
HETATM   31  O   UNL     1      -9.780   3.883  69.531  1.00  0.00    -0.199 OA 
HETATM   32  C   UNL     1      -7.689   5.471  70.507  1.00  0.00    -0.093 C  
HETATM   33  H   UNL     1      -9.763   4.724  69.091  1.00  0.00     0.000 HD 
ENDBRANCH  14  22
TORSDOF 3
ENDMDL
MODEL       10
REMARK 921   NORMALIZED FREE ENERGY PREDICTED BY IDOCK:   -7.14 KCAL/MOL
REMARK 922        TOTAL FREE ENERGY PREDICTED BY IDOCK:   -9.36 KCAL/MOL
REMARK 923 INTER-LIGAND FREE ENERGY PREDICTED BY IDOCK:   -7.44 KCAL/MOL
REMARK 924 INTRA-LIGAND FREE ENERGY PREDICTED BY IDOCK:   -1.92 KCAL/MOL
REMARK 927      BINDING AFFINITY PREDICTED BY RF-SCORE:    0.00 PKD
ROOT
HETATM    1  C   UNL     1      -9.207  13.399  67.696  1.00  0.00    -0.212 C  
HETATM    2  C   UNL     1     -10.403  12.495  68.024  1.00  0.00    -0.226 C  
HETATM    3  C   UNL     1     -11.678  13.389  68.153  1.00  0.00    -0.397 C  
HETATM    4  C   UNL     1     -10.261  11.517  69.295  1.00  0.00     0.049 C  
HETATM    5  C   UNL     1      -7.812   7.798  69.002  1.00  0.00    -0.118 C  
HETATM    6  C   UNL     1     -11.470  10.584  69.302  1.00  0.00    -0.323 C  
HETATM    7  C   UNL     1     -11.124   9.540  68.257  1.00  0.00    -0.047 C  
HETATM    8  C   UNL     1      -8.846   9.586  70.580  1.00  0.00    -0.253 C  
HETATM    9  C   UNL     1      -9.068  10.460  69.297  1.00  0.00    -0.188 C  
HETATM   10  C   UNL     1      -9.561   9.441  68.172  1.00  0.00    -0.158 C  
HETATM   11  C   UNL     1      -7.733  11.228  69.160  1.00  0.00    -0.047 C  
HETATM   12  C   UNL     1      -9.145   7.967  68.345  1.00  0.00    -0.136 C  
HETATM   13  C   UNL     1      -7.735   8.517  70.348  1.00  0.00    -0.080 C  
HETATM   14  C   UNL     1      -9.961   6.941  68.012  1.00  0.00    -0.175 C  
ENDROOT
BRANCH   3  15
HETATM   15  C   UNL     1     -11.893  14.447  67.060  1.00  0.00    -0.437 C  
BRANCH  15  16
HETATM   16  C   UNL     1     -12.543  13.890  65.787  1.00  0.00    -0.533 C  
HETATM   17  O   UNL     1     -12.588  13.730  63.395  1.00  0.00    -0.959 OA 
HETATM   18  C   UNL     1     -10.427  13.806  64.363  1.00  0.00    -0.265 C  
HETATM   19  C   UNL     1     -11.906  15.839  64.289  1.00  0.00    -0.120 C  
HETATM   20  C   UNL     1     -11.862  14.324  64.474  1.00  0.00    -0.442 C  
HETATM   21  H   UNL     1     -12.168  13.998  62.585  1.00  0.00     0.000 HD 
ENDBRANCH  15  16
ENDBRANCH   3  15
BRANCH  14  22
HETATM   22  C   UNL     1      -9.974   5.610  68.598  1.00  0.00    -0.213 C  
HETATM   23  C   UNL     1      -9.849   4.014  70.525  1.00  0.00    -0.214 C  
HETATM   24  C   UNL     1      -9.055   4.247  71.827  1.00  0.00    -0.123 C  
HETATM   25  C   UNL     1     -10.274   5.327  69.885  1.00  0.00    -0.364 C  
HETATM   26  O   UNL     1      -7.762   4.796  71.556  1.00  0.00    -0.086 OA 
HETATM   27  C   UNL     1      -9.804   5.160  72.795  1.00  0.00    -0.186 C  
HETATM   28  H   UNL     1      -7.272   4.939  72.358  1.00  0.00     0.000 HD 
HETATM   29  C   UNL     1     -10.212   6.477  72.131  1.00  0.00    -0.185 C  
HETATM   30  C   UNL     1     -10.942   6.236  70.813  1.00  0.00    -0.357 C  
HETATM   31  O   UNL     1     -11.023   7.217  73.044  1.00  0.00    -0.313 OA 
HETATM   32  C   UNL     1     -12.159   6.749  70.527  1.00  0.00    -0.332 C  
HETATM   33  H   UNL     1     -11.277   8.035  72.632  1.00  0.00     0.000 HD 
ENDBRANCH  14  22
TORSDOF 3
ENDMDL
MODEL       11
REMARK 921   NORMALIZED FREE ENERGY PREDICTED BY IDOCK:   -7.14 KCAL/MOL
REMARK 922        TOTAL FREE ENERGY PREDICTED BY IDOCK:   -9.35 KCAL/MOL
REMARK 923 INTER-LIGAND FREE ENERGY PREDICTED BY IDOCK:   -7.66 KCAL/MOL
REMARK 924 INTRA-LIGAND FREE ENERGY PREDICTED BY IDOCK:   -1.69 KCAL/MOL
REMARK 927      BINDING AFFINITY PREDICTED BY RF-SCORE:    0.00 PKD
ROOT
HETATM    1  C   UNL     1     -13.158  11.714  71.468  1.00  0.00    -0.405 C  
HETATM    2  C   UNL     1     -11.930  11.232  70.683  1.00  0.00    -0.435 C  
HETATM    3  C   UNL     1     -11.738  12.165  69.445  1.00  0.00    -0.391 C  
HETATM    4  C   UNL     1     -11.899   9.685  70.241  1.00  0.00    -0.157 C  
HETATM    5  C   UNL     1     -10.954   6.514  73.235  1.00  0.00    -0.224 C  
HETATM    6  C   UNL     1     -10.517   9.393  69.664  1.00  0.00    -0.236 C  
HETATM    7  C   UNL     1      -9.643   9.226  70.894  1.00  0.00    -0.339 C  
HETATM    8  C   UNL     1     -12.079   7.070  70.960  1.00  0.00    -0.413 C  
HETATM    9  C   UNL     1     -11.986   8.578  71.384  1.00  0.00    -0.345 C  
HETATM   10  C   UNL     1     -10.555   8.735  72.071  1.00  0.00    -0.414 C  
HETATM   11  C   UNL     1     -13.293   8.798  72.182  1.00  0.00    -0.465 C  
HETATM   12  C   UNL     1      -9.937   7.461  72.681  1.00  0.00    -0.241 C  
HETATM   13  C   UNL     1     -12.011   6.130  72.202  1.00  0.00    -0.314 C  
HETATM   14  C   UNL     1      -8.610   7.203  72.629  1.00  0.00    -0.136 C  
ENDROOT
BRANCH   3  15
HETATM   15  C   UNL     1     -11.845  13.678  69.696  1.00  0.00    -0.396 C  
BRANCH  15  16
HETATM   16  C   UNL     1     -11.783  14.518  68.414  1.00  0.00    -0.367 C  
HETATM   17  O   UNL     1     -10.733  16.251  67.132  1.00  0.00    -0.309 OA 
HETATM   18  C   UNL     1      -9.262  14.905  68.410  1.00  0.00    -0.189 C  
HETATM   19  C   UNL     1     -10.785  16.585  69.498  1.00  0.00    -0.321 C  
HETATM   20  C   UNL     1     -10.645  15.556  68.378  1.00  0.00    -0.252 C  
HETATM   21  H   UNL     1     -10.031  16.891  67.110  1.00  0.00     0.000 HD 
ENDBRANCH  15  16
ENDBRANCH   3  15
BRANCH  14  22
HETATM   22  C   UNL     1      -7.975   5.895  72.629  1.00  0.00    -0.105 C  
HETATM   23  C   UNL     1      -7.769   3.509  71.891  1.00  0.00    -0.058 C  
HETATM   24  C   UNL     1      -8.943   2.601  71.469  1.00  0.00    -0.086 C  
HETATM   25  C   UNL     1      -8.079   4.977  71.641  1.00  0.00    -0.114 C  
HETATM   26  O   UNL     1     -10.060   2.751  72.351  1.00  0.00    -0.156 OA 
HETATM   27  C   UNL     1      -9.386   2.874  70.033  1.00  0.00    -0.212 C  
HETATM   28  H   UNL     1     -10.782   2.191  72.091  1.00  0.00     0.000 HD 
HETATM   29  C   UNL     1      -9.700   4.355  69.809  1.00  0.00    -0.221 C  
HETATM   30  C   UNL     1      -8.559   5.247  70.288  1.00  0.00    -0.126 C  
HETATM   31  O   UNL     1      -9.971   4.560  68.422  1.00  0.00    -0.123 OA 
HETATM   32  C   UNL     1      -7.960   6.177  69.512  1.00  0.00    -0.107 C  
HETATM   33  H   UNL     1     -10.167   5.480  68.283  1.00  0.00     0.000 HD 
ENDBRANCH  14  22
TORSDOF 3
ENDMDL
MODEL       12
REMARK 921   NORMALIZED FREE ENERGY PREDICTED BY IDOCK:   -7.02 KCAL/MOL
REMARK 922        TOTAL FREE ENERGY PREDICTED BY IDOCK:   -9.22 KCAL/MOL
REMARK 923 INTER-LIGAND FREE ENERGY PREDICTED BY IDOCK:   -8.35 KCAL/MOL
REMARK 924 INTRA-LIGAND FREE ENERGY PREDICTED BY IDOCK:   -0.87 KCAL/MOL
REMARK 927      BINDING AFFINITY PREDICTED BY RF-SCORE:    0.00 PKD
ROOT
HETATM    1  C   UNL     1     -11.786  10.431  68.206  1.00  0.00     0.047 C  
HETATM    2  C   UNL     1     -11.420  11.699  68.992  1.00  0.00    -0.356 C  
HETATM    3  C   UNL     1     -11.903  11.522  70.467  1.00  0.00    -0.363 C  
HETATM    4  C   UNL     1     -11.920  13.107  68.393  1.00  0.00    -0.324 C  
HETATM    5  C   UNL     1      -9.821  14.931  64.903  1.00  0.00     0.078 C  
HETATM    6  C   UNL     1     -11.275  14.218  69.217  1.00  0.00    -0.309 C  
HETATM    7  C   UNL     1      -9.863  14.301  68.666  1.00  0.00    -0.228 C  
HETATM    8  C   UNL     1     -12.019  14.818  66.284  1.00  0.00    -0.168 C  
HETATM    9  C   UNL     1     -11.443  13.508  66.926  1.00  0.00    -0.374 C  
HETATM   10  C   UNL     1      -9.896  13.806  67.177  1.00  0.00    -0.242 C  
HETATM   11  C   UNL     1     -11.902  12.405  65.943  1.00  0.00    -0.467 C  
HETATM   12  C   UNL     1      -9.245  14.878  66.282  1.00  0.00    -0.301 C  
HETATM   13  C   UNL     1     -11.336  15.123  64.916  1.00  0.00    -0.402 C  
HETATM   14  C   UNL     1      -8.307  15.737  66.746  1.00  0.00    -0.309 C  
ENDROOT
BRANCH   3  15
HETATM   15  C   UNL     1     -11.588  10.178  71.141  1.00  0.00    -0.430 C  
BRANCH  15  16
HETATM   16  C   UNL     1     -10.193   9.635  70.804  1.00  0.00    -0.330 C  
HETATM   17  O   UNL     1      -8.559   7.889  70.985  1.00  0.00    -0.126 OA 
HETATM   18  C   UNL     1     -10.806   7.158  70.813  1.00  0.00    -0.267 C  
HETATM   19  C   UNL     1      -9.933   8.241  72.910  1.00  0.00    -0.296 C  
HETATM   20  C   UNL     1      -9.887   8.240  71.383  1.00  0.00    -0.184 C  
HETATM   21  H   UNL     1      -8.370   7.029  71.343  1.00  0.00     0.000 HD 
ENDBRANCH  15  16
ENDBRANCH   3  15
BRANCH  14  22
HETATM   22  C   UNL     1      -8.031  17.077  66.252  1.00  0.00    -0.343 C  
HETATM   23  C   UNL     1      -8.463  19.540  66.109  1.00  0.00    -0.329 C  
HETATM   24  C   UNL     1      -9.839  20.216  66.275  1.00  0.00    -0.421 C  
HETATM   25  C   UNL     1      -8.389  18.225  66.869  1.00  0.00    -0.256 C  
HETATM   26  O   UNL     1     -10.860  19.495  65.579  1.00  0.00    -0.439 OA 
HETATM   27  C   UNL     1     -10.229  20.362  67.745  1.00  0.00    -0.392 C  
HETATM   28  H   UNL     1     -11.708  19.911  65.681  1.00  0.00     0.000 HD 
HETATM   29  C   UNL     1     -10.156  19.025  68.485  1.00  0.00    -0.400 C  
HETATM   30  C   UNL     1      -8.813  18.335  68.263  1.00  0.00    -0.301 C  
HETATM   31  O   UNL     1     -10.395  19.257  69.874  1.00  0.00    -0.297 OA 
HETATM   32  C   UNL     1      -8.012  17.916  69.267  1.00  0.00     0.183 C  
HETATM   33  H   UNL     1     -10.350  18.427  70.334  1.00  0.00     0.000 HD 
ENDBRANCH  14  22
TORSDOF 3
ENDMDL
MODEL       13
REMARK 921   NORMALIZED FREE ENERGY PREDICTED BY IDOCK:   -7.02 KCAL/MOL
REMARK 922        TOTAL FREE ENERGY PREDICTED BY IDOCK:   -9.21 KCAL/MOL
REMARK 923 INTER-LIGAND FREE ENERGY PREDICTED BY IDOCK:   -8.28 KCAL/MOL
REMARK 924 INTRA-LIGAND FREE ENERGY PREDICTED BY IDOCK:   -0.93 KCAL/MOL
REMARK 927      BINDING AFFINITY PREDICTED BY RF-SCORE:    0.00 PKD
ROOT
HETATM    1  C   UNL     1     -11.518  14.838  65.152  1.00  0.00    -0.371 C  
HETATM    2  C   UNL     1     -10.286  14.706  66.059  1.00  0.00    -0.326 C  
HETATM    3  C   UNL     1      -9.462  16.030  65.969  1.00  0.00    -0.384 C  
HETATM    4  C   UNL     1      -9.336  13.426  65.830  1.00  0.00     0.055 C  
HETATM    5  C   UNL     1     -10.588   9.410  67.318  1.00  0.00    -0.314 C  
HETATM    6  C   UNL     1      -8.311  13.399  66.961  1.00  0.00    -0.089 C  
HETATM    7  C   UNL     1      -9.083  12.820  68.132  1.00  0.00    -0.203 C  
HETATM    8  C   UNL     1      -9.101  10.726  65.641  1.00  0.00    -0.215 C  
HETATM    9  C   UNL     1      -9.984  11.978  65.980  1.00  0.00    -0.258 C  
HETATM   10  C   UNL     1     -10.224  11.911  67.556  1.00  0.00    -0.212 C  
HETATM   11  C   UNL     1     -11.158  11.859  64.979  1.00  0.00    -0.360 C  
HETATM   12  C   UNL     1     -10.130  10.519  68.211  1.00  0.00    -0.180 C  
HETATM   13  C   UNL     1      -9.849   9.400  65.981  1.00  0.00    -0.366 C  
HETATM   14  C   UNL     1      -9.598  10.332  69.441  1.00  0.00    -0.237 C  
ENDROOT
BRANCH   3  15
HETATM   15  C   UNL     1     -10.252  17.344  66.066  1.00  0.00    -0.308 C  
BRANCH  15  16
HETATM   16  C   UNL     1     -10.572  17.762  67.507  1.00  0.00    -0.365 C  
HETATM   17  O   UNL     1     -10.256  19.285  69.332  1.00  0.00    -0.550 OA 
HETATM   18  C   UNL     1     -10.284  20.275  67.181  1.00  0.00    -0.500 C  
HETATM   19  C   UNL     1      -8.340  18.884  67.961  1.00  0.00    -0.325 C  
HETATM   20  C   UNL     1      -9.859  19.043  67.980  1.00  0.00    -0.352 C  
HETATM   21  H   UNL     1      -9.816  20.075  69.624  1.00  0.00     0.000 HD 
ENDBRANCH  15  16
ENDBRANCH   3  15
BRANCH  14  22
HETATM   22  C   UNL     1      -8.946   9.130  69.936  1.00  0.00    -0.183 C  
HETATM   23  C   UNL     1      -8.588   7.315  71.625  1.00  0.00    -0.120 C  
HETATM   24  C   UNL     1      -8.802   7.456  73.146  1.00  0.00    -0.149 C  
HETATM   25  C   UNL     1      -9.470   8.275  70.843  1.00  0.00    -0.192 C  
HETATM   26  O   UNL     1      -8.276   8.695  73.633  1.00  0.00    -0.395 OA 
HETATM   27  C   UNL     1     -10.278   7.343  73.526  1.00  0.00    -0.400 C  
HETATM   28  H   UNL     1      -8.408   8.781  74.569  1.00  0.00     0.000 HD 
HETATM   29  C   UNL     1     -11.143   8.325  72.733  1.00  0.00    -0.249 C  
HETATM   30  C   UNL     1     -10.877   8.221  71.234  1.00  0.00    -0.285 C  
HETATM   31  O   UNL     1     -12.516   8.072  73.034  1.00  0.00    -0.625 OA 
HETATM   32  C   UNL     1     -11.845   8.013  70.315  1.00  0.00     0.178 C  
HETATM   33  H   UNL     1     -13.053   8.681  72.542  1.00  0.00     0.000 HD 
ENDBRANCH  14  22
TORSDOF 3
ENDMDL
MODEL       14
REMARK 921   NORMALIZED FREE ENERGY PREDICTED BY IDOCK:   -6.93 KCAL/MOL
REMARK 922        TOTAL FREE ENERGY PREDICTED BY IDOCK:   -9.11 KCAL/MOL
REMARK 923 INTER-LIGAND FREE ENERGY PREDICTED BY IDOCK:   -7.42 KCAL/MOL
REMARK 924 INTRA-LIGAND FREE ENERGY PREDICTED BY IDOCK:   -1.69 KCAL/MOL
REMARK 927      BINDING AFFINITY PREDICTED BY RF-SCORE:    0.00 PKD
ROOT
HETATM    1  C   UNL     1     -11.846  10.505  69.293  1.00  0.00    -0.242 C  
HETATM    2  C   UNL     1     -10.672  11.009  68.441  1.00  0.00    -0.240 C  
HETATM    3  C   UNL     1      -9.641   9.846  68.282  1.00  0.00    -0.151 C  
HETATM    4  C   UNL     1      -9.938  12.359  68.921  1.00  0.00     0.061 C  
HETATM    5  C   UNL     1     -11.859  16.326  68.222  1.00  0.00     0.177 C  
HETATM    6  C   UNL     1      -8.956  12.770  67.827  1.00  0.00    -0.190 C  
HETATM    7  C   UNL     1      -9.837  13.429  66.782  1.00  0.00    -0.265 C  
HETATM    8  C   UNL     1     -10.142  14.975  69.629  1.00  0.00    -0.139 C  
HETATM    9  C   UNL     1     -10.816  13.684  69.047  1.00  0.00    -0.237 C  
HETATM   10  C   UNL     1     -11.098  14.011  67.511  1.00  0.00    -0.313 C  
HETATM   11  C   UNL     1     -11.971  13.414  70.040  1.00  0.00    -0.407 C  
HETATM   12  C   UNL     1     -11.247  15.499  67.137  1.00  0.00    -0.204 C  
HETATM   13  C   UNL     1     -11.103  16.200  69.543  1.00  0.00    -0.344 C  
HETATM   14  C   UNL     1     -10.779  16.002  65.972  1.00  0.00    -0.271 C  
ENDROOT
BRANCH   3  15
HETATM   15  C   UNL     1     -10.209   8.463  67.925  1.00  0.00    -0.273 C  
BRANCH  15  16
HETATM   16  C   UNL     1      -9.801   7.975  66.529  1.00  0.00    -0.289 C  
HETATM   17  O   UNL     1      -9.024   6.208  65.107  1.00  0.00    -0.367 OA 
HETATM   18  C   UNL     1     -10.518   5.544  66.822  1.00  0.00    -0.355 C  
HETATM   19  C   UNL     1      -8.150   6.222  67.332  1.00  0.00    -0.109 C  
HETATM   20  C   UNL     1      -9.376   6.495  66.463  1.00  0.00    -0.159 C  
HETATM   21  H   UNL     1      -8.761   5.295  65.066  1.00  0.00     0.000 HD 
ENDBRANCH  15  16
ENDBRANCH   3  15
BRANCH  14  22
HETATM   22  C   UNL     1     -10.342  17.368  65.724  1.00  0.00    -0.226 C  
HETATM   23  C   UNL     1      -9.204  19.503  66.372  1.00  0.00    -0.426 C  
HETATM   24  C   UNL     1      -9.084  20.050  67.810  1.00  0.00    -0.320 C  
HETATM   25  C   UNL     1      -9.321  17.987  66.357  1.00  0.00    -0.267 C  
HETATM   26  O   UNL     1     -10.316  19.910  68.524  1.00  0.00    -0.448 OA 
HETATM   27  C   UNL     1      -7.962  19.364  68.588  1.00  0.00    -0.403 C  
HETATM   28  H   UNL     1     -10.241  20.247  69.410  1.00  0.00     0.000 HD 
HETATM   29  C   UNL     1      -8.107  17.841  68.566  1.00  0.00    -0.297 C  
HETATM   30  C   UNL     1      -8.289  17.317  67.145  1.00  0.00    -0.220 C  
HETATM   31  O   UNL     1      -6.959  17.263  69.188  1.00  0.00    -0.233 OA 
HETATM   32  C   UNL     1      -7.512  16.356  66.597  1.00  0.00    -0.267 C  
HETATM   33  H   UNL     1      -7.048  16.317  69.175  1.00  0.00     0.000 HD 
ENDBRANCH  14  22
TORSDOF 3
ENDMDL
MODEL       15
REMARK 921   NORMALIZED FREE ENERGY PREDICTED BY IDOCK:   -6.90 KCAL/MOL
REMARK 922        TOTAL FREE ENERGY PREDICTED BY IDOCK:   -9.07 KCAL/MOL
REMARK 923 INTER-LIGAND FREE ENERGY PREDICTED BY IDOCK:   -7.15 KCAL/MOL
REMARK 924 INTRA-LIGAND FREE ENERGY PREDICTED BY IDOCK:   -1.93 KCAL/MOL
REMARK 927      BINDING AFFINITY PREDICTED BY RF-SCORE:    0.00 PKD
ROOT
HETATM    1  C   UNL     1      -9.331  13.362  68.130  1.00  0.00    -0.217 C  
HETATM    2  C   UNL     1     -10.258  12.220  67.688  1.00  0.00    -0.208 C  
HETATM    3  C   UNL     1     -11.729  12.747  67.693  1.00  0.00    -0.422 C  
HETATM    4  C   UNL     1     -10.148  10.829  68.490  1.00  0.00    -0.187 C  
HETATM    5  C   UNL     1      -6.735   8.060  67.720  1.00  0.00    -0.068 C  
HETATM    6  C   UNL     1     -11.001   9.798  67.755  1.00  0.00    -0.242 C  
HETATM    7  C   UNL     1     -10.130   9.379  66.585  1.00  0.00    -0.332 C  
HETATM    8  C   UNL     1      -8.586   8.795  69.389  1.00  0.00    -0.133 C  
HETATM    9  C   UNL     1      -8.738  10.087  68.512  1.00  0.00    -0.123 C  
HETATM   10  C   UNL     1      -8.631   9.586  67.001  1.00  0.00    -0.131 C  
HETATM   11  C   UNL     1      -7.688  11.048  69.119  1.00  0.00    -0.102 C  
HETATM   12  C   UNL     1      -7.863   8.272  66.761  1.00  0.00    -0.095 C  
HETATM   13  C   UNL     1      -7.191   8.130  69.176  1.00  0.00    -0.073 C  
HETATM   14  C   UNL     1      -8.244   7.370  65.827  1.00  0.00    -0.135 C  
ENDROOT
BRANCH   3  15
HETATM   15  C   UNL     1     -11.973  14.121  67.051  1.00  0.00    -0.471 C  
BRANCH  15  16
HETATM   16  C   UNL     1     -12.687  14.046  65.695  1.00  0.00    -0.515 C  
HETATM   17  O   UNL     1     -12.597  14.210  63.304  1.00  0.00    -1.080 OA 
HETATM   18  C   UNL     1     -10.684  13.257  64.326  1.00  0.00    -0.408 C  
HETATM   19  C   UNL     1     -11.184  15.715  64.510  1.00  0.00    -0.337 C  
HETATM   20  C   UNL     1     -11.782  14.310  64.475  1.00  0.00    -0.418 C  
HETATM   21  H   UNL     1     -12.039  14.373  62.552  1.00  0.00     0.000 HD 
ENDBRANCH  15  16
ENDBRANCH   3  15
BRANCH  14  22
HETATM   22  C   UNL     1      -8.011   5.935  65.854  1.00  0.00    -0.109 C  
HETATM   23  C   UNL     1      -7.946   3.701  66.987  1.00  0.00    -0.087 C  
HETATM   24  C   UNL     1      -7.657   3.468  68.484  1.00  0.00    -0.053 C  
HETATM   25  C   UNL     1      -8.556   5.072  66.741  1.00  0.00    -0.109 C  
HETATM   26  O   UNL     1      -6.571   4.283  68.937  1.00  0.00    -0.042 OA 
HETATM   27  C   UNL     1      -8.887   3.729  69.350  1.00  0.00    -0.146 C  
HETATM   28  H   UNL     1      -6.393   4.138  69.859  1.00  0.00     0.000 HD 
HETATM   29  C   UNL     1      -9.477   5.117  69.091  1.00  0.00    -0.134 C  
HETATM   30  C   UNL     1      -9.700   5.361  67.602  1.00  0.00    -0.155 C  
HETATM   31  O   UNL     1     -10.696   5.241  69.826  1.00  0.00    -0.286 OA 
HETATM   32  C   UNL     1     -10.886   5.742  67.076  1.00  0.00    -0.328 C  
HETATM   33  H   UNL     1     -11.062   6.103  69.665  1.00  0.00     0.000 HD 
ENDBRANCH  14  22
TORSDOF 3
ENDMDL
MODEL       16
REMARK 921   NORMALIZED FREE ENERGY PREDICTED BY IDOCK:   -6.88 KCAL/MOL
REMARK 922        TOTAL FREE ENERGY PREDICTED BY IDOCK:   -9.05 KCAL/MOL
REMARK 923 INTER-LIGAND FREE ENERGY PREDICTED BY IDOCK:   -7.50 KCAL/MOL
REMARK 924 INTRA-LIGAND FREE ENERGY PREDICTED BY IDOCK:   -1.56 KCAL/MOL
REMARK 927      BINDING AFFINITY PREDICTED BY RF-SCORE:    0.00 PKD
ROOT
HETATM    1  C   UNL     1     -11.021  15.075  64.964  1.00  0.00    -0.436 C  
HETATM    2  C   UNL     1     -10.204  14.894  66.251  1.00  0.00    -0.306 C  
HETATM    3  C   UNL     1      -9.388  16.201  66.507  1.00  0.00    -0.296 C  
HETATM    4  C   UNL     1      -9.251  13.600  66.343  1.00  0.00    -0.142 C  
HETATM    5  C   UNL     1     -11.002   9.576  67.151  1.00  0.00    -0.019 C  
HETATM    6  C   UNL     1      -8.706  13.523  67.767  1.00  0.00    -0.189 C  
HETATM    7  C   UNL     1      -9.857  12.931  68.560  1.00  0.00    -0.147 C  
HETATM    8  C   UNL     1      -8.994  10.900  66.169  1.00  0.00    -0.196 C  
HETATM    9  C   UNL     1      -9.924  12.162  66.203  1.00  0.00    -0.253 C  
HETATM   10  C   UNL     1     -10.721  12.062  67.581  1.00  0.00    -0.252 C  
HETATM   11  C   UNL     1     -10.657  12.095  64.842  1.00  0.00    -0.332 C  
HETATM   12  C   UNL     1     -10.887  10.653  68.183  1.00  0.00    -0.291 C  
HETATM   13  C   UNL     1      -9.829   9.584  66.173  1.00  0.00    -0.343 C  
HETATM   14  C   UNL     1     -10.840  10.424  69.515  1.00  0.00    -0.295 C  
ENDROOT
BRANCH   3  15
HETATM   15  C   UNL     1     -10.145  17.530  66.352  1.00  0.00    -0.346 C  
BRANCH  15  16
HETATM   16  C   UNL     1     -10.646  18.108  67.681  1.00  0.00    -0.424 C  
HETATM   17  O   UNL     1     -10.379  19.667  69.484  1.00  0.00    -0.607 OA 
HETATM   18  C   UNL     1      -9.771  20.481  67.344  1.00  0.00    -0.587 C  
HETATM   19  C   UNL     1      -8.360  18.786  68.554  1.00  0.00    -0.379 C  
HETATM   20  C   UNL     1      -9.783  19.251  68.252  1.00  0.00    -0.385 C  
HETATM   21  H   UNL     1      -9.846  20.371  69.836  1.00  0.00     0.000 HD 
ENDBRANCH  15  16
ENDBRANCH   3  15
BRANCH  14  22
HETATM   22  C   UNL     1     -10.426   9.196  70.176  1.00  0.00    -0.249 C  
HETATM   23  C   UNL     1      -9.027   7.127  70.376  1.00  0.00    -0.155 C  
HETATM   24  C   UNL     1      -8.441   6.328  69.193  1.00  0.00    -0.120 C  
HETATM   25  C   UNL     1      -9.227   8.592  70.018  1.00  0.00    -0.155 C  
HETATM   26  O   UNL     1      -9.400   6.177  68.142  1.00  0.00    -0.117 OA 
HETATM   27  C   UNL     1      -7.174   6.978  68.639  1.00  0.00    -0.094 C  
HETATM   28  H   UNL     1      -9.038   5.684  67.414  1.00  0.00     0.000 HD 
HETATM   29  C   UNL     1      -7.403   8.447  68.279  1.00  0.00    -0.095 C  
HETATM   30  C   UNL     1      -8.041   9.214  69.434  1.00  0.00    -0.102 C  
HETATM   31  O   UNL     1      -6.153   9.026  67.902  1.00  0.00    -0.049 OA 
HETATM   32  C   UNL     1      -7.524  10.349  69.954  1.00  0.00    -0.134 C  
HETATM   33  H   UNL     1      -6.294   9.938  67.678  1.00  0.00     0.000 HD 
ENDBRANCH  14  22
TORSDOF 3
ENDMDL
MODEL       17
REMARK 921   NORMALIZED FREE ENERGY PREDICTED BY IDOCK:   -6.82 KCAL/MOL
REMARK 922        TOTAL FREE ENERGY PREDICTED BY IDOCK:   -8.98 KCAL/MOL
REMARK 923 INTER-LIGAND FREE ENERGY PREDICTED BY IDOCK:   -7.15 KCAL/MOL
REMARK 924 INTRA-LIGAND FREE ENERGY PREDICTED BY IDOCK:   -1.82 KCAL/MOL
REMARK 927      BINDING AFFINITY PREDICTED BY RF-SCORE:    0.00 PKD
ROOT
HETATM    1  C   UNL     1      -6.542   6.628  66.125  1.00  0.00    -0.044 C  
HETATM    2  C   UNL     1      -7.744   7.289  65.433  1.00  0.00    -0.111 C  
HETATM    3  C   UNL     1      -7.907   6.654  64.015  1.00  0.00    -0.112 C  
HETATM    4  C   UNL     1      -7.750   8.895  65.343  1.00  0.00    -0.092 C  
HETATM    5  C   UNL     1      -8.759  11.339  68.937  1.00  0.00    -0.053 C  
HETATM    6  C   UNL     1      -9.114   9.326  64.809  1.00  0.00    -0.201 C  
HETATM    7  C   UNL     1     -10.022   9.229  66.021  1.00  0.00    -0.325 C  
HETATM    8  C   UNL     1      -7.573  11.284  66.627  1.00  0.00    -0.140 C  
HETATM    9  C   UNL     1      -7.689   9.722  66.704  1.00  0.00    -0.102 C  
HETATM   10  C   UNL     1      -9.141   9.436  67.302  1.00  0.00    -0.150 C  
HETATM   11  C   UNL     1      -6.408   9.313  67.469  1.00  0.00    -0.062 C  
HETATM   12  C   UNL     1      -9.766  10.552  68.161  1.00  0.00    -0.166 C  
HETATM   13  C   UNL     1      -7.670  11.928  68.043  1.00  0.00    -0.132 C  
HETATM   14  C   UNL     1     -11.089  10.833  68.132  1.00  0.00    -0.337 C  
ENDROOT
BRANCH   3  15
HETATM   15  C   UNL     1      -7.818   5.122  63.928  1.00  0.00    -0.091 C  
BRANCH  15  16
HETATM   16  C   UNL     1      -9.145   4.451  63.553  1.00  0.00    -0.132 C  
HETATM   17  O   UNL     1     -11.057   3.156  64.198  1.00  0.00    -0.593 OA 
HETATM   18  C   UNL     1     -10.274   4.685  65.829  1.00  0.00    -0.283 C  
HETATM   19  C   UNL     1      -8.998   2.590  65.274  1.00  0.00    -0.134 C  
HETATM   20  C   UNL     1      -9.852   3.726  64.715  1.00  0.00    -0.191 C  
HETATM   21  H   UNL     1     -11.493   2.709  64.915  1.00  0.00     0.000 HD 
ENDBRANCH  15  16
ENDBRANCH   3  15
BRANCH  14  22
HETATM   22  C   UNL     1     -11.715  12.118  68.404  1.00  0.00    -0.388 C  
HETATM   23  C   UNL     1     -11.972  14.590  68.091  1.00  0.00    -0.296 C  
HETATM   24  C   UNL     1     -10.836  15.566  67.722  1.00  0.00    -0.309 C  
HETATM   25  C   UNL     1     -11.695  13.186  67.576  1.00  0.00    -0.414 C  
HETATM   26  O   UNL     1      -9.646  15.283  68.465  1.00  0.00    -0.199 OA 
HETATM   27  C   UNL     1     -10.524  15.538  66.228  1.00  0.00    -0.313 C  
HETATM   28  H   UNL     1      -8.947  15.885  68.238  1.00  0.00     0.000 HD 
HETATM   29  C   UNL     1     -10.239  14.117  65.736  1.00  0.00    -0.332 C  
HETATM   30  C   UNL     1     -11.338  13.148  66.160  1.00  0.00    -0.343 C  
HETATM   31  O   UNL     1     -10.093  14.145  64.315  1.00  0.00    -0.648 OA 
HETATM   32  C   UNL     1     -12.008  12.353  65.297  1.00  0.00    -0.461 C  
HETATM   33  H   UNL     1      -9.916  13.264  64.009  1.00  0.00     0.000 HD 
ENDBRANCH  14  22
TORSDOF 3
ENDMDL
MODEL       18
REMARK 921   NORMALIZED FREE ENERGY PREDICTED BY IDOCK:   -6.82 KCAL/MOL
REMARK 922        TOTAL FREE ENERGY PREDICTED BY IDOCK:   -8.97 KCAL/MOL
REMARK 923 INTER-LIGAND FREE ENERGY PREDICTED BY IDOCK:   -8.10 KCAL/MOL
REMARK 924 INTRA-LIGAND FREE ENERGY PREDICTED BY IDOCK:   -0.88 KCAL/MOL
REMARK 927      BINDING AFFINITY PREDICTED BY RF-SCORE:    0.00 PKD
ROOT
HETATM    1  C   UNL     1      -9.829   5.704  68.238  1.00  0.00    -0.177 C  
HETATM    2  C   UNL     1      -9.032   6.986  67.959  1.00  0.00    -0.126 C  
HETATM    3  C   UNL     1      -7.596   6.583  67.492  1.00  0.00    -0.105 C  
HETATM    4  C   UNL     1      -8.963   8.082  69.135  1.00  0.00    -0.145 C  
HETATM    5  C   UNL     1     -12.473  10.709  69.963  1.00  0.00    -0.294 C  
HETATM    6  C   UNL     1      -8.303   9.335  68.566  1.00  0.00    -0.119 C  
HETATM    7  C   UNL     1      -9.420  10.006  67.787  1.00  0.00    -0.157 C  
HETATM    8  C   UNL     1     -10.289   9.663  70.904  1.00  0.00    -0.334 C  
HETATM    9  C   UNL     1     -10.334   8.686  69.677  1.00  0.00    -0.213 C  
HETATM   10  C   UNL     1     -10.783   9.586  68.438  1.00  0.00    -0.230 C  
HETATM   11  C   UNL     1     -11.215   7.522  70.189  1.00  0.00    -0.213 C  
HETATM   12  C   UNL     1     -11.592  10.856  68.763  1.00  0.00    -0.378 C  
HETATM   13  C   UNL     1     -11.698  10.262  71.200  1.00  0.00    -0.430 C  
HETATM   14  C   UNL     1     -11.437  12.010  68.074  1.00  0.00    -0.392 C  
ENDROOT
BRANCH   3  15
HETATM   15  C   UNL     1      -7.499   5.467  66.440  1.00  0.00    -0.087 C  
BRANCH  15  16
HETATM   16  C   UNL     1      -8.104   5.849  65.084  1.00  0.00    -0.131 C  
HETATM   17  O   UNL     1      -9.227   5.196  63.068  1.00  0.00    -0.347 OA 
HETATM   18  C   UNL     1      -9.910   4.049  65.024  1.00  0.00    -0.204 C  
HETATM   19  C   UNL     1      -7.673   3.614  63.960  1.00  0.00    -0.080 C  
HETATM   20  C   UNL     1      -8.718   4.674  64.298  1.00  0.00    -0.148 C  
HETATM   21  H   UNL     1      -9.605   4.472  62.583  1.00  0.00     0.000 HD 
ENDBRANCH  15  16
ENDBRANCH   3  15
BRANCH  14  22
HETATM   22  C   UNL     1     -11.664  13.359  68.567  1.00  0.00    -0.392 C  
HETATM   23  C   UNL     1     -11.441  15.851  68.445  1.00  0.00    -0.348 C  
HETATM   24  C   UNL     1     -10.260  16.612  67.807  1.00  0.00    -0.292 C  
HETATM   25  C   UNL     1     -11.632  14.481  67.814  1.00  0.00    -0.390 C  
HETATM   26  O   UNL     1      -9.007  16.021  68.164  1.00  0.00    -0.179 OA 
HETATM   27  C   UNL     1     -10.379  16.675  66.286  1.00  0.00    -0.323 C  
HETATM   28  H   UNL     1      -8.280  16.489  67.771  1.00  0.00     0.000 HD 
HETATM   29  C   UNL     1     -10.561  15.285  65.674  1.00  0.00    -0.362 C  
HETATM   30  C   UNL     1     -11.691  14.518  66.355  1.00  0.00    -0.372 C  
HETATM   31  O   UNL     1     -10.804  15.429  64.273  1.00  0.00    -0.596 OA 
HETATM   32  C   UNL     1     -12.729  13.967  65.688  1.00  0.00    -0.534 C  
HETATM   33  H   UNL     1     -10.917  14.566  63.893  1.00  0.00     0.000 HD 
ENDBRANCH  14  22
TORSDOF 3
ENDMDL
MODEL       19
REMARK 921   NORMALIZED FREE ENERGY PREDICTED BY IDOCK:   -6.81 KCAL/MOL
REMARK 922        TOTAL FREE ENERGY PREDICTED BY IDOCK:   -8.97 KCAL/MOL
REMARK 923 INTER-LIGAND FREE ENERGY PREDICTED BY IDOCK:   -7.17 KCAL/MOL
REMARK 924 INTRA-LIGAND FREE ENERGY PREDICTED BY IDOCK:   -1.81 KCAL/MOL
REMARK 927      BINDING AFFINITY PREDICTED BY RF-SCORE:    0.00 PKD
ROOT
HETATM    1  C   UNL     1      -9.345  10.374  65.999  1.00  0.00    -0.219 C  
HETATM    2  C   UNL     1      -9.400  10.652  67.508  1.00  0.00    -0.158 C  
HETATM    3  C   UNL     1      -8.795  12.068  67.772  1.00  0.00    -0.165 C  
HETATM    4  C   UNL     1      -8.736   9.557  68.484  1.00  0.00    -0.124 C  
HETATM    5  C   UNL     1     -10.862   5.727  69.335  1.00  0.00    -0.393 C  
HETATM    6  C   UNL     1      -9.087   9.938  69.919  1.00  0.00    -0.241 C  
HETATM    7  C   UNL     1     -10.515   9.452  70.081  1.00  0.00    -0.280 C  
HETATM    8  C   UNL     1      -8.577   6.964  69.281  1.00  0.00    -0.132 C  
HETATM    9  C   UNL     1      -9.295   8.066  68.426  1.00  0.00    -0.138 C  
HETATM   10  C   UNL     1     -10.731   8.251  69.096  1.00  0.00    -0.117 C  
HETATM   11  C   UNL     1      -9.142   7.540  66.979  1.00  0.00    -0.156 C  
HETATM   12  C   UNL     1     -11.284   7.051  69.889  1.00  0.00    -0.286 C  
HETATM   13  C   UNL     1      -9.344   5.608  69.212  1.00  0.00    -0.150 C  
HETATM   14  C   UNL     1     -12.004   7.202  71.024  1.00  0.00    -0.387 C  
ENDROOT
BRANCH   3  15
HETATM   15  C   UNL     1      -9.260  13.202  66.845  1.00  0.00    -0.236 C  
BRANCH  15  16
HETATM   16  C   UNL     1     -10.004  14.326  67.577  1.00  0.00    -0.235 C  
HETATM   17  O   UNL     1     -12.059  15.241  68.407  1.00  0.00    -0.552 OA 
HETATM   18  C   UNL     1     -11.864  12.886  68.564  1.00  0.00    -0.350 C  
HETATM   19  C   UNL     1     -12.207  14.030  66.351  1.00  0.00    -0.492 C  
HETATM   20  C   UNL     1     -11.524  14.110  67.714  1.00  0.00    -0.325 C  
HETATM   21  H   UNL     1     -12.997  15.108  68.491  1.00  0.00     0.000 HD 
ENDBRANCH  15  16
ENDBRANCH   3  15
BRANCH  14  22
HETATM   22  C   UNL     1     -12.100   6.261  72.129  1.00  0.00    -0.304 C  
HETATM   23  C   UNL     1     -11.136   4.618  73.756  1.00  0.00    -0.333 C  
HETATM   24  C   UNL     1      -9.912   3.716  73.495  1.00  0.00    -0.117 C  
HETATM   25  C   UNL     1     -11.077   5.896  72.934  1.00  0.00    -0.306 C  
HETATM   26  O   UNL     1      -9.958   3.144  72.184  1.00  0.00    -0.160 OA 
HETATM   27  C   UNL     1      -8.598   4.473  73.676  1.00  0.00    -0.103 C  
HETATM   28  H   UNL     1      -9.204   2.588  72.024  1.00  0.00     0.000 HD 
HETATM   29  C   UNL     1      -8.558   5.749  72.832  1.00  0.00    -0.122 C  
HETATM   30  C   UNL     1      -9.803   6.603  73.051  1.00  0.00    -0.184 C  
HETATM   31  O   UNL     1      -7.370   6.473  73.153  1.00  0.00    -0.085 OA 
HETATM   32  C   UNL     1      -9.763   7.906  73.407  1.00  0.00    -0.318 C  
HETATM   33  H   UNL     1      -7.345   7.265  72.629  1.00  0.00     0.000 HD 
ENDBRANCH  14  22
TORSDOF 3
ENDMDL
MODEL       20
REMARK 921   NORMALIZED FREE ENERGY PREDICTED BY IDOCK:   -6.79 KCAL/MOL
REMARK 922        TOTAL FREE ENERGY PREDICTED BY IDOCK:   -8.94 KCAL/MOL
REMARK 923 INTER-LIGAND FREE ENERGY PREDICTED BY IDOCK:   -8.20 KCAL/MOL
REMARK 924 INTRA-LIGAND FREE ENERGY PREDICTED BY IDOCK:   -0.74 KCAL/MOL
REMARK 927      BINDING AFFINITY PREDICTED BY RF-SCORE:    0.00 PKD
ROOT
HETATM    1  C   UNL     1     -10.335   9.032  66.624  1.00  0.00    -0.289 C  
HETATM    2  C   UNL     1     -10.344  10.151  67.675  1.00  0.00    -0.265 C  
HETATM    3  C   UNL     1     -10.531   9.504  69.085  1.00  0.00    -0.224 C  
HETATM    4  C   UNL     1     -11.389  11.357  67.458  1.00  0.00    -0.362 C  
HETATM    5  C   UNL     1     -10.565  14.518  64.419  1.00  0.00     0.086 C  
HETATM    6  C   UNL     1     -11.079  12.433  68.495  1.00  0.00    -0.296 C  
HETATM    7  C   UNL     1      -9.877  13.156  67.916  1.00  0.00    -0.231 C  
HETATM    8  C   UNL     1     -12.373  13.299  65.832  1.00  0.00    -0.479 C  
HETATM    9  C   UNL     1     -11.287  12.202  66.111  1.00  0.00    -0.414 C  
HETATM   10  C   UNL     1      -9.930  13.004  66.355  1.00  0.00    -0.277 C  
HETATM   11  C   UNL     1     -11.448  11.236  64.913  1.00  0.00     0.072 C  
HETATM   12  C   UNL     1      -9.829  14.403  65.716  1.00  0.00    -0.330 C  
HETATM   13  C   UNL     1     -12.033  14.115  64.548  1.00  0.00    -0.476 C  
HETATM   14  C   UNL     1      -9.207  15.436  66.329  1.00  0.00    -0.354 C  
ENDROOT
BRANCH   3  15
HETATM   15  C   UNL     1      -9.670   8.271  69.399  1.00  0.00    -0.177 C  
BRANCH  15  16
HETATM   16  C   UNL     1     -10.478   7.075  69.920  1.00  0.00    -0.234 C  
HETATM   17  O   UNL     1     -11.095   5.637  71.737  1.00  0.00    -0.256 OA 
HETATM   18  C   UNL     1     -10.776   7.913  72.312  1.00  0.00    -0.344 C  
HETATM   19  C   UNL     1      -8.835   6.418  71.741  1.00  0.00    -0.139 C  
HETATM   20  C   UNL     1     -10.285   6.772  71.419  1.00  0.00    -0.198 C  
HETATM   21  H   UNL     1     -10.976   5.450  72.661  1.00  0.00     0.000 HD 
ENDBRANCH  15  16
ENDBRANCH   3  15
BRANCH  14  22
HETATM   22  C   UNL     1      -9.496  16.852  66.161  1.00  0.00    -0.274 C  
HETATM   23  C   UNL     1      -9.402  19.253  66.872  1.00  0.00    -0.371 C  
HETATM   24  C   UNL     1      -9.347  19.750  68.331  1.00  0.00    -0.314 C  
HETATM   25  C   UNL     1      -8.801  17.863  66.730  1.00  0.00    -0.271 C  
HETATM   26  O   UNL     1     -10.257  19.024  69.163  1.00  0.00    -0.537 OA 
HETATM   27  C   UNL     1      -7.937  19.655  68.912  1.00  0.00    -0.285 C  
HETATM   28  H   UNL     1     -10.223  19.331  70.062  1.00  0.00     0.000 HD 
HETATM   29  C   UNL     1      -7.359  18.246  68.766  1.00  0.00    -0.284 C  
HETATM   30  C   UNL     1      -7.476  17.739  67.332  1.00  0.00    -0.210 C  
HETATM   31  O   UNL     1      -5.998  18.263  69.201  1.00  0.00    -0.207 OA 
HETATM   32  C   UNL     1      -6.428  17.277  66.615  1.00  0.00    -0.263 C  
HETATM   33  H   UNL     1      -5.638  17.388  69.110  1.00  0.00     0.000 HD 
ENDBRANCH  14  22
TORSDOF 3
ENDMDL
MODEL       21
REMARK 921   NORMALIZED FREE ENERGY PREDICTED BY IDOCK:   -6.72 KCAL/MOL
REMARK 922        TOTAL FREE ENERGY PREDICTED BY IDOCK:   -8.86 KCAL/MOL
REMARK 923 INTER-LIGAND FREE ENERGY PREDICTED BY IDOCK:   -8.10 KCAL/MOL
REMARK 924 INTRA-LIGAND FREE ENERGY PREDICTED BY IDOCK:   -0.76 KCAL/MOL
REMARK 927      BINDING AFFINITY PREDICTED BY RF-SCORE:    0.00 PKD
ROOT
HETATM    1  C   UNL     1      -9.490   9.919  63.393  1.00  0.00    -0.124 C  
HETATM    2  C   UNL     1      -9.746  10.232  64.875  1.00  0.00    -0.385 C  
HETATM    3  C   UNL     1      -9.779  11.784  65.053  1.00  0.00    -0.212 C  
HETATM    4  C   UNL     1      -8.760   9.555  65.952  1.00  0.00    -0.168 C  
HETATM    5  C   UNL     1      -9.214   5.245  67.012  1.00  0.00    -0.116 C  
HETATM    6  C   UNL     1      -9.323   9.839  67.342  1.00  0.00    -0.155 C  
HETATM    7  C   UNL     1     -10.443   8.825  67.490  1.00  0.00    -0.340 C  
HETATM    8  C   UNL     1      -7.622   7.297  66.947  1.00  0.00    -0.105 C  
HETATM    9  C   UNL     1      -8.667   7.965  65.986  1.00  0.00    -0.182 C  
HETATM   10  C   UNL     1     -10.095   7.588  66.590  1.00  0.00    -0.263 C  
HETATM   11  C   UNL     1      -8.226   7.469  64.589  1.00  0.00    -0.052 C  
HETATM   12  C   UNL     1     -10.167   6.311  67.451  1.00  0.00    -0.223 C  
HETATM   13  C   UNL     1      -7.773   5.745  66.952  1.00  0.00    -0.101 C  
HETATM   14  C   UNL     1     -10.956   6.220  68.546  1.00  0.00    -0.421 C  
ENDROOT
BRANCH   3  15
HETATM   15  C   UNL     1     -10.602  12.580  64.028  1.00  0.00    -0.451 C  
BRANCH  15  16
HETATM   16  C   UNL     1     -12.069  12.770  64.435  1.00  0.00    -0.484 C  
HETATM   17  O   UNL     1     -13.755  14.086  65.519  1.00  0.00    -0.538 OA 
HETATM   18  C   UNL     1     -12.084  15.321  64.382  1.00  0.00    -0.263 C  
HETATM   19  C   UNL     1     -11.591  14.115  66.534  1.00  0.00    -0.389 C  
HETATM   20  C   UNL     1     -12.358  14.068  65.214  1.00  0.00    -0.465 C  
HETATM   21  H   UNL     1     -13.933  14.886  66.000  1.00  0.00     0.000 HD 
ENDBRANCH  15  16
ENDBRANCH   3  15
BRANCH  14  22
HETATM   22  C   UNL     1     -10.734   5.382  69.714  1.00  0.00    -0.280 C  
HETATM   23  C   UNL     1     -10.371   5.014  72.165  1.00  0.00    -0.276 C  
HETATM   24  C   UNL     1      -9.678   6.005  73.123  1.00  0.00    -0.162 C  
HETATM   25  C   UNL     1     -11.017   5.730  70.989  1.00  0.00    -0.300 C  
HETATM   26  O   UNL     1      -8.504   6.568  72.529  1.00  0.00    -0.121 OA 
HETATM   27  C   UNL     1     -10.618   7.127  73.560  1.00  0.00    -0.416 C  
HETATM   28  H   UNL     1      -8.077   7.178  73.119  1.00  0.00     0.000 HD 
HETATM   29  C   UNL     1     -11.247   7.838  72.360  1.00  0.00    -0.337 C  
HETATM   30  C   UNL     1     -11.875   6.844  71.387  1.00  0.00    -0.373 C  
HETATM   31  O   UNL     1     -12.213   8.775  72.838  1.00  0.00    -0.294 OA 
HETATM   32  C   UNL     1     -13.157   6.917  70.967  1.00  0.00    -0.110 C  
HETATM   33  H   UNL     1     -12.603   9.217  72.093  1.00  0.00     0.000 HD 
ENDBRANCH  14  22
TORSDOF 3
ENDMDL
MODEL       22
REMARK 921   NORMALIZED FREE ENERGY PREDICTED BY IDOCK:   -6.68 KCAL/MOL
REMARK 922        TOTAL FREE ENERGY PREDICTED BY IDOCK:   -8.82 KCAL/MOL
REMARK 923 INTER-LIGAND FREE ENERGY PREDICTED BY IDOCK:   -7.13 KCAL/MOL
REMARK 924 INTRA-LIGAND FREE ENERGY PREDICTED BY IDOCK:   -1.69 KCAL/MOL
REMARK 927      BINDING AFFINITY PREDICTED BY RF-SCORE:    0.00 PKD
ROOT
HETATM    1  C   UNL     1     -12.048  14.254  70.127  1.00  0.00    -0.403 C  
HETATM    2  C   UNL     1     -11.410  13.534  68.929  1.00  0.00    -0.332 C  
HETATM    3  C   UNL     1     -11.715  14.359  67.638  1.00  0.00    -0.421 C  
HETATM    4  C   UNL     1     -11.784  11.983  68.717  1.00  0.00    -0.377 C  
HETATM    5  C   UNL     1      -9.929   8.855  71.302  1.00  0.00    -0.358 C  
HETATM    6  C   UNL     1     -10.889  11.436  67.608  1.00  0.00    -0.286 C  
HETATM    7  C   UNL     1      -9.564  11.188  68.306  1.00  0.00    -0.185 C  
HETATM    8  C   UNL     1     -11.921   9.475  69.754  1.00  0.00     0.324 C  
HETATM    9  C   UNL     1     -11.453  10.965  69.898  1.00  0.00    -0.402 C  
HETATM   10  C   UNL     1      -9.860  10.916  69.822  1.00  0.00     0.304 C  
HETATM   11  C   UNL     1     -12.185  11.441  71.175  1.00  0.00    -0.330 C  
HETATM   12  C   UNL     1      -9.189   9.590  70.230  1.00  0.00    -0.303 C  
HETATM   13  C   UNL     1     -11.388   8.601  70.929  1.00  0.00    -0.314 C  
HETATM   14  C   UNL     1      -8.089   9.112  69.603  1.00  0.00    -0.106 C  
ENDROOT
BRANCH   3  15
HETATM   15  C   UNL     1     -11.504  15.879  67.722  1.00  0.00    -0.128 C  
BRANCH  15  16
HETATM   16  C   UNL     1     -10.513  16.418  66.682  1.00  0.00    -0.274 C  
HETATM   17  O   UNL     1      -8.866  18.042  66.050  1.00  0.00    -0.498 OA 
HETATM   18  C   UNL     1      -8.826  17.393  68.328  1.00  0.00    -0.264 C  
HETATM   19  C   UNL     1     -10.661  18.846  67.408  1.00  0.00    -0.519 C  
HETATM   20  C   UNL     1      -9.730  17.669  67.126  1.00  0.00    -0.291 C  
HETATM   21  H   UNL     1      -8.383  18.813  66.324  1.00  0.00     0.000 HD 
ENDBRANCH  15  16
ENDBRANCH   3  15
BRANCH  14  22
HETATM   22  C   UNL     1      -7.697   7.718  69.471  1.00  0.00    -0.105 C  
HETATM   23  C   UNL     1      -8.149   5.306  68.967  1.00  0.00    -0.086 C  
HETATM   24  C   UNL     1      -9.499   4.589  69.175  1.00  0.00    -0.164 C  
HETATM   25  C   UNL     1      -8.338   6.795  68.720  1.00  0.00    -0.121 C  
HETATM   26  O   UNL     1     -10.094   4.952  70.425  1.00  0.00    -0.231 OA 
HETATM   27  C   UNL     1     -10.479   4.878  68.040  1.00  0.00     0.044 C  
HETATM   28  H   UNL     1     -10.925   4.510  70.553  1.00  0.00     0.000 HD 
HETATM   29  C   UNL     1     -10.659   6.381  67.817  1.00  0.00    -0.266 C  
HETATM   30  C   UNL     1      -9.315   7.090  67.675  1.00  0.00    -0.128 C  
HETATM   31  O   UNL     1     -11.473   6.578  66.660  1.00  0.00    -0.727 OA 
HETATM   32  C   UNL     1      -8.993   7.880  66.627  1.00  0.00    -0.179 C  
HETATM   33  H   UNL     1     -11.585   7.511  66.521  1.00  0.00     0.000 HD 
ENDBRANCH  14  22
TORSDOF 3
ENDMDL
MODEL       23
REMARK 921   NORMALIZED FREE ENERGY PREDICTED BY IDOCK:   -6.67 KCAL/MOL
REMARK 922        TOTAL FREE ENERGY PREDICTED BY IDOCK:   -8.80 KCAL/MOL
REMARK 923 INTER-LIGAND FREE ENERGY PREDICTED BY IDOCK:   -7.90 KCAL/MOL
REMARK 924 INTRA-LIGAND FREE ENERGY PREDICTED BY IDOCK:   -0.90 KCAL/MOL
REMARK 927      BINDING AFFINITY PREDICTED BY RF-SCORE:    0.00 PKD
ROOT
HETATM    1  C   UNL     1     -11.379  13.969  65.209  1.00  0.00    -0.321 C  
HETATM    2  C   UNL     1     -10.330  13.868  66.326  1.00  0.00    -0.293 C  
HETATM    3  C   UNL     1      -9.667  15.270  66.510  1.00  0.00    -0.287 C  
HETATM    4  C   UNL     1      -9.209  12.722  66.183  1.00  0.00    -0.040 C  
HETATM    5  C   UNL     1     -10.227   8.466  67.057  1.00  0.00    -0.377 C  
HETATM    6  C   UNL     1      -8.416  12.680  67.487  1.00  0.00    -0.176 C  
HETATM    7  C   UNL     1      -9.317  11.906  68.431  1.00  0.00    -0.184 C  
HETATM    8  C   UNL     1      -8.622  10.093  65.820  1.00  0.00    -0.159 C  
HETATM    9  C   UNL     1      -9.695  11.207  66.082  1.00  0.00    -0.253 C  
HETATM   10  C   UNL     1     -10.215  10.952  67.568  1.00  0.00    -0.224 C  
HETATM   11  C   UNL     1     -10.640  11.076  64.864  1.00  0.00    -0.328 C  
HETATM   12  C   UNL     1     -10.079   9.516  68.111  1.00  0.00    -0.214 C  
HETATM   13  C   UNL     1      -9.257   8.671  65.895  1.00  0.00    -0.264 C  
HETATM   14  C   UNL     1      -9.767   9.256  69.402  1.00  0.00    -0.175 C  
ENDROOT
BRANCH   3  15
HETATM   15  C   UNL     1     -10.613  16.481  66.560  1.00  0.00    -0.217 C  
BRANCH  15  16
HETATM   16  C   UNL     1     -10.708  17.128  67.947  1.00  0.00    -0.355 C  
HETATM   17  O   UNL     1     -10.260  18.991  69.389  1.00  0.00    -0.491 OA 
HETATM   18  C   UNL     1     -10.827  19.552  67.159  1.00  0.00    -0.555 C  
HETATM   19  C   UNL     1      -8.601  18.529  67.731  1.00  0.00    -0.286 C  
HETATM   20  C   UNL     1     -10.096  18.540  68.042  1.00  0.00    -0.371 C  
HETATM   21  H   UNL     1      -9.883  19.862  69.448  1.00  0.00     0.000 HD 
ENDBRANCH  15  16
ENDBRANCH   3  15
BRANCH  14  22
HETATM   22  C   UNL     1      -9.080   8.081  69.913  1.00  0.00    -0.145 C  
HETATM   23  C   UNL     1      -8.809   6.165  71.505  1.00  0.00    -0.135 C  
HETATM   24  C   UNL     1      -9.282   6.151  72.973  1.00  0.00    -0.133 C  
HETATM   25  C   UNL     1      -9.650   7.104  70.654  1.00  0.00    -0.165 C  
HETATM   26  O   UNL     1      -8.977   7.385  73.630  1.00  0.00    -0.172 OA 
HETATM   27  C   UNL     1     -10.779   5.869  73.087  1.00  0.00    -0.288 C  
HETATM   28  H   UNL     1      -9.267   7.376  74.534  1.00  0.00     0.000 HD 
HETATM   29  C   UNL     1     -11.603   6.832  72.230  1.00  0.00    -0.273 C  
HETATM   30  C   UNL     1     -11.087   6.885  70.795  1.00  0.00    -0.317 C  
HETATM   31  O   UNL     1     -12.972   6.426  72.274  1.00  0.00    -0.545 OA 
HETATM   32  C   UNL     1     -11.866   6.670  69.712  1.00  0.00    -0.159 C  
HETATM   33  H   UNL     1     -13.484   7.024  71.742  1.00  0.00     0.000 HD 
ENDBRANCH  14  22
TORSDOF 3
ENDMDL
MODEL       24
REMARK 921   NORMALIZED FREE ENERGY PREDICTED BY IDOCK:   -6.67 KCAL/MOL
REMARK 922        TOTAL FREE ENERGY PREDICTED BY IDOCK:   -8.80 KCAL/MOL
REMARK 923 INTER-LIGAND FREE ENERGY PREDICTED BY IDOCK:   -7.40 KCAL/MOL
REMARK 924 INTRA-LIGAND FREE ENERGY PREDICTED BY IDOCK:   -1.40 KCAL/MOL
REMARK 927      BINDING AFFINITY PREDICTED BY RF-SCORE:    0.00 PKD
ROOT
HETATM    1  C   UNL     1      -7.787  11.241  66.622  1.00  0.00    -0.152 C  
HETATM    2  C   UNL     1      -9.126  10.548  66.913  1.00  0.00    -0.161 C  
HETATM    3  C   UNL     1     -10.271  11.392  66.267  1.00  0.00    -0.274 C  
HETATM    4  C   UNL     1      -9.464  10.211  68.450  1.00  0.00    -0.147 C  
HETATM    5  C   UNL     1      -7.489   6.762  70.478  1.00  0.00    -0.086 C  
HETATM    6  C   UNL     1     -10.727   9.355  68.473  1.00  0.00    -0.203 C  
HETATM    7  C   UNL     1     -10.227   7.968  68.112  1.00  0.00    -0.251 C  
HETATM    8  C   UNL     1      -8.705   9.038  70.781  1.00  0.00    -0.269 C  
HETATM    9  C   UNL     1      -8.453   9.275  69.251  1.00  0.00    -0.137 C  
HETATM   10  C   UNL     1      -8.726   7.865  68.556  1.00  0.00    -0.131 C  
HETATM   11  C   UNL     1      -7.052   9.929  69.224  1.00  0.00    -0.069 C  
HETATM   12  C   UNL     1      -8.554   6.614  69.439  1.00  0.00    -0.135 C  
HETATM   13  C   UNL     1      -7.708   7.989  71.361  1.00  0.00    -0.092 C  
HETATM   14  C   UNL     1      -9.358   5.532  69.327  1.00  0.00    -0.153 C  
ENDROOT
BRANCH   3  15
HETATM   15  C   UNL     1     -10.044  11.877  64.826  1.00  0.00    -0.295 C  
BRANCH  15  16
HETATM   16  C   UNL     1     -10.274  13.382  64.642  1.00  0.00    -0.338 C  
HETATM   17  O   UNL     1     -11.789  15.213  64.319  1.00  0.00    -0.638 OA 
HETATM   18  C   UNL     1     -12.577  13.486  65.735  1.00  0.00    -0.490 C  
HETATM   19  C   UNL     1     -12.385  13.160  63.249  1.00  0.00    -0.366 C  
HETATM   20  C   UNL     1     -11.751  13.793  64.486  1.00  0.00    -0.407 C  
HETATM   21  H   UNL     1     -12.700  15.466  64.222  1.00  0.00     0.000 HD 
ENDBRANCH  15  16
ENDBRANCH   3  15
BRANCH  14  22
HETATM   22  C   UNL     1      -9.692   4.580  70.376  1.00  0.00    -0.287 C  
HETATM   23  C   UNL     1     -10.250   3.961  72.738  1.00  0.00    -0.233 C  
HETATM   24  C   UNL     1      -9.765   4.712  73.996  1.00  0.00    -0.138 C  
HETATM   25  C   UNL     1     -10.326   4.883  71.530  1.00  0.00    -0.228 C  
HETATM   26  O   UNL     1      -8.381   5.062  73.891  1.00  0.00    -0.104 OA 
HETATM   27  C   UNL     1     -10.591   5.968  74.264  1.00  0.00    -0.095 C  
HETATM   28  H   UNL     1      -8.083   5.524  74.665  1.00  0.00     0.000 HD 
HETATM   29  C   UNL     1     -10.645   6.882  73.038  1.00  0.00    -0.278 C  
HETATM   30  C   UNL     1     -11.065   6.117  71.787  1.00  0.00    -0.327 C  
HETATM   31  O   UNL     1     -11.540   7.961  73.311  1.00  0.00    -0.610 OA 
HETATM   32  C   UNL     1     -12.097   6.486  70.996  1.00  0.00    -0.304 C  
HETATM   33  H   UNL     1     -11.574   8.529  72.550  1.00  0.00     0.000 HD 
ENDBRANCH  14  22
TORSDOF 3
ENDMDL
MODEL       25
REMARK 921   NORMALIZED FREE ENERGY PREDICTED BY IDOCK:   -6.65 KCAL/MOL
REMARK 922        TOTAL FREE ENERGY PREDICTED BY IDOCK:   -8.78 KCAL/MOL
REMARK 923 INTER-LIGAND FREE ENERGY PREDICTED BY IDOCK:   -7.06 KCAL/MOL
REMARK 924 INTRA-LIGAND FREE ENERGY PREDICTED BY IDOCK:   -1.72 KCAL/MOL
REMARK 927      BINDING AFFINITY PREDICTED BY RF-SCORE:    0.00 PKD
ROOT
HETATM    1  C   UNL     1     -10.436  10.400  65.848  1.00  0.00    -0.196 C  
HETATM    2  C   UNL     1      -9.794  10.721  67.206  1.00  0.00    -0.208 C  
HETATM    3  C   UNL     1      -8.803  11.913  67.014  1.00  0.00    -0.190 C  
HETATM    4  C   UNL     1      -9.083   9.508  67.990  1.00  0.00    -0.126 C  
HETATM    5  C   UNL     1     -11.550   6.464  70.125  1.00  0.00    -0.449 C  
HETATM    6  C   UNL     1      -8.705  10.011  69.381  1.00  0.00    -0.195 C  
HETATM    7  C   UNL     1     -10.012   9.955  70.150  1.00  0.00    -0.291 C  
HETATM    8  C   UNL     1      -9.261   6.998  69.017  1.00  0.00    -0.137 C  
HETATM    9  C   UNL     1      -9.968   8.236  68.362  1.00  0.00    -0.211 C  
HETATM   10  C   UNL     1     -10.905   8.839  69.504  1.00  0.00    -0.151 C  
HETATM   11  C   UNL     1     -10.561   7.652  67.058  1.00  0.00    -0.406 C  
HETATM   12  C   UNL     1     -11.363   7.866  70.608  1.00  0.00    -0.267 C  
HETATM   13  C   UNL     1     -10.299   5.915  69.441  1.00  0.00    -0.313 C  
HETATM   14  C   UNL     1     -11.489   8.246  71.901  1.00  0.00    -0.372 C  
ENDROOT
BRANCH   3  15
HETATM   15  C   UNL     1      -9.310  13.108  66.192  1.00  0.00    -0.086 C  
BRANCH  15  16
HETATM   16  C   UNL     1     -10.017  14.177  67.035  1.00  0.00    -0.260 C  
HETATM   17  O   UNL     1     -10.707  16.456  67.322  1.00  0.00    -0.317 OA 
HETATM   18  C   UNL     1     -10.799  15.642  65.099  1.00  0.00    -0.448 C  
HETATM   19  C   UNL     1      -8.606  16.128  66.229  1.00  0.00    -0.373 C  
HETATM   20  C   UNL     1     -10.022  15.587  66.415  1.00  0.00    -0.283 C  
HETATM   21  H   UNL     1     -10.710  17.325  66.939  1.00  0.00     0.000 HD 
ENDBRANCH  15  16
ENDBRANCH   3  15
BRANCH  14  22
HETATM   22  C   UNL     1     -11.352   7.399  73.076  1.00  0.00    -0.283 C  
HETATM   23  C   UNL     1     -10.234   5.608  74.423  1.00  0.00    -0.295 C  
HETATM   24  C   UNL     1      -9.467   4.402  73.843  1.00  0.00    -0.116 C  
HETATM   25  C   UNL     1     -10.210   6.797  73.475  1.00  0.00    -0.320 C  
HETATM   26  O   UNL     1     -10.168   3.823  72.737  1.00  0.00    -0.155 OA 
HETATM   27  C   UNL     1      -8.053   4.781  73.408  1.00  0.00    -0.100 C  
HETATM   28  H   UNL     1      -9.696   3.080  72.380  1.00  0.00     0.000 HD 
HETATM   29  C   UNL     1      -8.056   5.972  72.448  1.00  0.00    -0.109 C  
HETATM   30  C   UNL     1      -8.870   7.137  73.005  1.00  0.00    -0.153 C  
HETATM   31  O   UNL     1      -6.705   6.359  72.194  1.00  0.00    -0.061 OA 
HETATM   32  C   UNL     1      -8.384   8.391  73.140  1.00  0.00    -0.191 C  
HETATM   33  H   UNL     1      -6.706   7.098  71.598  1.00  0.00     0.000 HD 
ENDBRANCH  14  22
TORSDOF 3
ENDMDL
MODEL       26
REMARK 921   NORMALIZED FREE ENERGY PREDICTED BY IDOCK:   -6.60 KCAL/MOL
REMARK 922        TOTAL FREE ENERGY PREDICTED BY IDOCK:   -8.72 KCAL/MOL
REMARK 923 INTER-LIGAND FREE ENERGY PREDICTED BY IDOCK:   -7.86 KCAL/MOL
REMARK 924 INTRA-LIGAND FREE ENERGY PREDICTED BY IDOCK:   -0.86 KCAL/MOL
REMARK 927      BINDING AFFINITY PREDICTED BY RF-SCORE:    0.00 PKD
ROOT
HETATM    1  C   UNL     1      -7.719   5.154  69.689  1.00  0.00    -0.068 C  
HETATM    2  C   UNL     1      -9.068   5.745  69.256  1.00  0.00    -0.128 C  
HETATM    3  C   UNL     1     -10.208   4.941  69.960  1.00  0.00    -0.313 C  
HETATM    4  C   UNL     1      -9.347   5.865  67.676  1.00  0.00    -0.107 C  
HETATM    5  C   UNL     1      -7.414   9.108  65.297  1.00  0.00    -0.097 C  
HETATM    6  C   UNL     1     -10.639   6.655  67.489  1.00  0.00    -0.347 C  
HETATM    7  C   UNL     1     -10.211   8.098  67.687  1.00  0.00    -0.296 C  
HETATM    8  C   UNL     1      -8.527   6.761  65.244  1.00  0.00    -0.067 C  
HETATM    9  C   UNL     1      -8.337   6.735  66.801  1.00  0.00    -0.115 C  
HETATM   10  C   UNL     1      -8.696   8.209  67.295  1.00  0.00    -0.125 C  
HETATM   11  C   UNL     1      -6.914   6.151  66.971  1.00  0.00    -0.072 C  
HETATM   12  C   UNL     1      -8.531   9.342  66.264  1.00  0.00    -0.133 C  
HETATM   13  C   UNL     1      -7.545   7.769  64.574  1.00  0.00    -0.108 C  
HETATM   14  C   UNL     1      -9.381  10.393  66.200  1.00  0.00    -0.210 C  
ENDROOT
BRANCH   3  15
HETATM   15  C   UNL     1     -10.030   4.657  71.459  1.00  0.00    -0.265 C  
BRANCH  15  16
HETATM   16  C   UNL     1     -11.008   5.432  72.351  1.00  0.00    -0.298 C  
HETATM   17  O   UNL     1     -11.495   7.364  73.686  1.00  0.00    -0.514 OA 
HETATM   18  C   UNL     1     -10.200   7.775  71.745  1.00  0.00    -0.235 C  
HETATM   19  C   UNL     1      -9.232   6.595  73.745  1.00  0.00    -0.176 C  
HETATM   20  C   UNL     1     -10.473   6.780  72.874  1.00  0.00    -0.234 C  
HETATM   21  H   UNL     1     -11.165   8.195  74.008  1.00  0.00     0.000 HD 
ENDBRANCH  15  16
ENDBRANCH   3  15
BRANCH  14  22
HETATM   22  C   UNL     1      -9.701  11.186  65.024  1.00  0.00    -0.298 C  
HETATM   23  C   UNL     1     -11.052  12.886  63.774  1.00  0.00    -0.424 C  
HETATM   24  C   UNL     1     -12.548  13.183  64.006  1.00  0.00    -0.169 C  
HETATM   25  C   UNL     1     -10.385  12.352  65.032  1.00  0.00    -0.319 C  
HETATM   26  O   UNL     1     -13.299  11.976  64.167  1.00  0.00    -0.725 OA 
HETATM   27  C   UNL     1     -12.767  14.087  65.218  1.00  0.00    -0.468 C  
HETATM   28  H   UNL     1     -14.221  12.160  64.309  1.00  0.00     0.000 HD 
HETATM   29  C   UNL     1     -12.095  13.525  66.472  1.00  0.00    -0.408 C  
HETATM   30  C   UNL     1     -10.633  13.175  66.214  1.00  0.00    -0.292 C  
HETATM   31  O   UNL     1     -12.221  14.481  67.526  1.00  0.00    -0.598 OA 
HETATM   32  C   UNL     1      -9.608  13.643  66.961  1.00  0.00    -0.251 C  
HETATM   33  H   UNL     1     -11.804  14.132  68.305  1.00  0.00     0.000 HD 
ENDBRANCH  14  22
TORSDOF 3
ENDMDL
MODEL       27
REMARK 921   NORMALIZED FREE ENERGY PREDICTED BY IDOCK:   -6.49 KCAL/MOL
REMARK 922        TOTAL FREE ENERGY PREDICTED BY IDOCK:   -8.59 KCAL/MOL
REMARK 923 INTER-LIGAND FREE ENERGY PREDICTED BY IDOCK:   -6.80 KCAL/MOL
REMARK 924 INTRA-LIGAND FREE ENERGY PREDICTED BY IDOCK:   -1.79 KCAL/MOL
REMARK 927      BINDING AFFINITY PREDICTED BY RF-SCORE:    0.00 PKD
ROOT
HETATM    1  C   UNL     1      -8.562  12.566  67.817  1.00  0.00    -0.178 C  
HETATM    2  C   UNL     1      -9.832  11.766  68.143  1.00  0.00    -0.190 C  
HETATM    3  C   UNL     1     -11.062  12.721  68.026  1.00  0.00    -0.284 C  
HETATM    4  C   UNL     1      -9.861  10.967  69.540  1.00  0.00     0.033 C  
HETATM    5  C   UNL     1      -7.603   7.144  69.986  1.00  0.00    -0.091 C  
HETATM    6  C   UNL     1     -11.114  10.095  69.552  1.00  0.00    -0.295 C  
HETATM    7  C   UNL     1     -10.731   8.904  68.694  1.00  0.00    -0.118 C  
HETATM    8  C   UNL     1      -8.677   9.173  71.203  1.00  0.00    -0.210 C  
HETATM    9  C   UNL     1      -8.733   9.871  69.799  1.00  0.00    -0.229 C  
HETATM   10  C   UNL     1      -9.175   8.729  68.777  1.00  0.00    -0.141 C  
HETATM   11  C   UNL     1      -7.350  10.557  69.694  1.00  0.00    -0.151 C  
HETATM   12  C   UNL     1      -8.859   7.276  69.184  1.00  0.00    -0.136 C  
HETATM   13  C   UNL     1      -7.609   8.036  71.225  1.00  0.00    -0.081 C  
HETATM   14  C   UNL     1      -9.696   6.249  68.911  1.00  0.00    -0.144 C  
ENDROOT
BRANCH   3  15
HETATM   15  C   UNL     1     -11.118  13.628  66.787  1.00  0.00    -0.315 C  
BRANCH  15  16
HETATM   16  C   UNL     1     -11.200  15.123  67.124  1.00  0.00    -0.320 C  
HETATM   17  O   UNL     1     -10.626  17.391  66.599  1.00  0.00    -0.281 OA 
HETATM   18  C   UNL     1     -11.048  15.996  64.732  1.00  0.00    -0.378 C  
HETATM   19  C   UNL     1      -8.959  15.749  66.110  1.00  0.00    -0.372 C  
HETATM   20  C   UNL     1     -10.456  16.047  66.141  1.00  0.00    -0.326 C  
HETATM   21  H   UNL     1     -10.167  17.961  65.993  1.00  0.00     0.000 HD 
ENDBRANCH  15  16
ENDBRANCH   3  15
BRANCH  14  22
HETATM   22  C   UNL     1      -9.834   5.013  69.665  1.00  0.00    -0.290 C  
HETATM   23  C   UNL     1      -9.977   3.693  71.789  1.00  0.00    -0.210 C  
HETATM   24  C   UNL     1      -9.296   4.070  73.122  1.00  0.00    -0.112 C  
HETATM   25  C   UNL     1     -10.268   4.922  70.942  1.00  0.00    -0.272 C  
HETATM   26  O   UNL     1      -7.955   4.523  72.910  1.00  0.00    -0.089 OA 
HETATM   27  C   UNL     1     -10.082   5.138  73.881  1.00  0.00    -0.228 C  
HETATM   28  H   UNL     1      -7.536   4.755  73.731  1.00  0.00     0.000 HD 
HETATM   29  C   UNL     1     -10.354   6.366  73.010  1.00  0.00    -0.214 C  
HETATM   30  C   UNL     1     -10.970   5.977  71.670  1.00  0.00    -0.328 C  
HETATM   31  O   UNL     1     -11.205   7.258  73.731  1.00  0.00    -0.529 OA 
HETATM   32  C   UNL     1     -12.125   6.495  71.198  1.00  0.00    -0.318 C  
HETATM   33  H   UNL     1     -11.375   8.021  73.191  1.00  0.00     0.000 HD 
ENDBRANCH  14  22
TORSDOF 3
ENDMDL
MODEL       28
REMARK 921   NORMALIZED FREE ENERGY PREDICTED BY IDOCK:   -6.48 KCAL/MOL
REMARK 922        TOTAL FREE ENERGY PREDICTED BY IDOCK:   -8.58 KCAL/MOL
REMARK 923 INTER-LIGAND FREE ENERGY PREDICTED BY IDOCK:   -6.80 KCAL/MOL
REMARK 924 INTRA-LIGAND FREE ENERGY PREDICTED BY IDOCK:   -1.77 KCAL/MOL
REMARK 927      BINDING AFFINITY PREDICTED BY RF-SCORE:    0.00 PKD
ROOT
HETATM    1  C   UNL     1      -9.920   6.240  69.583  1.00  0.00    -0.201 C  
HETATM    2  C   UNL     1     -10.056   7.614  70.255  1.00  0.00    -0.198 C  
HETATM    3  C   UNL     1     -10.692   7.412  71.668  1.00  0.00    -0.239 C  
HETATM    4  C   UNL     1     -10.836   8.760  69.438  1.00  0.00    -0.123 C  
HETATM    5  C   UNL     1      -8.827  10.863  66.053  1.00  0.00    -0.198 C  
HETATM    6  C   UNL     1     -10.670  10.072  70.201  1.00  0.00    -0.361 C  
HETATM    7  C   UNL     1      -9.272  10.530  69.827  1.00  0.00     0.112 C  
HETATM    8  C   UNL     1     -11.089  10.202  67.148  1.00  0.00    -0.122 C  
HETATM    9  C   UNL     1     -10.271   9.175  68.006  1.00  0.00    -0.258 C  
HETATM   10  C   UNL     1      -8.931   9.939  68.415  1.00  0.00    -0.120 C  
HETATM   11  C   UNL     1     -10.239   7.915  67.108  1.00  0.00    -0.360 C  
HETATM   12  C   UNL     1      -8.480  11.086  67.491  1.00  0.00    -0.127 C  
HETATM   13  C   UNL     1     -10.317  10.594  65.851  1.00  0.00    -0.291 C  
HETATM   14  C   UNL     1      -7.910  12.217  67.966  1.00  0.00    -0.147 C  
ENDROOT
BRANCH   3  15
HETATM   15  C   UNL     1     -10.117   6.276  72.529  1.00  0.00    -0.193 C  
BRANCH  15  16
HETATM   16  C   UNL     1     -11.136   5.178  72.856  1.00  0.00    -0.359 C  
HETATM   17  O   UNL     1     -11.595   2.914  73.499  1.00  0.00    -0.196 OA 
HETATM   18  C   UNL     1      -9.692   3.889  74.518  1.00  0.00    -0.160 C  
HETATM   19  C   UNL     1      -9.692   3.236  72.089  1.00  0.00    -0.230 C  
HETATM   20  C   UNL     1     -10.519   3.818  73.234  1.00  0.00    -0.177 C  
HETATM   21  H   UNL     1     -11.214   2.075  73.732  1.00  0.00     0.000 HD 
ENDBRANCH  15  16
ENDBRANCH   3  15
BRANCH  14  22
HETATM   22  C   UNL     1      -7.952  13.538  67.358  1.00  0.00    -0.165 C  
HETATM   23  C   UNL     1      -9.103  15.409  66.154  1.00  0.00    -0.339 C  
HETATM   24  C   UNL     1     -10.261  15.244  65.148  1.00  0.00    -0.339 C  
HETATM   25  C   UNL     1      -9.071  14.271  67.162  1.00  0.00    -0.237 C  
HETATM   26  O   UNL     1     -10.020  14.154  64.252  1.00  0.00    -0.616 OA 
HETATM   27  C   UNL     1     -11.602  15.042  65.851  1.00  0.00    -0.165 C  
HETATM   28  H   UNL     1     -10.733  14.053  63.632  1.00  0.00     0.000 HD 
HETATM   29  C   UNL     1     -11.546  13.886  66.853  1.00  0.00    -0.378 C  
HETATM   30  C   UNL     1     -10.361  14.026  67.803  1.00  0.00    -0.236 C  
HETATM   31  O   UNL     1     -12.781  13.842  67.568  1.00  0.00    -0.278 OA 
HETATM   32  C   UNL     1     -10.475  14.009  69.149  1.00  0.00    -0.103 C  
HETATM   33  H   UNL     1     -12.748  13.125  68.191  1.00  0.00     0.000 HD 
ENDBRANCH  14  22
TORSDOF 3
ENDMDL
MODEL       29
REMARK 921   NORMALIZED FREE ENERGY PREDICTED BY IDOCK:   -6.44 KCAL/MOL
REMARK 922        TOTAL FREE ENERGY PREDICTED BY IDOCK:   -8.54 KCAL/MOL
REMARK 923 INTER-LIGAND FREE ENERGY PREDICTED BY IDOCK:   -6.98 KCAL/MOL
REMARK 924 INTRA-LIGAND FREE ENERGY PREDICTED BY IDOCK:   -1.56 KCAL/MOL
REMARK 927      BINDING AFFINITY PREDICTED BY RF-SCORE:    0.00 PKD
ROOT
HETATM    1  C   UNL     1      -9.411  13.457  66.460  1.00  0.00    -0.252 C  
HETATM    2  C   UNL     1     -10.201  12.631  67.487  1.00  0.00    -0.215 C  
HETATM    3  C   UNL     1     -10.895  13.615  68.483  1.00  0.00    -0.275 C  
HETATM    4  C   UNL     1      -9.400  11.484  68.283  1.00  0.00    -0.190 C  
HETATM    5  C   UNL     1      -8.414   7.627  66.268  1.00  0.00    -0.140 C  
HETATM    6  C   UNL     1     -10.418  10.675  69.082  1.00  0.00    -0.245 C  
HETATM    7  C   UNL     1     -11.035   9.752  68.048  1.00  0.00    -0.236 C  
HETATM    8  C   UNL     1      -7.819   9.276  68.186  1.00  0.00    -0.095 C  
HETATM    9  C   UNL     1      -8.703  10.330  67.432  1.00  0.00    -0.128 C  
HETATM   10  C   UNL     1      -9.976   9.520  66.914  1.00  0.00    -0.278 C  
HETATM   11  C   UNL     1      -7.706  10.983  66.446  1.00  0.00    -0.146 C  
HETATM   12  C   UNL     1      -9.794   8.004  66.707  1.00  0.00    -0.327 C  
HETATM   13  C   UNL     1      -7.341   8.149  67.220  1.00  0.00    -0.089 C  
HETATM   14  C   UNL     1     -10.771   7.112  66.986  1.00  0.00    -0.420 C  
ENDROOT
BRANCH   3  15
HETATM   15  C   UNL     1     -11.616  14.825  67.869  1.00  0.00    -0.373 C  
BRANCH  15  16
HETATM   16  C   UNL     1     -11.562  16.081  68.748  1.00  0.00    -0.352 C  
HETATM   17  O   UNL     1     -10.519  18.168  69.303  1.00  0.00    -0.423 OA 
HETATM   18  C   UNL     1     -10.593  17.656  66.992  1.00  0.00    -0.254 C  
HETATM   19  C   UNL     1      -9.055  16.430  68.559  1.00  0.00    -0.223 C  
HETATM   20  C   UNL     1     -10.433  17.067  68.394  1.00  0.00    -0.370 C  
HETATM   21  H   UNL     1      -9.822  18.776  69.084  1.00  0.00     0.000 HD 
ENDBRANCH  15  16
ENDBRANCH   3  15
BRANCH  14  22
HETATM   22  C   UNL     1     -10.598   5.722  67.376  1.00  0.00    -0.340 C  
HETATM   23  C   UNL     1      -9.656   3.906  68.823  1.00  0.00    -0.187 C  
HETATM   24  C   UNL     1      -8.300   3.962  69.556  1.00  0.00    -0.056 C  
HETATM   25  C   UNL     1     -10.234   5.296  68.607  1.00  0.00    -0.223 C  
HETATM   26  O   UNL     1      -7.277   4.505  68.716  1.00  0.00    -0.052 OA 
HETATM   27  C   UNL     1      -8.384   4.773  70.848  1.00  0.00    -0.101 C  
HETATM   28  H   UNL     1      -6.441   4.539  69.167  1.00  0.00     0.000 HD 
HETATM   29  C   UNL     1      -8.959   6.170  70.602  1.00  0.00    -0.147 C  
HETATM   30  C   UNL     1     -10.269   6.106  69.822  1.00  0.00    -0.249 C  
HETATM   31  O   UNL     1      -9.138   6.818  71.862  1.00  0.00    -0.143 OA 
HETATM   32  C   UNL     1     -11.417   6.682  70.240  1.00  0.00    -0.449 C  
HETATM   33  H   UNL     1      -9.495   7.685  71.711  1.00  0.00     0.000 HD 
ENDBRANCH  14  22
TORSDOF 3
ENDMDL
MODEL       30
REMARK 921   NORMALIZED FREE ENERGY PREDICTED BY IDOCK:   -6.39 KCAL/MOL
REMARK 922        TOTAL FREE ENERGY PREDICTED BY IDOCK:   -8.47 KCAL/MOL
REMARK 923 INTER-LIGAND FREE ENERGY PREDICTED BY IDOCK:   -7.48 KCAL/MOL
REMARK 924 INTRA-LIGAND FREE ENERGY PREDICTED BY IDOCK:   -0.99 KCAL/MOL
REMARK 927      BINDING AFFINITY PREDICTED BY RF-SCORE:    0.00 PKD
ROOT
HETATM    1  C   UNL     1      -9.846   5.595  69.207  1.00  0.00    -0.230 C  
HETATM    2  C   UNL     1      -9.024   6.892  69.249  1.00  0.00    -0.137 C  
HETATM    3  C   UNL     1      -7.508   6.517  69.237  1.00  0.00    -0.095 C  
HETATM    4  C   UNL     1      -9.346   7.930  70.436  1.00  0.00    -0.159 C  
HETATM    5  C   UNL     1     -12.987  10.503  70.241  1.00  0.00    -0.115 C  
HETATM    6  C   UNL     1      -8.565   9.212  70.158  1.00  0.00    -0.195 C  
HETATM    7  C   UNL     1      -9.394   9.916  69.100  1.00  0.00    -0.197 C  
HETATM    8  C   UNL     1     -11.187   9.420  71.770  1.00  0.00    -0.359 C  
HETATM    9  C   UNL     1     -10.829   8.503  70.548  1.00  0.00    -0.252 C  
HETATM   10  C   UNL     1     -10.885   9.460  69.272  1.00  0.00    -0.190 C  
HETATM   11  C   UNL     1     -11.804   7.312  70.706  1.00  0.00    -0.324 C  
HETATM   12  C   UNL     1     -11.778  10.711  69.385  1.00  0.00    -0.344 C  
HETATM   13  C   UNL     1     -12.628   9.999  71.637  1.00  0.00    -0.524 C  
HETATM   14  C   UNL     1     -11.436  11.897  68.831  1.00  0.00    -0.358 C  
ENDROOT
BRANCH   3  15
HETATM   15  C   UNL     1      -7.066   5.453  68.220  1.00  0.00    -0.066 C  
BRANCH  15  16
HETATM   16  C   UNL     1      -6.689   6.034  66.851  1.00  0.00    -0.058 C  
HETATM   17  O   UNL     1      -6.906   5.998  64.463  1.00  0.00    -0.044 OA 
HETATM   18  C   UNL     1      -8.887   5.512  65.668  1.00  0.00    -0.154 C  
HETATM   19  C   UNL     1      -6.984   3.872  65.554  1.00  0.00    -0.061 C  
HETATM   20  C   UNL     1      -7.367   5.347  65.650  1.00  0.00    -0.073 C  
HETATM   21  H   UNL     1      -7.325   5.574  63.723  1.00  0.00     0.000 HD 
ENDBRANCH  15  16
ENDBRANCH   3  15
BRANCH  14  22
HETATM   22  C   UNL     1     -11.830  13.220  69.289  1.00  0.00    -0.383 C  
HETATM   23  C   UNL     1     -11.775  15.723  69.205  1.00  0.00    -0.384 C  
HETATM   24  C   UNL     1     -10.572  16.574  68.747  1.00  0.00    -0.322 C  
HETATM   25  C   UNL     1     -11.772  14.351  68.550  1.00  0.00    -0.370 C  
HETATM   26  O   UNL     1      -9.345  16.071  69.283  1.00  0.00    -0.241 OA 
HETATM   27  C   UNL     1     -10.473  16.648  67.225  1.00  0.00    -0.313 C  
HETATM   28  H   UNL     1      -8.604  16.595  69.001  1.00  0.00     0.000 HD 
HETATM   29  C   UNL     1     -10.462  15.256  66.590  1.00  0.00    -0.290 C  
HETATM   30  C   UNL     1     -11.620  14.401  67.098  1.00  0.00    -0.406 C  
HETATM   31  O   UNL     1     -10.509  15.400  65.170  1.00  0.00    -0.392 OA 
HETATM   32  C   UNL     1     -12.507  13.785  66.285  1.00  0.00    -0.441 C  
HETATM   33  H   UNL     1     -10.502  14.536  64.776  1.00  0.00     0.000 HD 
ENDBRANCH  14  22
TORSDOF 3
ENDMDL
MODEL       31
REMARK 921   NORMALIZED FREE ENERGY PREDICTED BY IDOCK:   -6.33 KCAL/MOL
REMARK 922        TOTAL FREE ENERGY PREDICTED BY IDOCK:   -8.41 KCAL/MOL
REMARK 923 INTER-LIGAND FREE ENERGY PREDICTED BY IDOCK:   -6.77 KCAL/MOL
REMARK 924 INTRA-LIGAND FREE ENERGY PREDICTED BY IDOCK:   -1.64 KCAL/MOL
REMARK 927      BINDING AFFINITY PREDICTED BY RF-SCORE:    0.00 PKD
ROOT
HETATM    1  C   UNL     1     -11.761  14.834  69.236  1.00  0.00    -0.347 C  
HETATM    2  C   UNL     1     -10.602  14.607  68.255  1.00  0.00    -0.235 C  
HETATM    3  C   UNL     1     -10.492  15.854  67.321  1.00  0.00    -0.310 C  
HETATM    4  C   UNL     1     -10.623  13.248  67.391  1.00  0.00    -0.250 C  
HETATM    5  C   UNL     1      -9.492   9.369  69.285  1.00  0.00    -0.164 C  
HETATM    6  C   UNL     1      -9.291  13.146  66.653  1.00  0.00    -0.242 C  
HETATM    7  C   UNL     1      -8.329  12.646  67.715  1.00  0.00    -0.172 C  
HETATM    8  C   UNL     1     -10.779  10.536  67.352  1.00  0.00    -0.334 C  
HETATM    9  C   UNL     1     -10.636  11.862  68.177  1.00  0.00    -0.233 C  
HETATM   10  C   UNL     1      -9.155  11.832  68.771  1.00  0.00     0.009 C  
HETATM   11  C   UNL     1     -11.876  11.835  69.102  1.00  0.00    -0.389 C  
HETATM   12  C   UNL     1      -8.509  10.445  68.946  1.00  0.00    -0.144 C  
HETATM   13  C   UNL     1     -10.628   9.283  68.268  1.00  0.00    -0.237 C  
HETATM   14  C   UNL     1      -7.192  10.225  68.722  1.00  0.00    -0.083 C  
ENDROOT
BRANCH   3  15
HETATM   15  C   UNL     1     -10.563  17.233  67.997  1.00  0.00    -0.394 C  
BRANCH  15  16
HETATM   16  C   UNL     1     -10.477  18.404  67.011  1.00  0.00    -0.429 C  
HETATM   17  O   UNL     1      -9.184  20.136  65.971  1.00  0.00    -0.566 OA 
HETATM   18  C   UNL     1      -8.021  18.114  66.386  1.00  0.00    -0.297 C  
HETATM   19  C   UNL     1      -8.662  19.668  68.257  1.00  0.00    -0.361 C  
HETATM   20  C   UNL     1      -9.090  19.069  66.919  1.00  0.00    -0.303 C  
HETATM   21  H   UNL     1      -8.328  20.545  65.915  1.00  0.00     0.000 HD 
ENDBRANCH  15  16
ENDBRANCH   3  15
BRANCH  14  22
HETATM   22  C   UNL     1      -6.575   8.977  68.304  1.00  0.00    -0.060 C  
HETATM   23  C   UNL     1      -6.468   6.886  66.928  1.00  0.00    -0.046 C  
HETATM   24  C   UNL     1      -7.687   6.108  66.391  1.00  0.00    -0.102 C  
HETATM   25  C   UNL     1      -6.785   8.362  67.119  1.00  0.00    -0.063 C  
HETATM   26  O   UNL     1      -8.710   5.994  67.385  1.00  0.00    -0.107 OA 
HETATM   27  C   UNL     1      -8.267   6.754  65.134  1.00  0.00    -0.114 C  
HETATM   28  H   UNL     1      -9.461   5.514  67.054  1.00  0.00     0.000 HD 
HETATM   29  C   UNL     1      -8.585   8.235  65.354  1.00  0.00    -0.151 C  
HETATM   30  C   UNL     1      -7.393   8.982  65.944  1.00  0.00    -0.093 C  
HETATM   31  O   UNL     1      -8.990   8.806  64.109  1.00  0.00    -0.421 OA 
HETATM   32  C   UNL     1      -6.864  10.098  65.396  1.00  0.00    -0.128 C  
HETATM   33  H   UNL     1      -9.188   9.725  64.245  1.00  0.00     0.000 HD 
ENDBRANCH  14  22
TORSDOF 3
ENDMDL
MODEL       32
REMARK 921   NORMALIZED FREE ENERGY PREDICTED BY IDOCK:   -6.31 KCAL/MOL
REMARK 922        TOTAL FREE ENERGY PREDICTED BY IDOCK:   -8.38 KCAL/MOL
REMARK 923 INTER-LIGAND FREE ENERGY PREDICTED BY IDOCK:   -6.64 KCAL/MOL
REMARK 924 INTRA-LIGAND FREE ENERGY PREDICTED BY IDOCK:   -1.74 KCAL/MOL
REMARK 927      BINDING AFFINITY PREDICTED BY RF-SCORE:    0.00 PKD
ROOT
HETATM    1  C   UNL     1      -8.178  15.477  66.599  1.00  0.00    -0.244 C  
HETATM    2  C   UNL     1      -9.404  14.797  67.228  1.00  0.00    -0.211 C  
HETATM    3  C   UNL     1     -10.343  15.906  67.802  1.00  0.00    -0.278 C  
HETATM    4  C   UNL     1      -9.129  13.656  68.330  1.00  0.00    -0.193 C  
HETATM    5  C   UNL     1      -7.798   9.590  67.064  1.00  0.00    -0.098 C  
HETATM    6  C   UNL     1     -10.464  12.993  68.656  1.00  0.00    -0.236 C  
HETATM    7  C   UNL     1     -10.687  12.043  67.493  1.00  0.00    -0.262 C  
HETATM    8  C   UNL     1      -7.887  11.331  68.990  1.00  0.00    -0.079 C  
HETATM    9  C   UNL     1      -8.264  12.390  67.896  1.00  0.00    -0.163 C  
HETATM   10  C   UNL     1      -9.283  11.643  66.920  1.00  0.00    -0.187 C  
HETATM   11  C   UNL     1      -6.886  12.884  67.397  1.00  0.00    -0.133 C  
HETATM   12  C   UNL     1      -9.187  10.106  66.866  1.00  0.00    -0.168 C  
HETATM   13  C   UNL     1      -7.170  10.099  68.359  1.00  0.00    -0.076 C  
HETATM   14  C   UNL     1     -10.279   9.317  66.741  1.00  0.00    -0.325 C  
ENDROOT
BRANCH   3  15
HETATM   15  C   UNL     1     -10.616  17.117  66.897  1.00  0.00    -0.209 C  
BRANCH  15  16
HETATM   16  C   UNL     1     -10.458  18.465  67.612  1.00  0.00    -0.445 C  
HETATM   17  O   UNL     1      -9.817  20.775  67.544  1.00  0.00    -0.439 OA 
HETATM   18  C   UNL     1     -10.852  19.953  65.578  1.00  0.00    -0.232 C  
HETATM   19  C   UNL     1      -8.510  19.286  66.206  1.00  0.00    -0.328 C  
HETATM   20  C   UNL     1      -9.909  19.603  66.730  1.00  0.00    -0.392 C  
HETATM   21  H   UNL     1      -9.479  21.476  67.000  1.00  0.00     0.000 HD 
ENDBRANCH  15  16
ENDBRANCH   3  15
BRANCH  14  22
HETATM   22  C   UNL     1     -10.428   7.951  67.220  1.00  0.00    -0.390 C  
HETATM   23  C   UNL     1     -10.038   6.105  68.867  1.00  0.00    -0.211 C  
HETATM   24  C   UNL     1      -8.795   5.961  69.769  1.00  0.00    -0.128 C  
HETATM   25  C   UNL     1     -10.304   7.558  68.507  1.00  0.00    -0.224 C  
HETATM   26  O   UNL     1      -7.592   6.239  69.045  1.00  0.00    -0.091 OA 
HETATM   27  C   UNL     1      -8.873   6.867  70.996  1.00  0.00    -0.140 C  
HETATM   28  H   UNL     1      -6.826   6.150  69.601  1.00  0.00     0.000 HD 
HETATM   29  C   UNL     1      -9.132   8.324  70.608  1.00  0.00    -0.152 C  
HETATM   30  C   UNL     1     -10.326   8.448  69.665  1.00  0.00    -0.218 C  
HETATM   31  O   UNL     1      -9.332   9.087  71.799  1.00  0.00    -0.303 OA 
HETATM   32  C   UNL     1     -11.382   9.258  69.899  1.00  0.00    -0.083 C  
HETATM   33  H   UNL     1      -9.492   9.992  71.558  1.00  0.00     0.000 HD 
ENDBRANCH  14  22
TORSDOF 3
ENDMDL
MODEL       33
REMARK 921   NORMALIZED FREE ENERGY PREDICTED BY IDOCK:   -6.30 KCAL/MOL
REMARK 922        TOTAL FREE ENERGY PREDICTED BY IDOCK:   -8.37 KCAL/MOL
REMARK 923 INTER-LIGAND FREE ENERGY PREDICTED BY IDOCK:   -6.69 KCAL/MOL
REMARK 924 INTRA-LIGAND FREE ENERGY PREDICTED BY IDOCK:   -1.68 KCAL/MOL
REMARK 927      BINDING AFFINITY PREDICTED BY RF-SCORE:    0.00 PKD
ROOT
HETATM    1  C   UNL     1      -7.050   6.741  67.677  1.00  0.00    -0.085 C  
HETATM    2  C   UNL     1      -8.439   7.160  67.172  1.00  0.00    -0.121 C  
HETATM    3  C   UNL     1      -9.026   5.993  66.316  1.00  0.00    -0.156 C  
HETATM    4  C   UNL     1      -8.545   8.557  66.381  1.00  0.00    -0.136 C  
HETATM    5  C   UNL     1      -8.438  12.416  68.619  1.00  0.00     0.019 C  
HETATM    6  C   UNL     1     -10.025   8.857  66.161  1.00  0.00    -0.290 C  
HETATM    7  C   UNL     1     -10.485   9.397  67.503  1.00  0.00    -0.343 C  
HETATM    8  C   UNL     1      -8.064  11.232  66.337  1.00  0.00    -0.138 C  
HETATM    9  C   UNL     1      -8.081   9.882  67.136  1.00  0.00    -0.117 C  
HETATM   10  C   UNL     1      -9.246  10.044  68.214  1.00  0.00    -0.129 C  
HETATM   11  C   UNL     1      -6.604   9.711  67.564  1.00  0.00    -0.070 C  
HETATM   12  C   UNL     1      -9.607  11.484  68.630  1.00  0.00    -0.159 C  
HETATM   13  C   UNL     1      -7.724  12.435  67.269  1.00  0.00    -0.158 C  
HETATM   14  C   UNL     1     -10.879  11.865  68.889  1.00  0.00    -0.261 C  
ENDROOT
BRANCH   3  15
HETATM   15  C   UNL     1      -8.903   4.577  66.900  1.00  0.00    -0.112 C  
BRANCH  15  16
HETATM   16  C   UNL     1      -9.536   4.429  68.289  1.00  0.00    -0.199 C  
HETATM   17  O   UNL     1      -9.770   3.192  70.330  1.00  0.00    -0.151 OA 
HETATM   18  C   UNL     1      -7.593   3.202  69.395  1.00  0.00    -0.047 C  
HETATM   19  C   UNL     1      -9.466   1.892  68.346  1.00  0.00    -0.234 C  
HETATM   20  C   UNL     1      -9.087   3.181  69.073  1.00  0.00    -0.146 C  
HETATM   21  H   UNL     1      -9.493   2.421  70.813  1.00  0.00     0.000 HD 
ENDBRANCH  15  16
ENDBRANCH   3  15
BRANCH  14  22
HETATM   22  C   UNL     1     -11.437  13.200  68.737  1.00  0.00    -0.348 C  
HETATM   23  C   UNL     1     -11.654  15.415  67.588  1.00  0.00    -0.202 C  
HETATM   24  C   UNL     1     -10.531  16.128  66.805  1.00  0.00    -0.294 C  
HETATM   25  C   UNL     1     -11.468  13.906  67.585  1.00  0.00    -0.354 C  
HETATM   26  O   UNL     1      -9.283  16.051  67.500  1.00  0.00    -0.208 OA 
HETATM   27  C   UNL     1     -10.368  15.558  65.398  1.00  0.00    -0.422 C  
HETATM   28  H   UNL     1      -8.592  16.491  67.018  1.00  0.00     0.000 HD 
HETATM   29  C   UNL     1     -10.174  14.040  65.421  1.00  0.00    -0.347 C  
HETATM   30  C   UNL     1     -11.253  13.351  66.251  1.00  0.00    -0.322 C  
HETATM   31  O   UNL     1     -10.167  13.559  64.077  1.00  0.00    -0.723 OA 
HETATM   32  C   UNL     1     -12.028  12.346  65.784  1.00  0.00    -0.437 C  
HETATM   33  H   UNL     1     -10.047  12.616  64.091  1.00  0.00     0.000 HD 
ENDBRANCH  14  22
TORSDOF 3
ENDMDL
MODEL       34
REMARK 921   NORMALIZED FREE ENERGY PREDICTED BY IDOCK:   -6.30 KCAL/MOL
REMARK 922        TOTAL FREE ENERGY PREDICTED BY IDOCK:   -8.36 KCAL/MOL
REMARK 923 INTER-LIGAND FREE ENERGY PREDICTED BY IDOCK:   -6.58 KCAL/MOL
REMARK 924 INTRA-LIGAND FREE ENERGY PREDICTED BY IDOCK:   -1.78 KCAL/MOL
REMARK 927      BINDING AFFINITY PREDICTED BY RF-SCORE:    0.00 PKD
ROOT
HETATM    1  C   UNL     1     -10.262  10.513  66.215  1.00  0.00    -0.296 C  
HETATM    2  C   UNL     1     -10.620  10.628  67.704  1.00  0.00    -0.288 C  
HETATM    3  C   UNL     1     -10.905  12.129  68.029  1.00  0.00    -0.258 C  
HETATM    4  C   UNL     1      -9.581  10.002  68.762  1.00  0.00    -0.168 C  
HETATM    5  C   UNL     1      -9.391   5.586  69.376  1.00  0.00    -0.154 C  
HETATM    6  C   UNL     1     -10.235  10.051  70.140  1.00  0.00    -0.297 C  
HETATM    7  C   UNL     1     -11.186   8.868  70.129  1.00  0.00    -0.175 C  
HETATM    8  C   UNL     1      -8.141   7.853  69.594  1.00  0.00    -0.117 C  
HETATM    9  C   UNL     1      -9.241   8.449  68.648  1.00  0.00    -0.143 C  
HETATM   10  C   UNL     1     -10.613   7.798  69.135  1.00  0.00    -0.193 C  
HETATM   11  C   UNL     1      -8.674   8.174  67.235  1.00  0.00    -0.125 C  
HETATM   12  C   UNL     1     -10.516   6.443  69.863  1.00  0.00    -0.265 C  
HETATM   13  C   UNL     1      -8.045   6.305  69.442  1.00  0.00    -0.113 C  
HETATM   14  C   UNL     1     -11.322   6.119  70.900  1.00  0.00    -0.355 C  
ENDROOT
BRANCH   3  15
HETATM   15  C   UNL     1     -11.803  12.892  67.042  1.00  0.00    -0.437 C  
BRANCH  15  16
HETATM   16  C   UNL     1     -11.281  14.292  66.695  1.00  0.00    -0.337 C  
HETATM   17  O   UNL     1     -10.586  15.883  65.040  1.00  0.00    -0.497 OA 
HETATM   18  C   UNL     1     -12.389  14.484  64.405  1.00  0.00    -0.437 C  
HETATM   19  C   UNL     1     -10.042  13.598  64.590  1.00  0.00    -0.228 C  
HETATM   20  C   UNL     1     -11.078  14.548  65.189  1.00  0.00    -0.370 C  
HETATM   21  H   UNL     1     -10.460  16.040  64.111  1.00  0.00     0.000 HD 
ENDBRANCH  15  16
ENDBRANCH   3  15
BRANCH  14  22
HETATM   22  C   UNL     1     -11.015   5.208  71.992  1.00  0.00    -0.143 C  
HETATM   23  C   UNL     1      -9.496   4.227  73.725  1.00  0.00    -0.123 C  
HETATM   24  C   UNL     1      -7.962   4.115  73.606  1.00  0.00    -0.089 C  
HETATM   25  C   UNL     1     -10.038   5.390  72.907  1.00  0.00    -0.204 C  
HETATM   26  O   UNL     1      -7.572   3.676  72.301  1.00  0.00    -0.056 OA 
HETATM   27  C   UNL     1      -7.267   5.437  73.929  1.00  0.00    -0.086 C  
HETATM   28  H   UNL     1      -6.627   3.607  72.229  1.00  0.00     0.000 HD 
HETATM   29  C   UNL     1      -7.823   6.588  73.087  1.00  0.00    -0.100 C  
HETATM   30  C   UNL     1      -9.346   6.651  73.162  1.00  0.00    -0.147 C  
HETATM   31  O   UNL     1      -7.232   7.809  73.535  1.00  0.00    -0.095 OA 
HETATM   32  C   UNL     1     -10.032   7.761  73.514  1.00  0.00    -0.286 C  
HETATM   33  H   UNL     1      -7.576   8.524  73.013  1.00  0.00     0.000 HD 
ENDBRANCH  14  22
TORSDOF 3
ENDMDL
MODEL       35
REMARK 921   NORMALIZED FREE ENERGY PREDICTED BY IDOCK:   -6.28 KCAL/MOL
REMARK 922        TOTAL FREE ENERGY PREDICTED BY IDOCK:   -8.35 KCAL/MOL
REMARK 923 INTER-LIGAND FREE ENERGY PREDICTED BY IDOCK:   -6.64 KCAL/MOL
REMARK 924 INTRA-LIGAND FREE ENERGY PREDICTED BY IDOCK:   -1.71 KCAL/MOL
REMARK 927      BINDING AFFINITY PREDICTED BY RF-SCORE:    0.00 PKD
ROOT
HETATM    1  C   UNL     1      -5.230  15.358  67.845  1.00  0.00    -0.124 C  
HETATM    2  C   UNL     1      -6.749  15.137  67.803  1.00  0.00    -0.185 C  
HETATM    3  C   UNL     1      -7.454  16.471  68.208  1.00  0.00    -0.171 C  
HETATM    4  C   UNL     1      -7.338  13.901  68.649  1.00  0.00    -0.117 C  
HETATM    5  C   UNL     1      -6.911   9.730  67.122  1.00  0.00    -0.085 C  
HETATM    6  C   UNL     1      -8.816  13.757  68.297  1.00  0.00    -0.185 C  
HETATM    7  C   UNL     1      -8.798  13.041  66.959  1.00  0.00    -0.213 C  
HETATM    8  C   UNL     1      -7.279  11.241  69.204  1.00  0.00    -0.115 C  
HETATM    9  C   UNL     1      -6.806  12.438  68.307  1.00  0.00    -0.080 C  
HETATM   10  C   UNL     1      -7.482  12.192  66.883  1.00  0.00    -0.019 C  
HETATM   11  C   UNL     1      -5.269  12.421  68.484  1.00  0.00    -0.052 C  
HETATM   12  C   UNL     1      -7.849  10.736  66.535  1.00  0.00    -0.145 C  
HETATM   13  C   UNL     1      -6.776   9.879  68.636  1.00  0.00    -0.050 C  
HETATM   14  C   UNL     1      -8.965  10.417  65.840  1.00  0.00    -0.182 C  
ENDROOT
BRANCH   3  15
HETATM   15  C   UNL     1      -6.925  17.758  67.554  1.00  0.00    -0.189 C  
BRANCH  15  16
HETATM   16  C   UNL     1      -7.918  18.401  66.577  1.00  0.00    -0.294 C  
HETATM   17  O   UNL     1      -9.378  20.218  66.016  1.00  0.00    -0.603 OA 
HETATM   18  C   UNL     1      -7.380  20.832  67.132  1.00  0.00    -0.385 C  
HETATM   19  C   UNL     1      -9.250  19.656  68.336  1.00  0.00    -0.404 C  
HETATM   20  C   UNL     1      -8.472  19.766  67.027  1.00  0.00    -0.319 C  
HETATM   21  H   UNL     1      -9.720  21.060  66.294  1.00  0.00     0.000 HD 
ENDBRANCH  15  16
ENDBRANCH   3  15
BRANCH  14  22
HETATM   22  C   UNL     1      -9.715   9.173  65.917  1.00  0.00    -0.336 C  
HETATM   23  C   UNL     1     -10.709   7.235  67.155  1.00  0.00    -0.413 C  
HETATM   24  C   UNL     1     -10.142   6.617  68.449  1.00  0.00    -0.156 C  
HETATM   25  C   UNL     1     -10.334   8.703  67.023  1.00  0.00    -0.368 C  
HETATM   26  O   UNL     1      -8.719   6.482  68.381  1.00  0.00    -0.122 OA 
HETATM   27  C   UNL     1     -10.519   7.435  69.683  1.00  0.00    -0.237 C  
HETATM   28  H   UNL     1      -8.370   6.101  69.178  1.00  0.00     0.000 HD 
HETATM   29  C   UNL     1     -10.123   8.905  69.531  1.00  0.00    -0.198 C  
HETATM   30  C   UNL     1     -10.636   9.489  68.218  1.00  0.00    -0.260 C  
HETATM   31  O   UNL     1     -10.626   9.633  70.652  1.00  0.00    -0.278 OA 
HETATM   32  C   UNL     1     -11.387  10.610  68.140  1.00  0.00    -0.354 C  
HETATM   33  H   UNL     1     -10.380  10.546  70.558  1.00  0.00     0.000 HD 
ENDBRANCH  14  22
TORSDOF 3
ENDMDL
MODEL       36
REMARK 921   NORMALIZED FREE ENERGY PREDICTED BY IDOCK:   -6.28 KCAL/MOL
REMARK 922        TOTAL FREE ENERGY PREDICTED BY IDOCK:   -8.35 KCAL/MOL
REMARK 923 INTER-LIGAND FREE ENERGY PREDICTED BY IDOCK:   -6.38 KCAL/MOL
REMARK 924 INTRA-LIGAND FREE ENERGY PREDICTED BY IDOCK:   -1.97 KCAL/MOL
REMARK 927      BINDING AFFINITY PREDICTED BY RF-SCORE:    0.00 PKD
ROOT
HETATM    1  C   UNL     1      -9.753   5.868  69.291  1.00  0.00    -0.182 C  
HETATM    2  C   UNL     1      -9.996   7.213  69.992  1.00  0.00    -0.182 C  
HETATM    3  C   UNL     1     -10.725   6.939  71.346  1.00  0.00    -0.247 C  
HETATM    4  C   UNL     1     -10.760   8.353  69.152  1.00  0.00    -0.123 C  
HETATM    5  C   UNL     1      -8.597  10.643  65.992  1.00  0.00    -0.177 C  
HETATM    6  C   UNL     1     -10.706   9.645  69.964  1.00  0.00    -0.298 C  
HETATM    7  C   UNL     1      -9.305  10.170  69.711  1.00  0.00    -0.183 C  
HETATM    8  C   UNL     1     -10.904   9.858  66.894  1.00  0.00    -0.137 C  
HETATM    9  C   UNL     1     -10.109   8.836  67.780  1.00  0.00    -0.261 C  
HETATM   10  C   UNL     1      -8.837   9.639  68.311  1.00  0.00    -0.120 C  
HETATM   11  C   UNL     1      -9.958   7.609  66.850  1.00  0.00    -0.325 C  
HETATM   12  C   UNL     1      -8.367  10.833  67.458  1.00  0.00    -0.115 C  
HETATM   13  C   UNL     1     -10.055  10.322  65.671  1.00  0.00    -0.341 C  
HETATM   14  C   UNL     1      -7.881  11.970  68.008  1.00  0.00    -0.145 C  
ENDROOT
BRANCH   3  15
HETATM   15  C   UNL     1     -10.168   5.800  72.214  1.00  0.00    -0.233 C  
BRANCH  15  16
HETATM   16  C   UNL     1      -9.309   6.288  73.387  1.00  0.00    -0.137 C  
HETATM   17  O   UNL     1      -7.193   6.336  74.516  1.00  0.00    -0.093 OA 
HETATM   18  C   UNL     1      -7.078   6.333  72.150  1.00  0.00    -0.079 C  
HETATM   19  C   UNL     1      -7.757   4.280  73.434  1.00  0.00    -0.085 C  
HETATM   20  C   UNL     1      -7.846   5.803  73.361  1.00  0.00    -0.109 C  
HETATM   21  H   UNL     1      -6.292   6.036  74.500  1.00  0.00     0.000 HD 
ENDBRANCH  15  16
ENDBRANCH   3  15
BRANCH  14  22
HETATM   22  C   UNL     1      -7.934  13.307  67.437  1.00  0.00    -0.175 C  
HETATM   23  C   UNL     1      -9.076  15.175  66.219  1.00  0.00    -0.313 C  
HETATM   24  C   UNL     1     -10.162  15.002  65.138  1.00  0.00    -0.365 C  
HETATM   25  C   UNL     1      -9.064  14.007  67.194  1.00  0.00    -0.239 C  
HETATM   26  O   UNL     1      -9.828  13.950  64.227  1.00  0.00    -0.651 OA 
HETATM   27  C   UNL     1     -11.536  14.731  65.749  1.00  0.00    -0.322 C  
HETATM   28  H   UNL     1     -10.497  13.844  63.561  1.00  0.00     0.000 HD 
HETATM   29  C   UNL     1     -11.500  13.547  66.718  1.00  0.00    -0.346 C  
HETATM   30  C   UNL     1     -10.382  13.698  67.744  1.00  0.00    -0.241 C  
HETATM   31  O   UNL     1     -12.775  13.437  67.353  1.00  0.00    -0.002 OA 
HETATM   32  C   UNL     1     -10.578  13.634  69.080  1.00  0.00    -0.147 C  
HETATM   33  H   UNL     1     -12.754  12.703  67.954  1.00  0.00     0.000 HD 
ENDBRANCH  14  22
TORSDOF 3
ENDMDL
MODEL       37
REMARK 921   NORMALIZED FREE ENERGY PREDICTED BY IDOCK:   -6.27 KCAL/MOL
REMARK 922        TOTAL FREE ENERGY PREDICTED BY IDOCK:   -8.34 KCAL/MOL
REMARK 923 INTER-LIGAND FREE ENERGY PREDICTED BY IDOCK:   -6.55 KCAL/MOL
REMARK 924 INTRA-LIGAND FREE ENERGY PREDICTED BY IDOCK:   -1.78 KCAL/MOL
REMARK 927      BINDING AFFINITY PREDICTED BY RF-SCORE:    0.00 PKD
ROOT
HETATM    1  C   UNL     1     -11.078  15.534  67.581  1.00  0.00    -0.311 C  
HETATM    2  C   UNL     1      -9.658  14.969  67.735  1.00  0.00    -0.203 C  
HETATM    3  C   UNL     1      -8.642  16.151  67.637  1.00  0.00    -0.181 C  
HETATM    4  C   UNL     1      -9.233  13.768  66.751  1.00  0.00    -0.255 C  
HETATM    5  C   UNL     1     -10.724   9.628  67.489  1.00  0.00    -0.321 C  
HETATM    6  C   UNL     1      -7.878  13.241  67.218  1.00  0.00    -0.118 C  
HETATM    7  C   UNL     1      -8.225  12.361  68.405  1.00  0.00    -0.144 C  
HETATM    8  C   UNL     1      -9.771  11.302  65.745  1.00  0.00    -0.263 C  
HETATM    9  C   UNL     1     -10.100  12.431  66.782  1.00  0.00    -0.226 C  
HETATM   10  C   UNL     1      -9.688  11.832  68.203  1.00  0.00    -0.192 C  
HETATM   11  C   UNL     1     -11.568  12.792  66.455  1.00  0.00    -0.435 C  
HETATM   12  C   UNL     1      -9.684  10.297  68.330  1.00  0.00    -0.165 C  
HETATM   13  C   UNL     1     -10.620  10.022  66.017  1.00  0.00    -0.045 C  
HETATM   14  C   UNL     1      -8.763   9.634  69.067  1.00  0.00    -0.142 C  
ENDROOT
BRANCH   3  15
HETATM   15  C   UNL     1      -8.972  17.416  68.446  1.00  0.00    -0.277 C  
BRANCH  15  16
HETATM   16  C   UNL     1      -8.372  18.697  67.853  1.00  0.00    -0.293 C  
HETATM   17  O   UNL     1      -8.688  20.827  66.798  1.00  0.00    -0.558 OA 
HETATM   18  C   UNL     1     -10.316  20.249  68.418  1.00  0.00    -0.305 C  
HETATM   19  C   UNL     1     -10.233  19.111  66.177  1.00  0.00    -0.535 C  
HETATM   20  C   UNL     1      -9.407  19.704  67.316  1.00  0.00    -0.332 C  
HETATM   21  H   UNL     1      -9.327  21.448  66.467  1.00  0.00     0.000 HD 
ENDBRANCH  15  16
ENDBRANCH   3  15
BRANCH  14  22
HETATM   22  C   UNL     1      -8.286   8.277  68.851  1.00  0.00    -0.116 C  
HETATM   23  C   UNL     1      -7.607   6.349  67.403  1.00  0.00    -0.100 C  
HETATM   24  C   UNL     1      -8.165   6.050  65.996  1.00  0.00    -0.125 C  
HETATM   25  C   UNL     1      -7.676   7.833  67.729  1.00  0.00    -0.122 C  
HETATM   26  O   UNL     1      -9.584   6.225  65.951  1.00  0.00    -0.376 OA 
HETATM   27  C   UNL     1      -7.509   6.921  64.926  1.00  0.00    -0.094 C  
HETATM   28  H   UNL     1      -9.928   6.040  65.085  1.00  0.00     0.000 HD 
HETATM   29  C   UNL     1      -7.600   8.408  65.272  1.00  0.00    -0.090 C  
HETATM   30  C   UNL     1      -7.105   8.684  66.689  1.00  0.00    -0.080 C  
HETATM   31  O   UNL     1      -6.852   9.150  64.308  1.00  0.00    -0.083 OA 
HETATM   32  C   UNL     1      -6.146   9.591  66.982  1.00  0.00    -0.063 C  
HETATM   33  H   UNL     1      -6.909  10.073  64.523  1.00  0.00     0.000 HD 
ENDBRANCH  14  22
TORSDOF 3
ENDMDL
MODEL       38
REMARK 921   NORMALIZED FREE ENERGY PREDICTED BY IDOCK:   -6.27 KCAL/MOL
REMARK 922        TOTAL FREE ENERGY PREDICTED BY IDOCK:   -8.33 KCAL/MOL
REMARK 923 INTER-LIGAND FREE ENERGY PREDICTED BY IDOCK:   -6.62 KCAL/MOL
REMARK 924 INTRA-LIGAND FREE ENERGY PREDICTED BY IDOCK:   -1.72 KCAL/MOL
REMARK 927      BINDING AFFINITY PREDICTED BY RF-SCORE:    0.00 PKD
ROOT
HETATM    1  C   UNL     1     -12.353   7.892  71.179  1.00  0.00    -0.248 C  
HETATM    2  C   UNL     1     -10.997   8.276  70.569  1.00  0.00    -0.253 C  
HETATM    3  C   UNL     1      -9.898   7.351  71.183  1.00  0.00    -0.177 C  
HETATM    4  C   UNL     1     -10.559   9.822  70.662  1.00  0.00    -0.382 C  
HETATM    5  C   UNL     1     -12.393  12.843  67.938  1.00  0.00     0.209 C  
HETATM    6  C   UNL     1      -9.296  10.000  69.823  1.00  0.00    -0.233 C  
HETATM    7  C   UNL     1      -9.817  10.067  68.399  1.00  0.00    -0.169 C  
HETATM    8  C   UNL     1     -11.161  12.429  70.189  1.00  0.00     0.351 C  
HETATM    9  C   UNL     1     -11.514  10.913  69.999  1.00  0.00    -0.411 C  
HETATM   10  C   UNL     1     -11.286  10.617  68.448  1.00  0.00    -0.347 C  
HETATM   11  C   UNL     1     -12.914  10.795  70.646  1.00  0.00    -0.313 C  
HETATM   12  C   UNL     1     -11.399  11.819  67.491  1.00  0.00    -0.377 C  
HETATM   13  C   UNL     1     -12.117  13.338  69.357  1.00  0.00    -0.301 C  
HETATM   14  C   UNL     1     -10.602  11.959  66.407  1.00  0.00    -0.284 C  
ENDROOT
BRANCH   3  15
HETATM   15  C   UNL     1     -10.220   5.850  71.257  1.00  0.00    -0.262 C  
BRANCH  15  16
HETATM   16  C   UNL     1      -9.273   5.065  72.173  1.00  0.00    -0.156 C  
HETATM   17  O   UNL     1      -8.861   3.980  74.271  1.00  0.00    -0.095 OA 
HETATM   18  C   UNL     1     -11.064   3.753  73.430  1.00  0.00    -0.308 C  
HETATM   19  C   UNL     1     -10.230   5.938  74.356  1.00  0.00    -0.304 C  
HETATM   20  C   UNL     1      -9.865   4.695  73.547  1.00  0.00    -0.140 C  
HETATM   21  H   UNL     1      -9.227   3.752  75.119  1.00  0.00     0.000 HD 
ENDBRANCH  15  16
ENDBRANCH   3  15
BRANCH  14  22
HETATM   22  C   UNL     1     -10.199  13.206  65.774  1.00  0.00    -0.294 C  
HETATM   23  C   UNL     1      -9.400  15.579  65.820  1.00  0.00    -0.292 C  
HETATM   24  C   UNL     1      -9.691  16.598  66.942  1.00  0.00    -0.254 C  
HETATM   25  C   UNL     1      -9.417  14.151  66.342  1.00  0.00    -0.289 C  
HETATM   26  O   UNL     1     -11.056  16.528  67.367  1.00  0.00    -0.185 OA 
HETATM   27  C   UNL     1      -8.771  16.398  68.145  1.00  0.00    -0.191 C  
HETATM   28  H   UNL     1     -11.235  17.155  68.057  1.00  0.00     0.000 HD 
HETATM   29  C   UNL     1      -8.813  14.957  68.657  1.00  0.00    -0.179 C  
HETATM   30  C   UNL     1      -8.586  13.956  67.528  1.00  0.00    -0.195 C  
HETATM   31  O   UNL     1      -7.833  14.808  69.686  1.00  0.00    -0.373 OA 
HETATM   32  C   UNL     1      -7.637  12.994  67.560  1.00  0.00    -0.166 C  
HETATM   33  H   UNL     1      -7.859  13.913  70.004  1.00  0.00     0.000 HD 
ENDBRANCH  14  22
TORSDOF 3
ENDMDL
MODEL       39
REMARK 921   NORMALIZED FREE ENERGY PREDICTED BY IDOCK:   -6.26 KCAL/MOL
REMARK 922        TOTAL FREE ENERGY PREDICTED BY IDOCK:   -8.32 KCAL/MOL
REMARK 923 INTER-LIGAND FREE ENERGY PREDICTED BY IDOCK:   -6.64 KCAL/MOL
REMARK 924 INTRA-LIGAND FREE ENERGY PREDICTED BY IDOCK:   -1.68 KCAL/MOL
REMARK 927      BINDING AFFINITY PREDICTED BY RF-SCORE:    0.00 PKD
ROOT
HETATM    1  C   UNL     1     -11.588  14.665  65.716  1.00  0.00    -0.328 C  
HETATM    2  C   UNL     1     -10.504  14.387  66.768  1.00  0.00    -0.273 C  
HETATM    3  C   UNL     1      -9.761  15.726  67.078  1.00  0.00    -0.235 C  
HETATM    4  C   UNL     1      -9.451  13.212  66.448  1.00  0.00    -0.226 C  
HETATM    5  C   UNL     1     -10.660   8.939  66.884  1.00  0.00    -0.254 C  
HETATM    6  C   UNL     1      -8.613  12.984  67.703  1.00  0.00    -0.190 C  
HETATM    7  C   UNL     1      -9.517  12.152  68.593  1.00  0.00    -0.052 C  
HETATM    8  C   UNL     1      -9.019  10.617  65.768  1.00  0.00    -0.200 C  
HETATM    9  C   UNL     1     -10.021  11.744  66.199  1.00  0.00    -0.254 C  
HETATM   10  C   UNL     1     -10.496  11.347  67.670  1.00  0.00    -0.225 C  
HETATM   11  C   UNL     1     -11.017  11.799  65.017  1.00  0.00    -0.357 C  
HETATM   12  C   UNL     1     -10.416   9.854  68.042  1.00  0.00    -0.266 C  
HETATM   13  C   UNL     1      -9.726   9.228  65.711  1.00  0.00    -0.339 C  
HETATM   14  C   UNL     1     -10.069   9.434  69.280  1.00  0.00    -0.200 C  
ENDROOT
BRANCH   3  15
HETATM   15  C   UNL     1     -10.639  16.967  67.304  1.00  0.00    -0.267 C  
BRANCH  15  16
HETATM   16  C   UNL     1     -10.335  18.117  66.335  1.00  0.00    -0.404 C  
HETATM   17  O   UNL     1      -9.342  20.261  65.924  1.00  0.00    -0.602 OA 
HETATM   18  C   UNL     1      -8.133  18.851  67.394  1.00  0.00    -0.280 C  
HETATM   19  C   UNL     1     -10.286  19.944  68.098  1.00  0.00    -0.533 C  
HETATM   20  C   UNL     1      -9.531  19.280  66.948  1.00  0.00    -0.325 C  
HETATM   21  H   UNL     1      -8.846  20.978  66.302  1.00  0.00     0.000 HD 
ENDBRANCH  15  16
ENDBRANCH   3  15
BRANCH  14  22
HETATM   22  C   UNL     1      -9.426   8.176  69.627  1.00  0.00    -0.159 C  
HETATM   23  C   UNL     1      -7.776   6.330  69.248  1.00  0.00    -0.100 C  
HETATM   24  C   UNL     1      -7.261   5.862  67.870  1.00  0.00    -0.072 C  
HETATM   25  C   UNL     1      -8.195   7.792  69.221  1.00  0.00    -0.129 C  
HETATM   26  O   UNL     1      -8.327   5.775  66.919  1.00  0.00    -0.108 OA 
HETATM   27  C   UNL     1      -6.167   6.779  67.329  1.00  0.00    -0.036 C  
HETATM   28  H   UNL     1      -8.009   5.486  66.072  1.00  0.00     0.000 HD 
HETATM   29  C   UNL     1      -6.616   8.242  67.304  1.00  0.00    -0.058 C  
HETATM   30  C   UNL     1      -7.181   8.676  68.653  1.00  0.00    -0.076 C  
HETATM   31  O   UNL     1      -5.506   9.055  66.921  1.00  0.00    -0.039 OA 
HETATM   32  C   UNL     1      -6.740   9.756  69.336  1.00  0.00    -0.055 C  
HETATM   33  H   UNL     1      -5.784   9.963  66.906  1.00  0.00     0.000 HD 
ENDBRANCH  14  22
TORSDOF 3
ENDMDL
MODEL       40
REMARK 921   NORMALIZED FREE ENERGY PREDICTED BY IDOCK:   -6.26 KCAL/MOL
REMARK 922        TOTAL FREE ENERGY PREDICTED BY IDOCK:   -8.32 KCAL/MOL
REMARK 923 INTER-LIGAND FREE ENERGY PREDICTED BY IDOCK:   -7.59 KCAL/MOL
REMARK 924 INTRA-LIGAND FREE ENERGY PREDICTED BY IDOCK:   -0.73 KCAL/MOL
REMARK 927      BINDING AFFINITY PREDICTED BY RF-SCORE:    0.00 PKD
ROOT
HETATM    1  C   UNL     1     -11.563  14.663  65.708  1.00  0.00    -0.328 C  
HETATM    2  C   UNL     1     -10.486  14.330  66.751  1.00  0.00    -0.273 C  
HETATM    3  C   UNL     1      -9.754  15.653  67.144  1.00  0.00    -0.226 C  
HETATM    4  C   UNL     1      -9.425  13.181  66.374  1.00  0.00    -0.226 C  
HETATM    5  C   UNL     1     -10.612   8.883  66.554  1.00  0.00    -0.051 C  
HETATM    6  C   UNL     1      -8.595  12.886  67.620  1.00  0.00    -0.182 C  
HETATM    7  C   UNL     1      -9.502  11.999  68.454  1.00  0.00    -0.181 C  
HETATM    8  C   UNL     1      -8.972  10.631  65.550  1.00  0.00    -0.209 C  
HETATM    9  C   UNL     1      -9.984  11.727  66.036  1.00  0.00    -0.258 C  
HETATM   10  C   UNL     1     -10.469  11.243  67.477  1.00  0.00    -0.234 C  
HETATM   11  C   UNL     1     -10.971  11.844  64.851  1.00  0.00    -0.367 C  
HETATM   12  C   UNL     1     -10.383   9.732  67.764  1.00  0.00    -0.274 C  
HETATM   13  C   UNL     1      -9.670   9.244  65.407  1.00  0.00    -0.170 C  
HETATM   14  C   UNL     1     -10.044   9.243  68.979  1.00  0.00    -0.207 C  
ENDROOT
BRANCH   3  15
HETATM   15  C   UNL     1     -10.640  16.875  67.434  1.00  0.00    -0.294 C  
BRANCH  15  16
HETATM   16  C   UNL     1     -10.355  18.070  66.515  1.00  0.00    -0.376 C  
HETATM   17  O   UNL     1      -9.369  20.231  66.187  1.00  0.00    -0.589 OA 
HETATM   18  C   UNL     1      -8.131  18.751  67.562  1.00  0.00    -0.273 C  
HETATM   19  C   UNL     1     -10.267  19.810  68.362  1.00  0.00    -0.568 C  
HETATM   20  C   UNL     1      -9.537  19.202  67.166  1.00  0.00    -0.319 C  
HETATM   21  H   UNL     1      -8.864  20.929  66.589  1.00  0.00     0.000 HD 
ENDBRANCH  15  16
ENDBRANCH   3  15
BRANCH  14  22
HETATM   22  C   UNL     1      -9.397   7.971  69.258  1.00  0.00    -0.151 C  
HETATM   23  C   UNL     1      -8.498   6.209  70.796  1.00  0.00    -0.131 C  
HETATM   24  C   UNL     1      -7.921   6.463  72.204  1.00  0.00    -0.107 C  
HETATM   25  C   UNL     1      -9.517   7.270  70.408  1.00  0.00    -0.165 C  
HETATM   26  O   UNL     1      -7.067   7.612  72.216  1.00  0.00    -0.065 OA 
HETATM   27  C   UNL     1      -9.021   6.634  73.249  1.00  0.00    -0.138 C  
HETATM   28  H   UNL     1      -6.711   7.768  73.083  1.00  0.00     0.000 HD 
HETATM   29  C   UNL     1     -10.027   7.713  72.840  1.00  0.00    -0.261 C  
HETATM   30  C   UNL     1     -10.545   7.487  71.423  1.00  0.00    -0.229 C  
HETATM   31  O   UNL     1     -11.097   7.723  73.787  1.00  0.00    -0.404 OA 
HETATM   32  C   UNL     1     -11.857   7.408  71.109  1.00  0.00    -0.330 C  
HETATM   33  H   UNL     1     -11.721   8.393  73.534  1.00  0.00     0.000 HD 
ENDBRANCH  14  22
TORSDOF 3
ENDMDL
MODEL       41
REMARK 921   NORMALIZED FREE ENERGY PREDICTED BY IDOCK:   -6.21 KCAL/MOL
REMARK 922        TOTAL FREE ENERGY PREDICTED BY IDOCK:   -8.26 KCAL/MOL
REMARK 923 INTER-LIGAND FREE ENERGY PREDICTED BY IDOCK:   -7.55 KCAL/MOL
REMARK 924 INTRA-LIGAND FREE ENERGY PREDICTED BY IDOCK:   -0.71 KCAL/MOL
REMARK 927      BINDING AFFINITY PREDICTED BY RF-SCORE:    0.00 PKD
ROOT
HETATM    1  C   UNL     1     -10.655  12.247  65.363  1.00  0.00    -0.309 C  
HETATM    2  C   UNL     1     -10.560  11.930  66.863  1.00  0.00    -0.264 C  
HETATM    3  C   UNL     1     -10.565  13.277  67.654  1.00  0.00    -0.242 C  
HETATM    4  C   UNL     1      -9.343  10.992  67.342  1.00  0.00    -0.165 C  
HETATM    5  C   UNL     1      -9.497   6.587  66.647  1.00  0.00    -0.193 C  
HETATM    6  C   UNL     1      -9.568  10.653  68.813  1.00  0.00    -0.190 C  
HETATM    7  C   UNL     1     -10.612   9.552  68.772  1.00  0.00    -0.240 C  
HETATM    8  C   UNL     1      -7.983   8.654  67.079  1.00  0.00    -0.096 C  
HETATM    9  C   UNL     1      -9.230   9.532  66.713  1.00  0.00    -0.184 C  
HETATM   10  C   UNL     1     -10.473   8.806  67.400  1.00  0.00    -0.349 C  
HETATM   11  C   UNL     1      -9.124   9.668  65.175  1.00  0.00    -0.279 C  
HETATM   12  C   UNL     1     -10.330   7.295  67.667  1.00  0.00    -0.290 C  
HETATM   13  C   UNL     1      -8.114   7.216  66.491  1.00  0.00    -0.114 C  
HETATM   14  C   UNL     1     -10.840   6.704  68.772  1.00  0.00    -0.321 C  
ENDROOT
BRANCH   3  15
HETATM   15  C   UNL     1     -11.613  14.321  67.234  1.00  0.00    -0.401 C  
BRANCH  15  16
HETATM   16  C   UNL     1     -11.175  15.768  67.496  1.00  0.00    -0.218 C  
HETATM   17  O   UNL     1      -9.884  17.682  66.848  1.00  0.00    -0.281 OA 
HETATM   18  C   UNL     1     -10.810  16.434  65.061  1.00  0.00    -0.289 C  
HETATM   19  C   UNL     1      -8.886  15.552  66.420  1.00  0.00    -0.359 C  
HETATM   20  C   UNL     1     -10.193  16.341  66.457  1.00  0.00    -0.300 C  
HETATM   21  H   UNL     1      -9.277  18.035  66.207  1.00  0.00     0.000 HD 
ENDBRANCH  15  16
ENDBRANCH   3  15
BRANCH  14  22
HETATM   22  C   UNL     1     -10.342   5.505  69.428  1.00  0.00    -0.348 C  
HETATM   23  C   UNL     1      -9.348   4.265  71.365  1.00  0.00    -0.210 C  
HETATM   24  C   UNL     1      -8.388   4.867  72.412  1.00  0.00    -0.120 C  
HETATM   25  C   UNL     1     -10.260   5.325  70.766  1.00  0.00    -0.317 C  
HETATM   26  O   UNL     1      -7.398   5.694  71.795  1.00  0.00    -0.087 OA 
HETATM   27  C   UNL     1      -9.136   5.670  73.474  1.00  0.00    -0.131 C  
HETATM   28  H   UNL     1      -6.807   6.064  72.440  1.00  0.00     0.000 HD 
HETATM   29  C   UNL     1     -10.038   6.736  72.847  1.00  0.00    -0.181 C  
HETATM   30  C   UNL     1     -10.939   6.141  71.769  1.00  0.00    -0.315 C  
HETATM   31  O   UNL     1     -10.806   7.352  73.882  1.00  0.00    -0.540 OA 
HETATM   32  C   UNL     1     -12.284   6.276  71.760  1.00  0.00    -0.218 C  
HETATM   33  H   UNL     1     -11.366   8.013  73.493  1.00  0.00     0.000 HD 
ENDBRANCH  14  22
TORSDOF 3
ENDMDL
MODEL       42
REMARK 921   NORMALIZED FREE ENERGY PREDICTED BY IDOCK:   -6.18 KCAL/MOL
REMARK 922        TOTAL FREE ENERGY PREDICTED BY IDOCK:   -8.23 KCAL/MOL
REMARK 923 INTER-LIGAND FREE ENERGY PREDICTED BY IDOCK:   -6.47 KCAL/MOL
REMARK 924 INTRA-LIGAND FREE ENERGY PREDICTED BY IDOCK:   -1.75 KCAL/MOL
REMARK 927      BINDING AFFINITY PREDICTED BY RF-SCORE:    0.00 PKD
ROOT
HETATM    1  C   UNL     1     -11.727  14.709  68.098  1.00  0.00    -0.360 C  
HETATM    2  C   UNL     1     -10.665  14.087  67.178  1.00  0.00    -0.283 C  
HETATM    3  C   UNL     1     -10.634  14.897  65.842  1.00  0.00    -0.334 C  
HETATM    4  C   UNL     1     -10.777  12.508  66.886  1.00  0.00    -0.268 C  
HETATM    5  C   UNL     1      -9.503   9.558  69.982  1.00  0.00    -0.265 C  
HETATM    6  C   UNL     1      -9.520  12.085  66.129  1.00  0.00    -0.241 C  
HETATM    7  C   UNL     1      -8.467  11.973  67.216  1.00  0.00    -0.175 C  
HETATM    8  C   UNL     1     -10.956   9.981  67.870  1.00  0.00    -0.311 C  
HETATM    9  C   UNL     1     -10.727  11.512  68.129  1.00  0.00    -0.242 C  
HETATM   10  C   UNL     1      -9.198  11.642  68.564  1.00  0.00    -0.163 C  
HETATM   11  C   UNL     1     -11.875  11.879  69.098  1.00  0.00    -0.371 C  
HETATM   12  C   UNL     1      -8.548  10.391  69.187  1.00  0.00    -0.169 C  
HETATM   13  C   UNL     1     -10.730   9.150  69.169  1.00  0.00    -0.190 C  
HETATM   14  C   UNL     1      -7.260  10.050  68.952  1.00  0.00    -0.077 C  
ENDROOT
BRANCH   3  15
HETATM   15  C   UNL     1     -10.631  16.429  65.962  1.00  0.00    -0.275 C  
BRANCH  15  16
HETATM   16  C   UNL     1      -9.317  16.998  66.513  1.00  0.00    -0.291 C  
HETATM   17  O   UNL     1      -8.179  18.568  67.924  1.00  0.00    -0.252 OA 
HETATM   18  C   UNL     1     -10.212  17.715  68.792  1.00  0.00    -0.373 C  
HETATM   19  C   UNL     1     -10.183  19.355  66.885  1.00  0.00    -0.514 C  
HETATM   20  C   UNL     1      -9.487  18.153  67.519  1.00  0.00    -0.262 C  
HETATM   21  H   UNL     1      -8.284  19.280  68.544  1.00  0.00     0.000 HD 
ENDBRANCH  15  16
ENDBRANCH   3  15
BRANCH  14  22
HETATM   22  C   UNL     1      -6.693   8.711  68.976  1.00  0.00    -0.052 C  
HETATM   23  C   UNL     1      -6.673   6.280  68.371  1.00  0.00    -0.068 C  
HETATM   24  C   UNL     1      -7.924   5.415  68.110  1.00  0.00    -0.095 C  
HETATM   25  C   UNL     1      -6.931   7.746  68.060  1.00  0.00    -0.080 C  
HETATM   26  O   UNL     1      -8.947   5.676  69.076  1.00  0.00    -0.111 OA 
HETATM   27  C   UNL     1      -8.482   5.630  66.705  1.00  0.00    -0.113 C  
HETATM   28  H   UNL     1      -9.717   5.143  68.916  1.00  0.00     0.000 HD 
HETATM   29  C   UNL     1      -8.741   7.111  66.419  1.00  0.00    -0.139 C  
HETATM   30  C   UNL     1      -7.518   7.965  66.740  1.00  0.00    -0.090 C  
HETATM   31  O   UNL     1      -9.127   7.252  65.051  1.00  0.00    -0.231 OA 
HETATM   32  C   UNL     1      -6.947   8.815  65.858  1.00  0.00    -0.076 C  
HETATM   33  H   UNL     1      -9.288   8.171  64.873  1.00  0.00     0.000 HD 
ENDBRANCH  14  22
TORSDOF 3
ENDMDL
MODEL       43
REMARK 921   NORMALIZED FREE ENERGY PREDICTED BY IDOCK:   -6.18 KCAL/MOL
REMARK 922        TOTAL FREE ENERGY PREDICTED BY IDOCK:   -8.23 KCAL/MOL
REMARK 923 INTER-LIGAND FREE ENERGY PREDICTED BY IDOCK:   -7.53 KCAL/MOL
REMARK 924 INTRA-LIGAND FREE ENERGY PREDICTED BY IDOCK:   -0.70 KCAL/MOL
REMARK 927      BINDING AFFINITY PREDICTED BY RF-SCORE:    0.00 PKD
ROOT
HETATM    1  C   UNL     1     -10.236  11.928  64.820  1.00  0.00    -0.314 C  
HETATM    2  C   UNL     1     -10.081  11.703  66.332  1.00  0.00    -0.246 C  
HETATM    3  C   UNL     1      -9.824  13.085  67.013  1.00  0.00    -0.238 C  
HETATM    4  C   UNL     1      -8.990  10.620  66.808  1.00  0.00    -0.149 C  
HETATM    5  C   UNL     1      -9.863   6.258  66.473  1.00  0.00    -0.176 C  
HETATM    6  C   UNL     1      -9.156  10.422  68.312  1.00  0.00    -0.145 C  
HETATM    7  C   UNL     1     -10.356   9.500  68.422  1.00  0.00    -0.237 C  
HETATM    8  C   UNL     1      -8.025   8.085  66.647  1.00  0.00    -0.102 C  
HETATM    9  C   UNL     1      -9.147   9.121  66.290  1.00  0.00    -0.222 C  
HETATM   10  C   UNL     1     -10.433   8.648  67.107  1.00  0.00    -0.360 C  
HETATM   11  C   UNL     1      -9.134   9.133  64.743  1.00  0.00    -0.157 C  
HETATM   12  C   UNL     1     -10.503   7.156  67.484  1.00  0.00    -0.331 C  
HETATM   13  C   UNL     1      -8.416   6.649  66.183  1.00  0.00    -0.135 C  
HETATM   14  C   UNL     1     -11.015   6.729  68.661  1.00  0.00    -0.261 C  
ENDROOT
BRANCH   3  15
HETATM   15  C   UNL     1     -10.728  14.250  66.577  1.00  0.00    -0.297 C  
BRANCH  15  16
HETATM   16  C   UNL     1     -11.817  14.596  67.601  1.00  0.00    -0.366 C  
HETATM   17  O   UNL     1     -12.535  15.879  69.495  1.00  0.00    -0.465 OA 
HETATM   18  C   UNL     1     -11.156  17.034  67.954  1.00  0.00    -0.125 C  
HETATM   19  C   UNL     1     -10.228  15.254  69.468  1.00  0.00    -0.265 C  
HETATM   20  C   UNL     1     -11.422  15.683  68.619  1.00  0.00    -0.375 C  
HETATM   21  H   UNL     1     -12.292  16.549  70.123  1.00  0.00     0.000 HD 
ENDBRANCH  15  16
ENDBRANCH   3  15
BRANCH  14  22
HETATM   22  C   UNL     1     -10.660   5.514  69.378  1.00  0.00    -0.349 C  
HETATM   23  C   UNL     1      -9.851   4.262  71.391  1.00  0.00    -0.260 C  
HETATM   24  C   UNL     1      -8.865   4.808  72.445  1.00  0.00    -0.119 C  
HETATM   25  C   UNL     1     -10.633   5.382  70.723  1.00  0.00    -0.293 C  
HETATM   26  O   UNL     1      -7.779   5.506  71.828  1.00  0.00    -0.102 OA 
HETATM   27  C   UNL     1      -9.556   5.725  73.451  1.00  0.00    -0.143 C  
HETATM   28  H   UNL     1      -7.171   5.842  72.477  1.00  0.00     0.000 HD 
HETATM   29  C   UNL     1     -10.329   6.848  72.755  1.00  0.00    -0.213 C  
HETATM   30  C   UNL     1     -11.254   6.303  71.672  1.00  0.00    -0.337 C  
HETATM   31  O   UNL     1     -11.059   7.580  73.741  1.00  0.00    -0.522 OA 
HETATM   32  C   UNL     1     -12.578   6.570  71.615  1.00  0.00    -0.220 C  
HETATM   33  H   UNL     1     -11.539   8.277  73.309  1.00  0.00     0.000 HD 
ENDBRANCH  14  22
TORSDOF 3
ENDMDL
MODEL       44
REMARK 921   NORMALIZED FREE ENERGY PREDICTED BY IDOCK:   -6.16 KCAL/MOL
REMARK 922        TOTAL FREE ENERGY PREDICTED BY IDOCK:   -8.20 KCAL/MOL
REMARK 923 INTER-LIGAND FREE ENERGY PREDICTED BY IDOCK:   -7.44 KCAL/MOL
REMARK 924 INTRA-LIGAND FREE ENERGY PREDICTED BY IDOCK:   -0.76 KCAL/MOL
REMARK 927      BINDING AFFINITY PREDICTED BY RF-SCORE:    0.00 PKD
ROOT
HETATM    1  C   UNL     1     -11.979  14.664  70.921  1.00  0.00    -0.388 C  
HETATM    2  C   UNL     1     -11.647  13.842  69.668  1.00  0.00    -0.347 C  
HETATM    3  C   UNL     1     -11.747  14.780  68.422  1.00  0.00    -0.343 C  
HETATM    4  C   UNL     1     -12.483  12.488  69.431  1.00  0.00     0.241 C  
HETATM    5  C   UNL     1     -11.547   8.829  71.808  1.00  0.00    -0.416 C  
HETATM    6  C   UNL     1     -11.849  11.748  68.256  1.00  0.00    -0.340 C  
HETATM    7  C   UNL     1     -10.631  11.080  68.867  1.00  0.00    -0.239 C  
HETATM    8  C   UNL     1     -13.327  10.092  70.398  1.00  0.00     0.138 C  
HETATM    9  C   UNL     1     -12.422  11.364  70.559  1.00  0.00    -0.381 C  
HETATM   10  C   UNL     1     -10.925  10.840  70.389  1.00  0.00    -0.058 C  
HETATM   11  C   UNL     1     -12.915  11.978  71.891  1.00  0.00    -0.428 C  
HETATM   12  C   UNL     1     -10.670   9.356  70.717  1.00  0.00    -0.373 C  
HETATM   13  C   UNL     1     -13.030   9.044  71.514  1.00  0.00    -0.391 C  
HETATM   14  C   UNL     1      -9.798   8.598  70.013  1.00  0.00    -0.185 C  
ENDROOT
BRANCH   3  15
HETATM   15  C   UNL     1     -11.080  16.159  68.539  1.00  0.00    -0.357 C  
BRANCH  15  16
HETATM   16  C   UNL     1     -10.522  16.685  67.210  1.00  0.00    -0.313 C  
HETATM   17  O   UNL     1      -9.030  18.148  66.033  1.00  0.00    -0.503 OA 
HETATM   18  C   UNL     1      -8.177  17.239  68.048  1.00  0.00    -0.223 C  
HETATM   19  C   UNL     1      -9.962  19.011  68.059  1.00  0.00    -0.436 C  
HETATM   20  C   UNL     1      -9.433  17.766  67.351  1.00  0.00    -0.254 C  
HETATM   21  H   UNL     1      -8.358  18.815  66.121  1.00  0.00     0.000 HD 
ENDBRANCH  15  16
ENDBRANCH   3  15
BRANCH  14  22
HETATM   22  C   UNL     1      -9.854   7.158  69.817  1.00  0.00    -0.173 C  
HETATM   23  C   UNL     1      -9.713   5.086  68.417  1.00  0.00    -0.209 C  
HETATM   24  C   UNL     1     -10.065   4.996  66.917  1.00  0.00    -0.228 C  
HETATM   25  C   UNL     1      -9.262   6.486  68.804  1.00  0.00    -0.131 C  
HETATM   26  O   UNL     1     -11.268   5.712  66.621  1.00  0.00    -0.555 OA 
HETATM   27  C   UNL     1      -8.931   5.516  66.035  1.00  0.00    -0.154 C  
HETATM   28  H   UNL     1     -11.484   5.656  65.698  1.00  0.00     0.000 HD 
HETATM   29  C   UNL     1      -8.502   6.928  66.438  1.00  0.00    -0.130 C  
HETATM   30  C   UNL     1      -8.218   7.021  67.934  1.00  0.00    -0.115 C  
HETATM   31  O   UNL     1      -7.356   7.295  65.669  1.00  0.00    -0.071 OA 
HETATM   32  C   UNL     1      -7.058   7.486  68.448  1.00  0.00    -0.081 C  
HETATM   33  H   UNL     1      -7.089   8.172  65.919  1.00  0.00     0.000 HD 
ENDBRANCH  14  22
TORSDOF 3
ENDMDL
MODEL       45
REMARK 921   NORMALIZED FREE ENERGY PREDICTED BY IDOCK:   -6.13 KCAL/MOL
REMARK 922        TOTAL FREE ENERGY PREDICTED BY IDOCK:   -8.16 KCAL/MOL
REMARK 923 INTER-LIGAND FREE ENERGY PREDICTED BY IDOCK:   -6.40 KCAL/MOL
REMARK 924 INTRA-LIGAND FREE ENERGY PREDICTED BY IDOCK:   -1.77 KCAL/MOL
REMARK 927      BINDING AFFINITY PREDICTED BY RF-SCORE:    0.00 PKD
ROOT
HETATM    1  C   UNL     1     -11.013  12.281  68.993  1.00  0.00    -0.250 C  
HETATM    2  C   UNL     1     -11.382  10.934  69.632  1.00  0.00    -0.362 C  
HETATM    3  C   UNL     1     -12.036  11.210  71.023  1.00  0.00    -0.380 C  
HETATM    4  C   UNL     1     -10.215   9.833  69.758  1.00  0.00    -0.271 C  
HETATM    5  C   UNL     1      -8.911   7.523  66.170  1.00  0.00    -0.188 C  
HETATM    6  C   UNL     1     -10.854   8.528  70.225  1.00  0.00    -0.249 C  
HETATM    7  C   UNL     1     -11.475   7.960  68.962  1.00  0.00     0.735 C  
HETATM    8  C   UNL     1      -8.274   8.371  68.542  1.00  0.00    -0.124 C  
HETATM    9  C   UNL     1      -9.493   9.351  68.422  1.00  0.00    -0.148 C  
HETATM   10  C   UNL     1     -10.654   8.497  67.737  1.00  0.00    -0.242 C  
HETATM   11  C   UNL     1      -8.881  10.587  67.721  1.00  0.00    -0.125 C  
HETATM   12  C   UNL     1     -10.214   7.302  66.870  1.00  0.00    -0.340 C  
HETATM   13  C   UNL     1      -7.790   7.898  67.137  1.00  0.00    -0.109 C  
HETATM   14  C   UNL     1     -10.908   6.141  66.832  1.00  0.00    -0.411 C  
ENDROOT
BRANCH   3  15
HETATM   15  C   UNL     1     -13.102  12.316  71.079  1.00  0.00    -0.019 C  
BRANCH  15  16
HETATM   16  C   UNL     1     -13.187  13.017  72.441  1.00  0.00    -0.487 C  
HETATM   17  O   UNL     1     -13.176  15.044  73.723  1.00  0.00    -0.582 OA 
HETATM   18  C   UNL     1     -14.251  15.184  71.617  1.00  0.00    -0.664 C  
HETATM   19  C   UNL     1     -11.749  15.010  71.805  1.00  0.00    -0.452 C  
HETATM   20  C   UNL     1     -13.087  14.553  72.382  1.00  0.00    -0.402 C  
HETATM   21  H   UNL     1     -13.114  15.991  73.686  1.00  0.00     0.000 HD 
ENDBRANCH  15  16
ENDBRANCH   3  15
BRANCH  14  22
HETATM   22  C   UNL     1     -10.377   4.816  66.555  1.00  0.00    -0.284 C  
HETATM   23  C   UNL     1      -8.619   3.036  66.700  1.00  0.00    -0.119 C  
HETATM   24  C   UNL     1      -7.101   3.288  66.808  1.00  0.00    -0.055 C  
HETATM   25  C   UNL     1      -9.422   4.191  67.279  1.00  0.00    -0.220 C  
HETATM   26  O   UNL     1      -6.681   4.326  65.917  1.00  0.00    -0.050 OA 
HETATM   27  C   UNL     1      -6.682   3.639  68.235  1.00  0.00    -0.046 C  
HETATM   28  H   UNL     1      -5.746   4.480  65.984  1.00  0.00     0.000 HD 
HETATM   29  C   UNL     1      -7.497   4.809  68.792  1.00  0.00    -0.065 C  
HETATM   30  C   UNL     1      -8.996   4.577  68.622  1.00  0.00    -0.147 C  
HETATM   31  O   UNL     1      -7.153   4.992  70.166  1.00  0.00    -0.051 OA 
HETATM   32  C   UNL     1      -9.882   4.640  69.640  1.00  0.00    -0.293 C  
HETATM   33  H   UNL     1      -7.659   5.718  70.512  1.00  0.00     0.000 HD 
ENDBRANCH  14  22
TORSDOF 3
ENDMDL
MODEL       46
REMARK 921   NORMALIZED FREE ENERGY PREDICTED BY IDOCK:   -6.07 KCAL/MOL
REMARK 922        TOTAL FREE ENERGY PREDICTED BY IDOCK:   -8.10 KCAL/MOL
REMARK 923 INTER-LIGAND FREE ENERGY PREDICTED BY IDOCK:   -7.04 KCAL/MOL
REMARK 924 INTRA-LIGAND FREE ENERGY PREDICTED BY IDOCK:   -1.06 KCAL/MOL
REMARK 927      BINDING AFFINITY PREDICTED BY RF-SCORE:    0.00 PKD
ROOT
HETATM    1  C   UNL     1      -9.494  12.602  68.393  1.00  0.00    -0.163 C  
HETATM    2  C   UNL     1     -10.216  11.445  67.687  1.00  0.00    -0.204 C  
HETATM    3  C   UNL     1     -11.707  11.857  67.461  1.00  0.00    -0.335 C  
HETATM    4  C   UNL     1     -10.124   9.991  68.371  1.00  0.00    -0.186 C  
HETATM    5  C   UNL     1      -6.385   7.581  68.019  1.00  0.00    -0.049 C  
HETATM    6  C   UNL     1     -10.731   8.981  67.402  1.00  0.00    -0.231 C  
HETATM    7  C   UNL     1      -9.628   8.750  66.385  1.00  0.00    -0.316 C  
HETATM    8  C   UNL     1      -8.566   8.000  69.368  1.00  0.00    -0.136 C  
HETATM    9  C   UNL     1      -8.677   9.360  68.593  1.00  0.00    -0.131 C  
HETATM   10  C   UNL     1      -8.255   9.026  67.092  1.00  0.00    -0.110 C  
HETATM   11  C   UNL     1      -7.848  10.330  69.468  1.00  0.00    -0.172 C  
HETATM   12  C   UNL     1      -7.337   7.805  66.887  1.00  0.00    -0.090 C  
HETATM   13  C   UNL     1      -7.101   7.467  69.363  1.00  0.00    -0.073 C  
HETATM   14  C   UNL     1      -7.458   6.978  65.823  1.00  0.00    -0.081 C  
ENDROOT
BRANCH   3  15
HETATM   15  C   UNL     1     -11.958  13.268  66.906  1.00  0.00    -0.430 C  
BRANCH  15  16
HETATM   16  C   UNL     1     -12.583  13.273  65.505  1.00  0.00    -0.505 C  
HETATM   17  O   UNL     1     -12.404  13.777  63.168  1.00  0.00    -1.099 OA 
HETATM   18  C   UNL     1     -10.416  12.993  64.190  1.00  0.00    -0.395 C  
HETATM   19  C   UNL     1     -11.310  15.298  64.653  1.00  0.00    -0.364 C  
HETATM   20  C   UNL     1     -11.674  13.837  64.396  1.00  0.00    -0.408 C  
HETATM   21  H   UNL     1     -11.843  14.125  62.484  1.00  0.00     0.000 HD 
ENDBRANCH  15  16
ENDBRANCH   3  15
BRANCH  14  22
HETATM   22  C   UNL     1      -7.101   5.569  65.769  1.00  0.00    -0.067 C  
HETATM   23  C   UNL     1      -7.594   3.154  65.321  1.00  0.00    -0.080 C  
HETATM   24  C   UNL     1      -8.977   2.484  65.460  1.00  0.00    -0.133 C  
HETATM   25  C   UNL     1      -7.718   4.637  65.008  1.00  0.00    -0.078 C  
HETATM   26  O   UNL     1      -9.644   2.911  66.652  1.00  0.00    -0.398 OA 
HETATM   27  C   UNL     1      -9.867   2.758  64.250  1.00  0.00    -0.118 C  
HETATM   28  H   UNL     1     -10.495   2.498  66.737  1.00  0.00     0.000 HD 
HETATM   29  C   UNL     1      -9.984   4.257  63.962  1.00  0.00    -0.029 C  
HETATM   30  C   UNL     1      -8.613   4.921  63.888  1.00  0.00    -0.131 C  
HETATM   31  O   UNL     1     -10.711   4.433  62.745  1.00  0.00    -0.425 OA 
HETATM   32  C   UNL     1      -8.195   5.661  62.837  1.00  0.00    -0.098 C  
HETATM   33  H   UNL     1     -10.784   5.364  62.566  1.00  0.00     0.000 HD 
ENDBRANCH  14  22
TORSDOF 3
ENDMDL
MODEL       47
REMARK 921   NORMALIZED FREE ENERGY PREDICTED BY IDOCK:   -6.03 KCAL/MOL
REMARK 922        TOTAL FREE ENERGY PREDICTED BY IDOCK:   -8.05 KCAL/MOL
REMARK 923 INTER-LIGAND FREE ENERGY PREDICTED BY IDOCK:   -7.29 KCAL/MOL
REMARK 924 INTRA-LIGAND FREE ENERGY PREDICTED BY IDOCK:   -0.76 KCAL/MOL
REMARK 927      BINDING AFFINITY PREDICTED BY RF-SCORE:    0.00 PKD
ROOT
HETATM    1  C   UNL     1     -10.618  10.615  65.160  1.00  0.00    -0.190 C  
HETATM    2  C   UNL     1      -9.484  10.940  66.143  1.00  0.00    -0.230 C  
HETATM    3  C   UNL     1      -8.703   9.622  66.450  1.00  0.00    -0.148 C  
HETATM    4  C   UNL     1      -9.884  11.697  67.506  1.00  0.00    -0.199 C  
HETATM    5  C   UNL     1     -10.800  16.064  67.461  1.00  0.00    -0.292 C  
HETATM    6  C   UNL     1      -8.592  12.091  68.216  1.00  0.00    -0.174 C  
HETATM    7  C   UNL     1      -8.136  13.332  67.471  1.00  0.00    -0.187 C  
HETATM    8  C   UNL     1     -11.110  13.804  68.707  1.00  0.00    -0.295 C  
HETATM    9  C   UNL     1     -10.606  13.113  67.392  1.00  0.00    -0.247 C  
HETATM   10  C   UNL     1      -9.407  14.026  66.867  1.00  0.00    -0.266 C  
HETATM   11  C   UNL     1     -11.904  12.937  66.569  1.00  0.00    -0.473 C  
HETATM   12  C   UNL     1      -9.422  15.504  67.305  1.00  0.00    -0.218 C  
HETATM   13  C   UNL     1     -11.656  15.236  68.417  1.00  0.00    -0.365 C  
HETATM   14  C   UNL     1      -8.289  16.183  67.600  1.00  0.00    -0.163 C  
ENDROOT
BRANCH   3  15
HETATM   15  C   UNL     1      -8.341   8.737  65.248  1.00  0.00    -0.168 C  
BRANCH  15  16
HETATM   16  C   UNL     1      -7.362   7.606  65.591  1.00  0.00    -0.073 C  
HETATM   17  O   UNL     1      -6.835   5.267  65.605  1.00  0.00    -0.058 OA 
HETATM   18  C   UNL     1      -8.031   6.024  63.706  1.00  0.00    -0.112 C  
HETATM   19  C   UNL     1      -9.133   5.824  65.958  1.00  0.00    -0.163 C  
HETATM   20  C   UNL     1      -7.851   6.194  65.214  1.00  0.00    -0.105 C  
HETATM   21  H   UNL     1      -7.136   4.396  65.373  1.00  0.00     0.000 HD 
ENDBRANCH  15  16
ENDBRANCH   3  15
BRANCH  14  22
HETATM   22  C   UNL     1      -8.159  17.307  68.514  1.00  0.00    -0.262 C  
HETATM   23  C   UNL     1      -7.477  19.646  69.099  1.00  0.00    -0.310 C  
HETATM   24  C   UNL     1      -6.297  20.415  68.469  1.00  0.00    -0.314 C  
HETATM   25  C   UNL     1      -8.038  18.602  68.145  1.00  0.00    -0.318 C  
HETATM   26  O   UNL     1      -5.142  19.581  68.340  1.00  0.00    -0.189 OA 
HETATM   27  C   UNL     1      -6.661  20.998  67.105  1.00  0.00    -0.424 C  
HETATM   28  H   UNL     1      -4.415  20.055  67.953  1.00  0.00     0.000 HD 
HETATM   29  C   UNL     1      -7.214  19.928  66.161  1.00  0.00    -0.289 C  
HETATM   30  C   UNL     1      -8.338  19.131  66.817  1.00  0.00    -0.305 C  
HETATM   31  O   UNL     1      -7.660  20.562  64.961  1.00  0.00    -0.385 OA 
HETATM   32  C   UNL     1      -9.563  18.975  66.267  1.00  0.00    -0.367 C  
HETATM   33  H   UNL     1      -8.003  19.898  64.375  1.00  0.00     0.000 HD 
ENDBRANCH  14  22
TORSDOF 3
ENDMDL
MODEL       48
REMARK 921   NORMALIZED FREE ENERGY PREDICTED BY IDOCK:   -6.02 KCAL/MOL
REMARK 922        TOTAL FREE ENERGY PREDICTED BY IDOCK:   -8.03 KCAL/MOL
REMARK 923 INTER-LIGAND FREE ENERGY PREDICTED BY IDOCK:   -6.27 KCAL/MOL
REMARK 924 INTRA-LIGAND FREE ENERGY PREDICTED BY IDOCK:   -1.76 KCAL/MOL
REMARK 927      BINDING AFFINITY PREDICTED BY RF-SCORE:    0.00 PKD
ROOT
HETATM    1  C   UNL     1     -12.440   8.103  70.762  1.00  0.00     0.111 C  
HETATM    2  C   UNL     1     -11.063   8.465  70.189  1.00  0.00    -0.183 C  
HETATM    3  C   UNL     1     -10.006   7.477  70.778  1.00  0.00    -0.182 C  
HETATM    4  C   UNL     1     -10.573   9.990  70.355  1.00  0.00    -0.343 C  
HETATM    5  C   UNL     1     -12.259  13.185  67.736  1.00  0.00    -0.124 C  
HETATM    6  C   UNL     1      -9.292  10.159  69.542  1.00  0.00    -0.230 C  
HETATM    7  C   UNL     1      -9.788  10.304  68.115  1.00  0.00    -0.166 C  
HETATM    8  C   UNL     1     -11.078  12.634  69.984  1.00  0.00     0.414 C  
HETATM    9  C   UNL     1     -11.480  11.140  69.725  1.00  0.00    -0.388 C  
HETATM   10  C   UNL     1     -11.237  10.902  68.166  1.00  0.00    -0.363 C  
HETATM   11  C   UNL     1     -12.894  11.044  70.345  1.00  0.00    -0.221 C  
HETATM   12  C   UNL     1     -11.294  12.147  67.260  1.00  0.00    -0.398 C  
HETATM   13  C   UNL     1     -11.989  13.610  69.178  1.00  0.00    -0.394 C  
HETATM   14  C   UNL     1     -10.476  12.305  66.194  1.00  0.00    -0.270 C  
ENDROOT
BRANCH   3  15
HETATM   15  C   UNL     1     -10.381   5.987  70.783  1.00  0.00    -0.280 C  
BRANCH  15  16
HETATM   16  C   UNL     1     -10.430   5.362  69.383  1.00  0.00    -0.331 C  
HETATM   17  O   UNL     1      -9.500   3.863  67.759  1.00  0.00    -0.174 OA 
HETATM   18  C   UNL     1      -9.402   3.111  70.003  1.00  0.00    -0.226 C  
HETATM   19  C   UNL     1      -7.929   4.975  69.177  1.00  0.00    -0.080 C  
HETATM   20  C   UNL     1      -9.315   4.338  69.095  1.00  0.00    -0.161 C  
HETATM   21  H   UNL     1      -8.812   3.231  67.581  1.00  0.00     0.000 HD 
ENDBRANCH  15  16
ENDBRANCH   3  15
BRANCH  14  22
HETATM   22  C   UNL     1     -10.021  13.562  65.622  1.00  0.00    -0.252 C  
HETATM   23  C   UNL     1      -9.181  15.917  65.781  1.00  0.00    -0.241 C  
HETATM   24  C   UNL     1      -9.507  16.905  66.920  1.00  0.00    -0.251 C  
HETATM   25  C   UNL     1      -9.249  14.473  66.255  1.00  0.00    -0.231 C  
HETATM   26  O   UNL     1     -10.891  16.849  67.277  1.00  0.00    -0.257 OA 
HETATM   27  C   UNL     1      -8.649  16.651  68.158  1.00  0.00    -0.200 C  
HETATM   28  H   UNL     1     -11.091  17.459  67.978  1.00  0.00     0.000 HD 
HETATM   29  C   UNL     1      -8.741  15.195  68.620  1.00  0.00    -0.174 C  
HETATM   30  C   UNL     1      -8.480  14.225  67.472  1.00  0.00    -0.195 C  
HETATM   31  O   UNL     1      -7.815  14.995  69.689  1.00  0.00    -0.316 OA 
HETATM   32  C   UNL     1      -7.551  13.245  67.518  1.00  0.00    -0.169 C  
HETATM   33  H   UNL     1      -7.872  14.091  69.976  1.00  0.00     0.000 HD 
ENDBRANCH  14  22
TORSDOF 3
ENDMDL
MODEL       49
REMARK 921   NORMALIZED FREE ENERGY PREDICTED BY IDOCK:   -6.01 KCAL/MOL
REMARK 922        TOTAL FREE ENERGY PREDICTED BY IDOCK:   -8.03 KCAL/MOL
REMARK 923 INTER-LIGAND FREE ENERGY PREDICTED BY IDOCK:   -7.09 KCAL/MOL
REMARK 924 INTRA-LIGAND FREE ENERGY PREDICTED BY IDOCK:   -0.93 KCAL/MOL
REMARK 927      BINDING AFFINITY PREDICTED BY RF-SCORE:    0.00 PKD
ROOT
HETATM    1  C   UNL     1     -10.676   9.502  67.247  1.00  0.00    -0.269 C  
HETATM    2  C   UNL     1     -10.512  10.707  68.185  1.00  0.00    -0.215 C  
HETATM    3  C   UNL     1     -10.590  10.200  69.660  1.00  0.00    -0.286 C  
HETATM    4  C   UNL     1     -11.502  11.957  67.959  1.00  0.00    -0.389 C  
HETATM    5  C   UNL     1     -10.814  14.779  64.572  1.00  0.00    -0.181 C  
HETATM    6  C   UNL     1     -11.026  13.096  68.855  1.00  0.00    -0.270 C  
HETATM    7  C   UNL     1      -9.850  13.683  68.096  1.00  0.00    -0.236 C  
HETATM    8  C   UNL     1     -12.534  13.811  66.262  1.00  0.00    -0.441 C  
HETATM    9  C   UNL     1     -11.490  12.672  66.535  1.00  0.00    -0.409 C  
HETATM   10  C   UNL     1     -10.071  13.400  66.569  1.00  0.00    -0.280 C  
HETATM   11  C   UNL     1     -11.830  11.619  65.454  1.00  0.00     0.126 C  
HETATM   12  C   UNL     1      -9.956  14.728  65.796  1.00  0.00    -0.375 C  
HETATM   13  C   UNL     1     -12.281  14.488  64.880  1.00  0.00    -0.409 C  
HETATM   14  C   UNL     1      -9.216  15.767  66.246  1.00  0.00    -0.368 C  
ENDROOT
BRANCH   3  15
HETATM   15  C   UNL     1      -9.774   8.943  70.003  1.00  0.00    -0.187 C  
BRANCH  15  16
HETATM   16  C   UNL     1      -8.271   9.211  70.151  1.00  0.00    -0.161 C  
HETATM   17  O   UNL     1      -6.005   8.515  69.785  1.00  0.00    -0.028 OA 
HETATM   18  C   UNL     1      -7.521   7.984  68.044  1.00  0.00    -0.097 C  
HETATM   19  C   UNL     1      -7.574   6.771  70.247  1.00  0.00    -0.096 C  
HETATM   20  C   UNL     1      -7.360   8.118  69.559  1.00  0.00    -0.081 C  
HETATM   21  H   UNL     1      -5.444   7.841  69.420  1.00  0.00     0.000 HD 
ENDBRANCH  15  16
ENDBRANCH   3  15
BRANCH  14  22
HETATM   22  C   UNL     1      -9.437  17.179  65.975  1.00  0.00    -0.167 C  
HETATM   23  C   UNL     1      -9.126  19.620  66.441  1.00  0.00    -0.437 C  
HETATM   24  C   UNL     1      -8.881  20.240  67.833  1.00  0.00    -0.158 C  
HETATM   25  C   UNL     1      -8.626  18.186  66.370  1.00  0.00    -0.251 C  
HETATM   26  O   UNL     1      -9.736  19.654  68.820  1.00  0.00    -0.403 OA 
HETATM   27  C   UNL     1      -7.425  20.100  68.271  1.00  0.00    -0.230 C  
HETATM   28  H   UNL     1      -9.585  20.035  69.677  1.00  0.00     0.000 HD 
HETATM   29  C   UNL     1      -6.949  18.647  68.200  1.00  0.00    -0.243 C  
HETATM   30  C   UNL     1      -7.252  18.025  66.840  1.00  0.00    -0.225 C  
HETATM   31  O   UNL     1      -5.550  18.609  68.487  1.00  0.00    -0.188 OA 
HETATM   32  C   UNL     1      -6.319  17.430  66.065  1.00  0.00    -0.137 C  
HETATM   33  H   UNL     1      -5.255  17.708  68.443  1.00  0.00     0.000 HD 
ENDBRANCH  14  22
TORSDOF 3
ENDMDL
MODEL       50
REMARK 921   NORMALIZED FREE ENERGY PREDICTED BY IDOCK:   -5.98 KCAL/MOL
REMARK 922        TOTAL FREE ENERGY PREDICTED BY IDOCK:   -7.99 KCAL/MOL
REMARK 923 INTER-LIGAND FREE ENERGY PREDICTED BY IDOCK:   -6.42 KCAL/MOL
REMARK 924 INTRA-LIGAND FREE ENERGY PREDICTED BY IDOCK:   -1.57 KCAL/MOL
REMARK 927      BINDING AFFINITY PREDICTED BY RF-SCORE:    0.00 PKD
ROOT
HETATM    1  C   UNL     1      -9.287   5.536  68.606  1.00  0.00    -0.149 C  
HETATM    2  C   UNL     1      -9.793   6.807  69.303  1.00  0.00    -0.160 C  
HETATM    3  C   UNL     1     -10.698   6.385  70.504  1.00  0.00    -0.311 C  
HETATM    4  C   UNL     1     -10.535   7.903  68.387  1.00  0.00    -0.207 C  
HETATM    5  C   UNL     1      -8.159  10.577  65.719  1.00  0.00    -0.158 C  
HETATM    6  C   UNL     1     -10.762   9.148  69.242  1.00  0.00    -0.199 C  
HETATM    7  C   UNL     1      -9.407   9.832  69.246  1.00  0.00    -0.198 C  
HETATM    8  C   UNL     1     -10.478   9.503  66.191  1.00  0.00    -0.077 C  
HETATM    9  C   UNL     1      -9.728   8.526  67.162  1.00  0.00    -0.251 C  
HETATM   10  C   UNL     1      -8.659   9.430  67.928  1.00  0.00    -0.120 C  
HETATM   11  C   UNL     1      -9.288   7.373  66.228  1.00  0.00    -0.166 C  
HETATM   12  C   UNL     1      -8.196  10.711  67.208  1.00  0.00    -0.116 C  
HETATM   13  C   UNL     1      -9.500  10.120  65.146  1.00  0.00    -0.319 C  
HETATM   14  C   UNL     1      -7.939  11.862  67.872  1.00  0.00    -0.144 C  
ENDROOT
BRANCH   3  15
HETATM   15  C   UNL     1     -10.164   5.267  71.413  1.00  0.00    -0.279 C  
BRANCH  15  16
HETATM   16  C   UNL     1      -8.964   5.693  72.269  1.00  0.00    -0.141 C  
HETATM   17  O   UNL     1      -8.100   6.493  74.358  1.00  0.00    -0.114 OA 
HETATM   18  C   UNL     1      -9.914   4.979  74.526  1.00  0.00    -0.247 C  
HETATM   19  C   UNL     1     -10.243   7.339  73.719  1.00  0.00    -0.370 C  
HETATM   20  C   UNL     1      -9.318   6.123  73.705  1.00  0.00    -0.131 C  
HETATM   21  H   UNL     1      -8.318   6.758  75.244  1.00  0.00     0.000 HD 
ENDBRANCH  15  16
ENDBRANCH   3  15
BRANCH  14  22
HETATM   22  C   UNL     1      -8.050  13.215  67.348  1.00  0.00    -0.181 C  
HETATM   23  C   UNL     1      -9.262  15.065  66.173  1.00  0.00    -0.294 C  
HETATM   24  C   UNL     1     -10.317  14.876  65.062  1.00  0.00    -0.370 C  
HETATM   25  C   UNL     1      -9.210  13.864  67.105  1.00  0.00    -0.242 C  
HETATM   26  O   UNL     1      -9.910  13.877  64.123  1.00  0.00    -0.566 OA 
HETATM   27  C   UNL     1     -11.687  14.513  65.633  1.00  0.00    -0.335 C  
HETATM   28  H   UNL     1     -10.559  13.761  63.439  1.00  0.00     0.000 HD 
HETATM   29  C   UNL     1     -11.609  13.298  66.560  1.00  0.00    -0.350 C  
HETATM   30  C   UNL     1     -10.520  13.468  67.615  1.00  0.00    -0.239 C  
HETATM   31  O   UNL     1     -12.888  13.100  67.163  1.00  0.00     0.233 OA 
HETATM   32  C   UNL     1     -10.740  13.345  68.943  1.00  0.00    -0.219 C  
HETATM   33  H   UNL     1     -12.841  12.345  67.739  1.00  0.00     0.000 HD 
ENDBRANCH  14  22
TORSDOF 3
ENDMDL
MODEL       51
REMARK 921   NORMALIZED FREE ENERGY PREDICTED BY IDOCK:   -5.97 KCAL/MOL
REMARK 922        TOTAL FREE ENERGY PREDICTED BY IDOCK:   -7.97 KCAL/MOL
REMARK 923 INTER-LIGAND FREE ENERGY PREDICTED BY IDOCK:   -6.44 KCAL/MOL
REMARK 924 INTRA-LIGAND FREE ENERGY PREDICTED BY IDOCK:   -1.53 KCAL/MOL
REMARK 927      BINDING AFFINITY PREDICTED BY RF-SCORE:    0.00 PKD
ROOT
HETATM    1  C   UNL     1      -7.175  17.357  68.277  1.00  0.00    -0.214 C  
HETATM    2  C   UNL     1      -8.576  16.748  68.431  1.00  0.00    -0.235 C  
HETATM    3  C   UNL     1      -9.488  17.783  69.164  1.00  0.00    -0.001 C  
HETATM    4  C   UNL     1      -8.679  15.301  69.130  1.00  0.00    -0.238 C  
HETATM    5  C   UNL     1      -7.571  11.626  66.854  1.00  0.00    -0.138 C  
HETATM    6  C   UNL     1     -10.119  14.817  68.989  1.00  0.00    -0.232 C  
HETATM    7  C   UNL     1     -10.189  14.310  67.560  1.00  0.00    -0.240 C  
HETATM    8  C   UNL     1      -7.881  12.704  69.198  1.00  0.00     0.381 C  
HETATM    9  C   UNL     1      -7.889  14.089  68.461  1.00  0.00    -0.140 C  
HETATM   10  C   UNL     1      -8.748  13.857  67.137  1.00  0.00    -0.233 C  
HETATM   11  C   UNL     1      -6.388  14.459  68.394  1.00  0.00    -0.101 C  
HETATM   12  C   UNL     1      -8.817  12.414  66.601  1.00  0.00    -0.156 C  
HETATM   13  C   UNL     1      -7.187  11.609  68.332  1.00  0.00    -0.088 C  
HETATM   14  C   UNL     1      -9.937  11.902  66.041  1.00  0.00    -0.258 C  
ENDROOT
BRANCH   3  15
HETATM   15  C   UNL     1      -9.418  19.237  68.671  1.00  0.00    -0.463 C  
BRANCH  15  16
HETATM   16  C   UNL     1     -10.514  19.593  67.658  1.00  0.00    -0.579 C  
HETATM   17  O   UNL     1     -11.276  19.671  65.386  1.00  0.00    -0.332 OA 
HETATM   18  C   UNL     1      -9.969  17.778  65.950  1.00  0.00    -0.132 C  
HETATM   19  C   UNL     1      -8.941  20.062  65.721  1.00  0.00    -0.009 C  
HETATM   20  C   UNL     1     -10.163  19.276  66.192  1.00  0.00    -0.470 C  
HETATM   21  H   UNL     1     -11.060  19.476  64.482  1.00  0.00     0.000 HD 
ENDBRANCH  15  16
ENDBRANCH   3  15
BRANCH  14  22
HETATM   22  C   UNL     1     -10.339  10.504  66.016  1.00  0.00    -0.279 C  
HETATM   23  C   UNL     1     -10.603   8.234  67.042  1.00  0.00    -0.328 C  
HETATM   24  C   UNL     1      -9.684   7.633  68.127  1.00  0.00    -0.153 C  
HETATM   25  C   UNL     1     -10.622   9.754  67.104  1.00  0.00    -0.298 C  
HETATM   26  O   UNL     1      -8.306   7.889  67.841  1.00  0.00    -0.124 OA 
HETATM   27  C   UNL     1     -10.024   8.162  69.519  1.00  0.00    -0.187 C  
HETATM   28  H   UNL     1      -7.741   7.519  68.509  1.00  0.00     0.000 HD 
HETATM   29  C   UNL     1     -10.028   9.692  69.557  1.00  0.00    -0.209 C  
HETATM   30  C   UNL     1     -10.890  10.277  68.442  1.00  0.00    -0.288 C  
HETATM   31  O   UNL     1     -10.487  10.116  70.842  1.00  0.00    -0.343 OA 
HETATM   32  C   UNL     1     -11.890  11.160  68.654  1.00  0.00    -0.357 C  
HETATM   33  H   UNL     1     -10.489  11.066  70.866  1.00  0.00     0.000 HD 
ENDBRANCH  14  22
TORSDOF 3
ENDMDL
MODEL       52
REMARK 921   NORMALIZED FREE ENERGY PREDICTED BY IDOCK:   -5.96 KCAL/MOL
REMARK 922        TOTAL FREE ENERGY PREDICTED BY IDOCK:   -7.97 KCAL/MOL
REMARK 923 INTER-LIGAND FREE ENERGY PREDICTED BY IDOCK:   -6.03 KCAL/MOL
REMARK 924 INTRA-LIGAND FREE ENERGY PREDICTED BY IDOCK:   -1.94 KCAL/MOL
REMARK 927      BINDING AFFINITY PREDICTED BY RF-SCORE:    0.00 PKD
ROOT
HETATM    1  C   UNL     1      -9.759  12.507  66.063  1.00  0.00    -0.247 C  
HETATM    2  C   UNL     1      -9.166  12.066  67.409  1.00  0.00    -0.180 C  
HETATM    3  C   UNL     1      -8.200  13.185  67.914  1.00  0.00    -0.162 C  
HETATM    4  C   UNL     1      -8.448  10.626  67.462  1.00  0.00    -0.121 C  
HETATM    5  C   UNL     1     -10.900   6.900  67.572  1.00  0.00    -0.363 C  
HETATM    6  C   UNL     1      -8.124  10.321  68.921  1.00  0.00    -0.123 C  
HETATM    7  C   UNL     1      -9.452   9.859  69.495  1.00  0.00    -0.239 C  
HETATM    8  C   UNL     1      -8.593   7.952  67.002  1.00  0.00    -0.128 C  
HETATM    9  C   UNL     1      -9.312   9.345  67.072  1.00  0.00    -0.185 C  
HETATM   10  C   UNL     1     -10.297   9.248  68.323  1.00  0.00    -0.257 C  
HETATM   11  C   UNL     1      -9.850   9.534  65.634  1.00  0.00    -0.343 C  
HETATM   12  C   UNL     1     -10.763   7.837  68.730  1.00  0.00    -0.093 C  
HETATM   13  C   UNL     1      -9.616   6.802  66.750  1.00  0.00    -0.210 C  
HETATM   14  C   UNL     1     -10.937   7.475  70.022  1.00  0.00    -0.252 C  
ENDROOT
BRANCH   3  15
HETATM   15  C   UNL     1      -8.711  14.632  67.826  1.00  0.00    -0.172 C  
BRANCH  15  16
HETATM   16  C   UNL     1      -9.224  15.182  69.163  1.00  0.00    -0.215 C  
HETATM   17  O   UNL     1     -10.984  16.194  70.440  1.00  0.00    -0.341 OA 
HETATM   18  C   UNL     1     -11.688  14.621  68.814  1.00  0.00    -0.357 C  
HETATM   19  C   UNL     1     -10.814  16.886  68.158  1.00  0.00    -0.351 C  
HETATM   20  C   UNL     1     -10.669  15.717  69.129  1.00  0.00    -0.243 C  
HETATM   21  H   UNL     1     -11.875  16.523  70.418  1.00  0.00     0.000 HD 
ENDBRANCH  15  16
ENDBRANCH   3  15
BRANCH  14  22
HETATM   22  C   UNL     1     -10.814   6.137  70.578  1.00  0.00    -0.364 C  
HETATM   23  C   UNL     1      -9.738   3.882  70.762  1.00  0.00    -0.255 C  
HETATM   24  C   UNL     1      -9.014   3.142  69.618  1.00  0.00    -0.105 C  
HETATM   25  C   UNL     1      -9.687   5.391  70.574  1.00  0.00    -0.246 C  
HETATM   26  O   UNL     1      -9.744   3.242  68.391  1.00  0.00    -0.118 OA 
HETATM   27  C   UNL     1      -7.594   3.663  69.411  1.00  0.00    -0.052 C  
HETATM   28  H   UNL     1      -9.299   2.786  67.686  1.00  0.00     0.000 HD 
HETATM   29  C   UNL     1      -7.570   5.181  69.215  1.00  0.00    -0.069 C  
HETATM   30  C   UNL     1      -8.342   5.899  70.318  1.00  0.00    -0.122 C  
HETATM   31  O   UNL     1      -6.210   5.615  69.167  1.00  0.00    -0.026 OA 
HETATM   32  C   UNL     1      -7.817   6.887  71.076  1.00  0.00    -0.097 C  
HETATM   33  H   UNL     1      -6.195   6.557  69.045  1.00  0.00     0.000 HD 
ENDBRANCH  14  22
TORSDOF 3
ENDMDL
MODEL       53
REMARK 921   NORMALIZED FREE ENERGY PREDICTED BY IDOCK:   -5.93 KCAL/MOL
REMARK 922        TOTAL FREE ENERGY PREDICTED BY IDOCK:   -7.93 KCAL/MOL
REMARK 923 INTER-LIGAND FREE ENERGY PREDICTED BY IDOCK:   -7.11 KCAL/MOL
REMARK 924 INTRA-LIGAND FREE ENERGY PREDICTED BY IDOCK:   -0.82 KCAL/MOL
REMARK 927      BINDING AFFINITY PREDICTED BY RF-SCORE:    0.00 PKD
ROOT
HETATM    1  C   UNL     1      -8.471   6.448  69.234  1.00  0.00    -0.126 C  
HETATM    2  C   UNL     1      -9.499   7.553  68.952  1.00  0.00    -0.145 C  
HETATM    3  C   UNL     1     -10.930   6.958  69.149  1.00  0.00    -0.240 C  
HETATM    4  C   UNL     1      -9.389   8.320  67.541  1.00  0.00    -0.166 C  
HETATM    5  C   UNL     1      -6.228  11.404  66.904  1.00  0.00    -0.135 C  
HETATM    6  C   UNL     1     -10.366   9.492  67.570  1.00  0.00    -0.306 C  
HETATM    7  C   UNL     1      -9.638  10.546  68.383  1.00  0.00    -0.164 C  
HETATM    8  C   UNL     1      -7.862   9.722  65.784  1.00  0.00    -0.110 C  
HETATM    9  C   UNL     1      -8.027   9.075  67.204  1.00  0.00    -0.102 C  
HETATM   10  C   UNL     1      -8.097  10.302  68.221  1.00  0.00    -0.107 C  
HETATM   11  C   UNL     1      -6.871   8.049  67.257  1.00  0.00    -0.074 C  
HETATM   12  C   UNL     1      -7.431  11.616  67.767  1.00  0.00    -0.111 C  
HETATM   13  C   UNL     1      -6.535  10.535  65.686  1.00  0.00    -0.119 C  
HETATM   14  C   UNL     1      -7.951  12.830  68.058  1.00  0.00    -0.160 C  
ENDROOT
BRANCH   3  15
HETATM   15  C   UNL     1     -11.158   6.109  70.410  1.00  0.00    -0.420 C  
BRANCH  15  16
HETATM   16  C   UNL     1     -12.181   6.714  71.379  1.00  0.00    -0.378 C  
HETATM   17  O   UNL     1     -12.688   8.248  73.152  1.00  0.00    -0.596 OA 
HETATM   18  C   UNL     1     -11.122   9.028  71.555  1.00  0.00    -0.419 C  
HETATM   19  C   UNL     1     -10.519   7.245  73.223  1.00  0.00    -0.416 C  
HETATM   20  C   UNL     1     -11.617   7.799  72.317  1.00  0.00    -0.338 C  
HETATM   21  H   UNL     1     -12.339   8.917  73.730  1.00  0.00     0.000 HD 
ENDBRANCH  15  16
ENDBRANCH   3  15
BRANCH  14  22
HETATM   22  C   UNL     1      -7.798  14.053  67.285  1.00  0.00    -0.143 C  
HETATM   23  C   UNL     1      -8.673  16.122  66.178  1.00  0.00    -0.358 C  
HETATM   24  C   UNL     1     -10.088  16.286  65.583  1.00  0.00    -0.312 C  
HETATM   25  C   UNL     1      -8.654  15.099  67.303  1.00  0.00    -0.218 C  
HETATM   26  O   UNL     1     -10.478  15.126  64.842  1.00  0.00    -0.424 OA 
HETATM   27  C   UNL     1     -11.129  16.577  66.662  1.00  0.00     0.202 C  
HETATM   28  H   UNL     1     -11.348  15.228  64.475  1.00  0.00     0.000 HD 
HETATM   29  C   UNL     1     -11.095  15.529  67.777  1.00  0.00    -0.315 C  
HETATM   30  C   UNL     1      -9.682  15.329  68.315  1.00  0.00    -0.210 C  
HETATM   31  O   UNL     1     -11.991  15.935  68.813  1.00  0.00    -0.496 OA 
HETATM   32  C   UNL     1      -9.358  15.431  69.623  1.00  0.00    -0.208 C  
HETATM   33  H   UNL     1     -11.971  15.285  69.506  1.00  0.00     0.000 HD 
ENDBRANCH  14  22
TORSDOF 3
ENDMDL
MODEL       54
REMARK 921   NORMALIZED FREE ENERGY PREDICTED BY IDOCK:   -5.92 KCAL/MOL
REMARK 922        TOTAL FREE ENERGY PREDICTED BY IDOCK:   -7.92 KCAL/MOL
REMARK 923 INTER-LIGAND FREE ENERGY PREDICTED BY IDOCK:   -6.45 KCAL/MOL
REMARK 924 INTRA-LIGAND FREE ENERGY PREDICTED BY IDOCK:   -1.47 KCAL/MOL
REMARK 927      BINDING AFFINITY PREDICTED BY RF-SCORE:    0.00 PKD
ROOT
HETATM    1  C   UNL     1     -11.745  12.672  68.056  1.00  0.00    -0.402 C  
HETATM    2  C   UNL     1     -10.213  12.783  68.040  1.00  0.00    -0.228 C  
HETATM    3  C   UNL     1      -9.616  11.447  68.587  1.00  0.00    -0.179 C  
HETATM    4  C   UNL     1      -9.558  14.049  68.788  1.00  0.00    -0.098 C  
HETATM    5  C   UNL     1      -9.647  18.078  66.872  1.00  0.00    -0.295 C  
HETATM    6  C   UNL     1      -8.065  14.056  68.469  1.00  0.00    -0.139 C  
HETATM    7  C   UNL     1      -7.999  14.643  67.071  1.00  0.00    -0.106 C  
HETATM    8  C   UNL     1      -9.438  16.746  69.094  1.00  0.00    -0.162 C  
HETATM    9  C   UNL     1      -9.975  15.506  68.297  1.00  0.00    -0.213 C  
HETATM   10  C   UNL     1      -9.249  15.571  66.877  1.00  0.00    -0.257 C  
HETATM   11  C   UNL     1     -11.510  15.646  68.424  1.00  0.00    -0.374 C  
HETATM   12  C   UNL     1      -8.770  16.959  66.408  1.00  0.00    -0.321 C  
HETATM   13  C   UNL     1      -9.828  18.081  68.389  1.00  0.00    -0.369 C  
HETATM   14  C   UNL     1      -7.618  17.133  65.722  1.00  0.00     0.265 C  
ENDROOT
BRANCH   3  15
HETATM   15  C   UNL     1     -10.219  10.144  68.039  1.00  0.00    -0.205 C  
BRANCH  15  16
HETATM   16  C   UNL     1     -10.511  10.190  66.533  1.00  0.00    -0.236 C  
HETATM   17  O   UNL     1      -9.780   9.832  64.278  1.00  0.00    -0.405 OA 
HETATM   18  C   UNL     1      -9.001   8.248  65.858  1.00  0.00    -0.208 C  
HETATM   19  C   UNL     1      -8.112  10.600  65.809  1.00  0.00    -0.158 C  
HETATM   20  C   UNL     1      -9.349   9.720  65.637  1.00  0.00    -0.227 C  
HETATM   21  H   UNL     1      -9.063   9.542  63.725  1.00  0.00     0.000 HD 
ENDBRANCH  15  16
ENDBRANCH   3  15
BRANCH  14  22
HETATM   22  C   UNL     1      -6.782  18.324  65.708  1.00  0.00    -0.317 C  
HETATM   23  C   UNL     1      -5.664  20.284  66.796  1.00  0.00    -0.197 C  
HETATM   24  C   UNL     1      -6.197  21.045  68.028  1.00  0.00    -0.335 C  
HETATM   25  C   UNL     1      -6.141  18.839  66.780  1.00  0.00    -0.178 C  
HETATM   26  O   UNL     1      -7.607  21.272  67.929  1.00  0.00    -0.072 OA 
HETATM   27  C   UNL     1      -5.890  20.308  69.330  1.00  0.00    -0.360 C  
HETATM   28  H   UNL     1      -7.935  21.741  68.687  1.00  0.00     0.000 HD 
HETATM   29  C   UNL     1      -6.387  18.861  69.293  1.00  0.00    -0.275 C  
HETATM   30  C   UNL     1      -5.906  18.136  68.039  1.00  0.00    -0.164 C  
HETATM   31  O   UNL     1      -5.946  18.195  70.477  1.00  0.00    -0.114 OA 
HETATM   32  C   UNL     1      -5.235  16.963  68.064  1.00  0.00    -0.120 C  
HETATM   33  H   UNL     1      -6.255  17.297  70.454  1.00  0.00     0.000 HD 
ENDBRANCH  14  22
TORSDOF 3
ENDMDL
MODEL       55
REMARK 921   NORMALIZED FREE ENERGY PREDICTED BY IDOCK:   -5.90 KCAL/MOL
REMARK 922        TOTAL FREE ENERGY PREDICTED BY IDOCK:   -7.90 KCAL/MOL
REMARK 923 INTER-LIGAND FREE ENERGY PREDICTED BY IDOCK:   -7.04 KCAL/MOL
REMARK 924 INTRA-LIGAND FREE ENERGY PREDICTED BY IDOCK:   -0.85 KCAL/MOL
REMARK 927      BINDING AFFINITY PREDICTED BY RF-SCORE:    0.00 PKD
ROOT
HETATM    1  C   UNL     1     -10.225   5.338  70.635  1.00  0.00    -0.327 C  
HETATM    2  C   UNL     1      -9.307   6.569  70.639  1.00  0.00    -0.166 C  
HETATM    3  C   UNL     1      -7.879   6.119  71.087  1.00  0.00    -0.111 C  
HETATM    4  C   UNL     1      -9.793   7.848  71.485  1.00  0.00    -0.206 C  
HETATM    5  C   UNL     1     -12.992  10.514  69.882  1.00  0.00     0.205 C  
HETATM    6  C   UNL     1      -8.839   8.999  71.179  1.00  0.00    -0.282 C  
HETATM    7  C   UNL     1      -9.313   9.509  69.830  1.00  0.00    -0.227 C  
HETATM    8  C   UNL     1     -11.734   9.680  71.997  1.00  0.00    -0.057 C  
HETATM    9  C   UNL     1     -11.192   8.510  71.104  1.00  0.00    -0.317 C  
HETATM   10  C   UNL     1     -10.841   9.180  69.699  1.00  0.00    -0.210 C  
HETATM   11  C   UNL     1     -12.295   7.433  71.230  1.00  0.00    -0.380 C  
HETATM   12  C   UNL     1     -11.599  10.473  69.341  1.00  0.00    -0.318 C  
HETATM   13  C   UNL     1     -13.033  10.295  71.393  1.00  0.00    -0.540 C  
HETATM   14  C   UNL     1     -11.013  11.496  68.678  1.00  0.00    -0.270 C  
ENDROOT
BRANCH   3  15
HETATM   15  C   UNL     1      -7.320   4.843  70.436  1.00  0.00    -0.054 C  
BRANCH  15  16
HETATM   16  C   UNL     1      -6.462   3.997  71.385  1.00  0.00    -0.015 C  
HETATM   17  O   UNL     1      -5.797   1.840  72.195  1.00  0.00    -0.008 OA 
HETATM   18  C   UNL     1      -6.231   1.958  69.870  1.00  0.00    -0.024 C  
HETATM   19  C   UNL     1      -8.092   2.058  71.559  1.00  0.00    -0.043 C  
HETATM   20  C   UNL     1      -6.657   2.475  71.244  1.00  0.00    -0.023 C  
HETATM   21  H   UNL     1      -5.918   0.901  72.109  1.00  0.00     0.000 HD 
ENDBRANCH  15  16
ENDBRANCH   3  15
BRANCH  14  22
HETATM   22  C   UNL     1     -11.365  12.905  68.760  1.00  0.00    -0.333 C  
HETATM   23  C   UNL     1     -11.267  15.284  67.980  1.00  0.00    -0.330 C  
HETATM   24  C   UNL     1     -10.067  15.940  67.266  1.00  0.00    -0.260 C  
HETATM   25  C   UNL     1     -11.313  13.783  67.734  1.00  0.00    -0.331 C  
HETATM   26  O   UNL     1      -8.829  15.570  67.881  1.00  0.00    -0.169 OA 
HETATM   27  C   UNL     1     -10.025  15.584  65.781  1.00  0.00    -0.391 C  
HETATM   28  H   UNL     1      -8.091  15.975  67.442  1.00  0.00     0.000 HD 
HETATM   29  C   UNL     1     -10.063  14.071  65.560  1.00  0.00    -0.320 C  
HETATM   30  C   UNL     1     -11.216  13.424  66.322  1.00  0.00    -0.322 C  
HETATM   31  O   UNL     1     -10.161  13.815  64.158  1.00  0.00    -0.729 OA 
HETATM   32  C   UNL     1     -12.145  12.632  65.741  1.00  0.00    -0.484 C  
HETATM   33  H   UNL     1     -10.185  12.876  64.020  1.00  0.00     0.000 HD 
ENDBRANCH  14  22
TORSDOF 3
ENDMDL
MODEL       56
REMARK 921   NORMALIZED FREE ENERGY PREDICTED BY IDOCK:   -5.90 KCAL/MOL
REMARK 922        TOTAL FREE ENERGY PREDICTED BY IDOCK:   -7.89 KCAL/MOL
REMARK 923 INTER-LIGAND FREE ENERGY PREDICTED BY IDOCK:   -6.77 KCAL/MOL
REMARK 924 INTRA-LIGAND FREE ENERGY PREDICTED BY IDOCK:   -1.12 KCAL/MOL
REMARK 927      BINDING AFFINITY PREDICTED BY RF-SCORE:    0.00 PKD
ROOT
HETATM    1  C   UNL     1     -11.648  11.348  69.606  1.00  0.00    -0.399 C  
HETATM    2  C   UNL     1     -10.993  10.815  68.323  1.00  0.00    -0.307 C  
HETATM    3  C   UNL     1     -11.609  11.572  67.103  1.00  0.00    -0.249 C  
HETATM    4  C   UNL     1     -11.028   9.224  68.084  1.00  0.00    -0.060 C  
HETATM    5  C   UNL     1      -8.257   6.554  70.344  1.00  0.00    -0.125 C  
HETATM    6  C   UNL     1     -10.153   8.916  66.872  1.00  0.00    -0.343 C  
HETATM    7  C   UNL     1      -8.741   8.964  67.426  1.00  0.00    -0.128 C  
HETATM    8  C   UNL     1     -10.488   6.732  69.024  1.00  0.00    -0.229 C  
HETATM    9  C   UNL     1     -10.355   8.287  69.184  1.00  0.00    -0.225 C  
HETATM   10  C   UNL     1      -8.809   8.603  68.951  1.00  0.00    -0.138 C  
HETATM   11  C   UNL     1     -11.038   8.559  70.545  1.00  0.00    -0.265 C  
HETATM   12  C   UNL     1      -7.818   7.458  69.236  1.00  0.00    -0.116 C  
HETATM   13  C   UNL     1      -9.652   5.981  70.105  1.00  0.00    -0.192 C  
HETATM   14  C   UNL     1      -6.711   7.255  68.486  1.00  0.00    -0.057 C  
ENDROOT
BRANCH   3  15
HETATM   15  C   UNL     1     -11.737  13.098  67.229  1.00  0.00    -0.425 C  
BRANCH  15  16
HETATM   16  C   UNL     1     -12.486  13.749  66.060  1.00  0.00    -0.491 C  
HETATM   17  O   UNL     1     -12.641  14.216  63.713  1.00  0.00    -0.856 OA 
HETATM   18  C   UNL     1     -11.787  12.077  64.265  1.00  0.00    -0.431 C  
HETATM   19  C   UNL     1     -10.432  14.165  64.626  1.00  0.00    -0.366 C  
HETATM   20  C   UNL     1     -11.828  13.547  64.681  1.00  0.00    -0.394 C  
HETATM   21  H   UNL     1     -12.235  14.091  62.862  1.00  0.00     0.000 HD 
ENDBRANCH  15  16
ENDBRANCH   3  15
BRANCH  14  22
HETATM   22  C   UNL     1      -6.030   5.990  68.259  1.00  0.00    -0.020 C  
HETATM   23  C   UNL     1      -5.983   3.518  67.854  1.00  0.00    -0.027 C  
HETATM   24  C   UNL     1      -7.038   2.511  68.359  1.00  0.00    -0.048 C  
HETATM   25  C   UNL     1      -6.578   4.905  67.667  1.00  0.00    -0.050 C  
HETATM   26  O   UNL     1      -7.410   2.782  69.713  1.00  0.00    -0.043 OA 
HETATM   27  C   UNL     1      -8.285   2.503  67.478  1.00  0.00    -0.077 C  
HETATM   28  H   UNL     1      -8.059   2.162  70.024  1.00  0.00     0.000 HD 
HETATM   29  C   UNL     1      -8.870   3.907  67.312  1.00  0.00    -0.122 C  
HETATM   30  C   UNL     1      -7.805   4.908  66.874  1.00  0.00    -0.099 C  
HETATM   31  O   UNL     1      -9.944   3.848  66.372  1.00  0.00    -0.376 OA 
HETATM   32  C   UNL     1      -7.926   5.700  65.785  1.00  0.00    -0.109 C  
HETATM   33  H   UNL     1     -10.307   4.720  66.269  1.00  0.00     0.000 HD 
ENDBRANCH  14  22
TORSDOF 3
ENDMDL
MODEL       57
REMARK 921   NORMALIZED FREE ENERGY PREDICTED BY IDOCK:   -5.89 KCAL/MOL
REMARK 922        TOTAL FREE ENERGY PREDICTED BY IDOCK:   -7.88 KCAL/MOL
REMARK 923 INTER-LIGAND FREE ENERGY PREDICTED BY IDOCK:   -6.35 KCAL/MOL
REMARK 924 INTRA-LIGAND FREE ENERGY PREDICTED BY IDOCK:   -1.53 KCAL/MOL
REMARK 927      BINDING AFFINITY PREDICTED BY RF-SCORE:    0.00 PKD
ROOT
HETATM    1  C   UNL     1      -7.288   9.830  68.033  1.00  0.00    -0.081 C  
HETATM    2  C   UNL     1      -8.328  10.584  67.192  1.00  0.00    -0.127 C  
HETATM    3  C   UNL     1      -8.725   9.687  65.976  1.00  0.00    -0.155 C  
HETATM    4  C   UNL     1      -7.944  12.069  66.704  1.00  0.00     0.013 C  
HETATM    5  C   UNL     1      -8.110  15.486  69.570  1.00  0.00    -0.202 C  
HETATM    6  C   UNL     1      -9.188  12.688  66.072  1.00  0.00     0.011 C  
HETATM    7  C   UNL     1     -10.020  13.121  67.265  1.00  0.00    -0.230 C  
HETATM    8  C   UNL     1      -7.110  14.573  67.352  1.00  0.00    -0.138 C  
HETATM    9  C   UNL     1      -7.602  13.158  67.816  1.00  0.00    -0.155 C  
HETATM   10  C   UNL     1      -9.042  13.403  68.458  1.00  0.00    -0.077 C  
HETATM   11  C   UNL     1      -6.419  12.636  68.665  1.00  0.00    -0.079 C  
HETATM   12  C   UNL     1      -9.323  14.814  69.009  1.00  0.00    -0.160 C  
HETATM   13  C   UNL     1      -6.963  15.544  68.563  1.00  0.00    -0.114 C  
HETATM   14  C   UNL     1     -10.536  15.405  68.903  1.00  0.00    -0.238 C  
ENDROOT
BRANCH   3  15
HETATM   15  C   UNL     1      -9.020   8.209  66.275  1.00  0.00    -0.215 C  
BRANCH  15  16
HETATM   16  C   UNL     1     -10.245   7.998  67.175  1.00  0.00    -0.362 C  
HETATM   17  O   UNL     1     -11.612   6.530  68.489  1.00  0.00    -0.539 OA 
HETATM   18  C   UNL     1      -9.285   6.094  68.575  1.00  0.00    -0.115 C  
HETATM   19  C   UNL     1     -10.643   5.578  66.522  1.00  0.00    -0.343 C  
HETATM   20  C   UNL     1     -10.434   6.554  67.678  1.00  0.00    -0.230 C  
HETATM   21  H   UNL     1     -11.729   5.639  68.798  1.00  0.00     0.000 HD 
ENDBRANCH  15  16
ENDBRANCH   3  15
BRANCH  14  22
HETATM   22  C   UNL     1     -10.809  16.832  68.843  1.00  0.00    -0.301 C  
HETATM   23  C   UNL     1     -10.242  19.193  68.225  1.00  0.00    -0.486 C  
HETATM   24  C   UNL     1      -8.815  19.772  68.129  1.00  0.00    -0.292 C  
HETATM   25  C   UNL     1     -10.258  17.695  67.960  1.00  0.00    -0.362 C  
HETATM   26  O   UNL     1      -8.003  19.339  69.224  1.00  0.00    -0.249 OA 
HETATM   27  C   UNL     1      -8.137  19.399  66.812  1.00  0.00    -0.302 C  
HETATM   28  H   UNL     1      -7.125  19.697  69.165  1.00  0.00     0.000 HD 
HETATM   29  C   UNL     1      -8.158  17.888  66.573  1.00  0.00    -0.272 C  
HETATM   30  C   UNL     1      -9.563  17.315  66.733  1.00  0.00    -0.279 C  
HETATM   31  O   UNL     1      -7.636  17.623  65.270  1.00  0.00     0.077 OA 
HETATM   32  C   UNL     1     -10.180  16.571  65.788  1.00  0.00    -0.350 C  
HETATM   33  H   UNL     1      -7.648  16.685  65.121  1.00  0.00     0.000 HD 
ENDBRANCH  14  22
TORSDOF 3
ENDMDL
MODEL       58
REMARK 921   NORMALIZED FREE ENERGY PREDICTED BY IDOCK:   -5.87 KCAL/MOL
REMARK 922        TOTAL FREE ENERGY PREDICTED BY IDOCK:   -7.87 KCAL/MOL
REMARK 923 INTER-LIGAND FREE ENERGY PREDICTED BY IDOCK:   -5.91 KCAL/MOL
REMARK 924 INTRA-LIGAND FREE ENERGY PREDICTED BY IDOCK:   -1.95 KCAL/MOL
REMARK 927      BINDING AFFINITY PREDICTED BY RF-SCORE:    0.00 PKD
ROOT
HETATM    1  C   UNL     1      -8.121   8.039  68.871  1.00  0.00    -0.124 C  
HETATM    2  C   UNL     1      -9.509   8.647  68.621  1.00  0.00    -0.144 C  
HETATM    3  C   UNL     1     -10.517   7.484  68.354  1.00  0.00    -0.212 C  
HETATM    4  C   UNL     1      -9.624   9.776  67.480  1.00  0.00    -0.178 C  
HETATM    5  C   UNL     1      -8.193  13.926  68.277  1.00  0.00    -0.158 C  
HETATM    6  C   UNL     1     -11.029  10.368  67.552  1.00  0.00    -0.358 C  
HETATM    7  C   UNL     1     -10.954  11.331  68.723  1.00  0.00    -0.270 C  
HETATM    8  C   UNL     1      -8.749  12.142  66.471  1.00  0.00    -0.114 C  
HETATM    9  C   UNL     1      -8.737  11.091  67.635  1.00  0.00    -0.128 C  
HETATM   10  C   UNL     1      -9.466  11.809  68.860  1.00  0.00     0.055 C  
HETATM   11  C   UNL     1      -7.250  10.672  67.714  1.00  0.00    -0.088 C  
HETATM   12  C   UNL     1      -9.437  13.350  68.874  1.00  0.00     0.186 C  
HETATM   13  C   UNL     1      -7.943  13.420  66.858  1.00  0.00     0.160 C  
HETATM   14  C   UNL     1     -10.485  14.089  69.305  1.00  0.00    -0.038 C  
ENDROOT
BRANCH   3  15
HETATM   15  C   UNL     1     -10.452   6.280  69.307  1.00  0.00    -0.298 C  
BRANCH  15  16
HETATM   16  C   UNL     1     -11.596   6.246  70.329  1.00  0.00    -0.379 C  
HETATM   17  O   UNL     1     -12.335   6.409  72.605  1.00  0.00    -0.506 OA 
HETATM   18  C   UNL     1     -10.571   7.873  72.006  1.00  0.00    -0.296 C  
HETATM   19  C   UNL     1     -10.193   5.400  72.269  1.00  0.00    -0.244 C  
HETATM   20  C   UNL     1     -11.162   6.479  71.789  1.00  0.00    -0.269 C  
HETATM   21  H   UNL     1     -12.067   6.553  73.505  1.00  0.00     0.000 HD 
ENDBRANCH  15  16
ENDBRANCH   3  15
BRANCH  14  22
HETATM   22  C   UNL     1     -10.835  15.436  68.882  1.00  0.00    -0.251 C  
HETATM   23  C   UNL     1     -11.085  17.247  67.169  1.00  0.00     0.192 C  
HETATM   24  C   UNL     1     -10.217  17.404  65.903  1.00  0.00    -0.256 C  
HETATM   25  C   UNL     1     -11.161  15.797  67.620  1.00  0.00    -0.283 C  
HETATM   26  O   UNL     1      -8.833  17.183  66.191  1.00  0.00    -0.417 OA 
HETATM   27  C   UNL     1     -10.663  16.462  64.787  1.00  0.00    -0.100 C  
HETATM   28  H   UNL     1      -8.299  17.280  65.411  1.00  0.00     0.000 HD 
HETATM   29  C   UNL     1     -10.723  15.009  65.262  1.00  0.00    -0.389 C  
HETATM   30  C   UNL     1     -11.531  14.874  66.550  1.00  0.00    -0.286 C  
HETATM   31  O   UNL     1     -11.277  14.208  64.217  1.00  0.00    -0.573 OA 
HETATM   32  C   UNL     1     -12.574  14.027  66.693  1.00  0.00    -0.146 C  
HETATM   33  H   UNL     1     -11.314  13.305  64.512  1.00  0.00     0.000 HD 
ENDBRANCH  14  22
TORSDOF 3
ENDMDL
MODEL       59
REMARK 921   NORMALIZED FREE ENERGY PREDICTED BY IDOCK:   -5.83 KCAL/MOL
REMARK 922        TOTAL FREE ENERGY PREDICTED BY IDOCK:   -7.81 KCAL/MOL
REMARK 923 INTER-LIGAND FREE ENERGY PREDICTED BY IDOCK:   -6.06 KCAL/MOL
REMARK 924 INTRA-LIGAND FREE ENERGY PREDICTED BY IDOCK:   -1.76 KCAL/MOL
REMARK 927      BINDING AFFINITY PREDICTED BY RF-SCORE:    0.00 PKD
ROOT
HETATM    1  C   UNL     1     -10.564   8.524  68.626  1.00  0.00    -0.154 C  
HETATM    2  C   UNL     1      -9.390   9.467  68.323  1.00  0.00    -0.140 C  
HETATM    3  C   UNL     1      -8.064   8.755  68.743  1.00  0.00    -0.115 C  
HETATM    4  C   UNL     1      -9.459  10.952  68.938  1.00  0.00    -0.182 C  
HETATM    5  C   UNL     1     -12.115  14.024  67.088  1.00  0.00    -0.436 C  
HETATM    6  C   UNL     1      -8.306  11.757  68.345  1.00  0.00    -0.153 C  
HETATM    7  C   UNL     1      -8.804  12.133  66.961  1.00  0.00    -0.203 C  
HETATM    8  C   UNL     1     -10.843  13.274  69.226  1.00  0.00    -0.071 C  
HETATM    9  C   UNL     1     -10.700  11.870  68.540  1.00  0.00    -0.254 C  
HETATM   10  C   UNL     1     -10.372  12.181  67.010  1.00  0.00    -0.232 C  
HETATM   11  C   UNL     1     -12.001  11.143  68.954  1.00  0.00    -0.367 C  
HETATM   12  C   UNL     1     -10.844  13.543  66.464  1.00  0.00    -0.283 C  
HETATM   13  C   UNL     1     -12.026  14.083  68.612  1.00  0.00    -0.389 C  
HETATM   14  C   UNL     1     -10.118  14.257  65.574  1.00  0.00    -0.370 C  
ENDROOT
BRANCH   3  15
HETATM   15  C   UNL     1      -7.900   7.289  68.313  1.00  0.00    -0.122 C  
BRANCH  15  16
HETATM   16  C   UNL     1      -6.825   7.082  67.238  1.00  0.00    -0.069 C  
HETATM   17  O   UNL     1      -6.252   6.605  64.959  1.00  0.00    -0.036 OA 
HETATM   18  C   UNL     1      -8.189   7.936  65.259  1.00  0.00    -0.147 C  
HETATM   19  C   UNL     1      -8.183   5.482  65.810  1.00  0.00    -0.124 C  
HETATM   20  C   UNL     1      -7.373   6.776  65.831  1.00  0.00    -0.075 C  
HETATM   21  H   UNL     1      -6.590   6.417  64.091  1.00  0.00     0.000 HD 
ENDBRANCH  15  16
ENDBRANCH   3  15
BRANCH  14  22
HETATM   22  C   UNL     1     -10.119  15.702  65.407  1.00  0.00    -0.370 C  
HETATM   23  C   UNL     1      -9.876  18.050  66.247  1.00  0.00    -0.310 C  
HETATM   24  C   UNL     1     -10.192  18.522  67.681  1.00  0.00    -0.387 C  
HETATM   25  C   UNL     1      -9.483  16.581  66.214  1.00  0.00    -0.339 C  
HETATM   26  O   UNL     1     -11.413  17.950  68.160  1.00  0.00     0.227 OA 
HETATM   27  C   UNL     1      -9.059  18.192  68.652  1.00  0.00    -0.290 C  
HETATM   28  H   UNL     1     -11.608  18.241  69.043  1.00  0.00     0.000 HD 
HETATM   29  C   UNL     1      -8.689  16.708  68.607  1.00  0.00    -0.250 C  
HETATM   30  C   UNL     1      -8.440  16.237  67.177  1.00  0.00    -0.213 C  
HETATM   31  O   UNL     1      -7.540  16.498  69.429  1.00  0.00    -0.215 OA 
HETATM   32  C   UNL     1      -7.308  15.613  66.781  1.00  0.00     0.010 C  
HETATM   33  H   UNL     1      -7.310  15.577  69.401  1.00  0.00     0.000 HD 
ENDBRANCH  14  22
TORSDOF 3
ENDMDL
MODEL       60
REMARK 921   NORMALIZED FREE ENERGY PREDICTED BY IDOCK:   -5.83 KCAL/MOL
REMARK 922        TOTAL FREE ENERGY PREDICTED BY IDOCK:   -7.81 KCAL/MOL
REMARK 923 INTER-LIGAND FREE ENERGY PREDICTED BY IDOCK:   -5.96 KCAL/MOL
REMARK 924 INTRA-LIGAND FREE ENERGY PREDICTED BY IDOCK:   -1.85 KCAL/MOL
REMARK 927      BINDING AFFINITY PREDICTED BY RF-SCORE:    0.00 PKD
ROOT
HETATM    1  C   UNL     1     -11.044   7.180  69.218  1.00  0.00    -0.112 C  
HETATM    2  C   UNL     1      -9.807   7.917  68.685  1.00  0.00    -0.177 C  
HETATM    3  C   UNL     1      -8.548   7.032  68.960  1.00  0.00    -0.129 C  
HETATM    4  C   UNL     1      -9.568   9.423  69.200  1.00  0.00    -0.163 C  
HETATM    5  C   UNL     1     -12.004  12.773  67.541  1.00  0.00    -0.342 C  
HETATM    6  C   UNL     1      -8.415  10.014  68.393  1.00  0.00    -0.112 C  
HETATM    7  C   UNL     1      -9.058  10.395  67.073  1.00  0.00    -0.153 C  
HETATM    8  C   UNL     1     -10.544  11.939  69.522  1.00  0.00     0.195 C  
HETATM    9  C   UNL     1     -10.710  10.499  68.920  1.00  0.00    -0.253 C  
HETATM   10  C   UNL     1     -10.576  10.684  67.341  1.00  0.00    -0.304 C  
HETATM   11  C   UNL     1     -12.024   9.999  69.566  1.00  0.00     0.096 C  
HETATM   12  C   UNL     1     -10.926  12.074  66.776  1.00  0.00    -0.329 C  
HETATM   13  C   UNL     1     -11.677  12.889  69.028  1.00  0.00    -0.375 C  
HETATM   14  C   UNL     1     -10.249  12.627  65.744  1.00  0.00    -0.288 C  
ENDROOT
BRANCH   3  15
HETATM   15  C   UNL     1      -8.664   5.540  68.613  1.00  0.00    -0.108 C  
BRANCH  15  16
HETATM   16  C   UNL     1      -8.187   5.201  67.195  1.00  0.00    -0.107 C  
HETATM   17  O   UNL     1      -8.533   4.046  65.122  1.00  0.00    -0.110 OA 
HETATM   18  C   UNL     1     -10.493   4.892  66.150  1.00  0.00    -0.346 C  
HETATM   19  C   UNL     1      -9.269   2.906  67.092  1.00  0.00    -0.189 C  
HETATM   20  C   UNL     1      -9.123   4.264  66.407  1.00  0.00    -0.130 C  
HETATM   21  H   UNL     1      -9.111   3.468  64.637  1.00  0.00     0.000 HD 
ENDBRANCH  15  16
ENDBRANCH   3  15
BRANCH  14  22
HETATM   22  C   UNL     1     -10.067  14.046  65.479  1.00  0.00    -0.343 C  
HETATM   23  C   UNL     1      -9.728  16.426  66.184  1.00  0.00    -0.355 C  
HETATM   24  C   UNL     1     -10.239  17.049  67.499  1.00  0.00    -0.323 C  
HETATM   25  C   UNL     1      -9.493  14.930  66.326  1.00  0.00    -0.339 C  
HETATM   26  O   UNL     1     -11.579  16.636  67.784  1.00  0.00     0.057 OA 
HETATM   27  C   UNL     1      -9.336  16.704  68.682  1.00  0.00    -0.247 C  
HETATM   28  H   UNL     1     -11.894  17.020  68.594  1.00  0.00     0.000 HD 
HETATM   29  C   UNL     1      -9.123  15.194  68.809  1.00  0.00    -0.200 C  
HETATM   30  C   UNL     1      -8.678  14.578  67.486  1.00  0.00    -0.195 C  
HETATM   31  O   UNL     1      -8.165  14.952  69.841  1.00  0.00    -0.427 OA 
HETATM   32  C   UNL     1      -7.567  13.821  67.349  1.00  0.00    -0.153 C  
HETATM   33  H   UNL     1      -8.033  14.015  69.920  1.00  0.00     0.000 HD 
ENDBRANCH  14  22
TORSDOF 3
ENDMDL
MODEL       61
REMARK 921   NORMALIZED FREE ENERGY PREDICTED BY IDOCK:   -5.80 KCAL/MOL
REMARK 922        TOTAL FREE ENERGY PREDICTED BY IDOCK:   -7.79 KCAL/MOL
REMARK 923 INTER-LIGAND FREE ENERGY PREDICTED BY IDOCK:   -6.11 KCAL/MOL
REMARK 924 INTRA-LIGAND FREE ENERGY PREDICTED BY IDOCK:   -1.67 KCAL/MOL
REMARK 927      BINDING AFFINITY PREDICTED BY RF-SCORE:    0.00 PKD
ROOT
HETATM    1  C   UNL     1      -9.809   6.222  66.885  1.00  0.00    -0.196 C  
HETATM    2  C   UNL     1      -9.269   7.509  66.243  1.00  0.00    -0.194 C  
HETATM    3  C   UNL     1      -8.056   7.135  65.333  1.00  0.00    -0.137 C  
HETATM    4  C   UNL     1      -8.890   8.722  67.230  1.00  0.00    -0.141 C  
HETATM    5  C   UNL     1     -12.104  11.234  69.038  1.00  0.00    -0.325 C  
HETATM    6  C   UNL     1      -8.577   9.942  66.369  1.00  0.00    -0.136 C  
HETATM    7  C   UNL     1      -9.947  10.471  65.985  1.00  0.00    -0.295 C  
HETATM    8  C   UNL     1      -9.648  10.405  69.224  1.00  0.00    -0.226 C  
HETATM    9  C   UNL     1     -10.034   9.306  68.173  1.00  0.00    -0.206 C  
HETATM   10  C   UNL     1     -10.959  10.049  67.107  1.00  0.00    -0.177 C  
HETATM   11  C   UNL     1     -10.580   8.156  69.052  1.00  0.00    -0.167 C  
HETATM   12  C   UNL     1     -11.709  11.303  67.597  1.00  0.00    -0.215 C  
HETATM   13  C   UNL     1     -10.912  10.957  69.952  1.00  0.00    -0.266 C  
HETATM   14  C   UNL     1     -11.901  12.386  66.809  1.00  0.00    -0.385 C  
ENDROOT
BRANCH   3  15
HETATM   15  C   UNL     1      -8.236   5.924  64.404  1.00  0.00    -0.099 C  
BRANCH  15  16
HETATM   16  C   UNL     1      -6.986   5.040  64.301  1.00  0.00    -0.049 C  
HETATM   17  O   UNL     1      -5.970   2.875  64.475  1.00  0.00    -0.017 OA 
HETATM   18  C   UNL     1      -8.173   2.892  63.605  1.00  0.00    -0.085 C  
HETATM   19  C   UNL     1      -7.719   3.339  66.038  1.00  0.00    -0.081 C  
HETATM   20  C   UNL     1      -7.225   3.549  64.608  1.00  0.00    -0.066 C  
HETATM   21  H   UNL     1      -6.117   1.955  64.665  1.00  0.00     0.000 HD 
ENDBRANCH  15  16
ENDBRANCH   3  15
BRANCH  14  22
HETATM   22  C   UNL     1     -12.056  13.766  67.244  1.00  0.00    -0.393 C  
HETATM   23  C   UNL     1     -11.336  15.805  68.508  1.00  0.00    -0.374 C  
HETATM   24  C   UNL     1     -10.529  15.802  69.823  1.00  0.00    -0.317 C  
HETATM   25  C   UNL     1     -11.054  14.565  67.675  1.00  0.00    -0.314 C  
HETATM   26  O   UNL     1     -11.014  14.805  70.729  1.00  0.00    -0.505 OA 
HETATM   27  C   UNL     1      -9.038  15.584  69.576  1.00  0.00    -0.260 C  
HETATM   28  H   UNL     1     -10.518  14.804  71.539  1.00  0.00     0.000 HD 
HETATM   29  C   UNL     1      -8.780  14.326  68.744  1.00  0.00    -0.096 C  
HETATM   30  C   UNL     1      -9.629  14.310  67.477  1.00  0.00    -0.216 C  
HETATM   31  O   UNL     1      -7.387  14.259  68.435  1.00  0.00    -0.102 OA 
HETATM   32  C   UNL     1      -9.118  14.152  66.236  1.00  0.00    -0.072 C  
HETATM   33  H   UNL     1      -7.226  13.479  67.918  1.00  0.00     0.000 HD 
ENDBRANCH  14  22
TORSDOF 3
ENDMDL
MODEL       62
REMARK 921   NORMALIZED FREE ENERGY PREDICTED BY IDOCK:   -5.77 KCAL/MOL
REMARK 922        TOTAL FREE ENERGY PREDICTED BY IDOCK:   -7.75 KCAL/MOL
REMARK 923 INTER-LIGAND FREE ENERGY PREDICTED BY IDOCK:   -7.00 KCAL/MOL
REMARK 924 INTRA-LIGAND FREE ENERGY PREDICTED BY IDOCK:   -0.75 KCAL/MOL
REMARK 927      BINDING AFFINITY PREDICTED BY RF-SCORE:    0.00 PKD
ROOT
HETATM    1  C   UNL     1      -9.488   9.431  65.250  1.00  0.00    -0.296 C  
HETATM    2  C   UNL     1      -8.996  10.460  66.279  1.00  0.00    -0.172 C  
HETATM    3  C   UNL     1      -8.164   9.711  67.368  1.00  0.00    -0.114 C  
HETATM    4  C   UNL     1     -10.104  11.408  66.960  1.00  0.00    -0.237 C  
HETATM    5  C   UNL     1     -11.828  14.837  64.683  1.00  0.00    -0.442 C  
HETATM    6  C   UNL     1      -9.370  12.468  67.777  1.00  0.00    -0.198 C  
HETATM    7  C   UNL     1      -8.916  13.474  66.736  1.00  0.00    -0.188 C  
HETATM    8  C   UNL     1     -12.154  13.165  66.645  1.00  0.00    -0.409 C  
HETATM    9  C   UNL     1     -10.991  12.328  66.007  1.00  0.00    -0.327 C  
HETATM   10  C   UNL     1      -9.912  13.401  65.527  1.00  0.00    -0.226 C  
HETATM   11  C   UNL     1     -11.728  11.418  64.995  1.00  0.00     0.188 C  
HETATM   12  C   UNL     1     -10.435  14.820  65.227  1.00  0.00    -0.427 C  
HETATM   13  C   UNL     1     -12.814  14.106  65.592  1.00  0.00    -0.402 C  
HETATM   14  C   UNL     1      -9.722  15.931  65.519  1.00  0.00    -0.215 C  
ENDROOT
BRANCH   3  15
HETATM   15  C   UNL     1      -7.131   8.688  66.867  1.00  0.00    -0.075 C  
BRANCH  15  16
HETATM   16  C   UNL     1      -7.585   7.232  67.023  1.00  0.00    -0.106 C  
HETATM   17  O   UNL     1      -7.486   4.949  66.294  1.00  0.00    -0.084 OA 
HETATM   18  C   UNL     1      -5.440   6.138  66.181  1.00  0.00    -0.013 C  
HETATM   19  C   UNL     1      -7.320   6.606  64.577  1.00  0.00    -0.086 C  
HETATM   20  C   UNL     1      -6.956   6.249  66.017  1.00  0.00    -0.065 C  
HETATM   21  H   UNL     1      -7.097   4.344  65.673  1.00  0.00     0.000 HD 
ENDBRANCH  15  16
ENDBRANCH   3  15
BRANCH  14  22
HETATM   22  C   UNL     1     -10.250  17.252  65.823  1.00  0.00    -0.212 C  
HETATM   23  C   UNL     1     -10.350  19.366  67.163  1.00  0.00    -0.548 C  
HETATM   24  C   UNL     1     -10.027  19.486  68.667  1.00  0.00    -0.449 C  
HETATM   25  C   UNL     1      -9.599  18.211  66.518  1.00  0.00    -0.318 C  
HETATM   26  O   UNL     1     -10.596  18.402  69.409  1.00  0.00    -0.298 OA 
HETATM   27  C   UNL     1      -8.522  19.545  68.923  1.00  0.00    -0.291 C  
HETATM   28  H   UNL     1     -10.398  18.477  70.335  1.00  0.00     0.000 HD 
HETATM   29  C   UNL     1      -7.791  18.368  68.273  1.00  0.00    -0.298 C  
HETATM   30  C   UNL     1      -8.166  18.221  66.802  1.00  0.00    -0.269 C  
HETATM   31  O   UNL     1      -6.384  18.560  68.433  1.00  0.00    -0.203 OA 
HETATM   32  C   UNL     1      -7.260  18.180  65.799  1.00  0.00    -0.216 C  
HETATM   33  H   UNL     1      -5.930  17.829  68.029  1.00  0.00     0.000 HD 
ENDBRANCH  14  22
TORSDOF 3
ENDMDL
MODEL       63
REMARK 921   NORMALIZED FREE ENERGY PREDICTED BY IDOCK:   -5.77 KCAL/MOL
REMARK 922        TOTAL FREE ENERGY PREDICTED BY IDOCK:   -7.74 KCAL/MOL
REMARK 923 INTER-LIGAND FREE ENERGY PREDICTED BY IDOCK:   -5.96 KCAL/MOL
REMARK 924 INTRA-LIGAND FREE ENERGY PREDICTED BY IDOCK:   -1.78 KCAL/MOL
REMARK 927      BINDING AFFINITY PREDICTED BY RF-SCORE:    0.00 PKD
ROOT
HETATM    1  C   UNL     1      -7.476  13.923  67.675  1.00  0.00    -0.187 C  
HETATM    2  C   UNL     1      -8.602  13.046  67.108  1.00  0.00    -0.195 C  
HETATM    3  C   UNL     1      -9.807  13.969  66.738  1.00  0.00    -0.275 C  
HETATM    4  C   UNL     1      -9.091  11.803  68.005  1.00  0.00    -0.180 C  
HETATM    5  C   UNL     1      -6.620   8.094  68.232  1.00  0.00    -0.060 C  
HETATM    6  C   UNL     1     -10.056  10.972  67.163  1.00  0.00    -0.227 C  
HETATM    7  C   UNL     1      -9.141  10.167  66.258  1.00  0.00    -0.180 C  
HETATM    8  C   UNL     1      -8.447   9.546  69.375  1.00  0.00    -0.146 C  
HETATM    9  C   UNL     1      -8.013  10.697  68.402  1.00  0.00    -0.120 C  
HETATM   10  C   UNL     1      -7.768   9.989  66.994  1.00  0.00    -0.095 C  
HETATM   11  C   UNL     1      -6.861  11.389  69.169  1.00  0.00    -0.111 C  
HETATM   12  C   UNL     1      -7.411   8.490  67.027  1.00  0.00    -0.084 C  
HETATM   13  C   UNL     1      -7.314   8.487  69.535  1.00  0.00    -0.065 C  
HETATM   14  C   UNL     1      -7.858   7.619  66.093  1.00  0.00    -0.096 C  
ENDROOT
BRANCH   3  15
HETATM   15  C   UNL     1      -9.481  15.257  65.966  1.00  0.00    -0.372 C  
BRANCH  15  16
HETATM   16  C   UNL     1     -10.392  16.437  66.327  1.00  0.00    -0.337 C  
HETATM   17  O   UNL     1     -10.745  18.475  67.539  1.00  0.00    -0.427 OA 
HETATM   18  C   UNL     1      -8.548  18.156  66.715  1.00  0.00    -0.272 C  
HETATM   19  C   UNL     1      -9.433  16.812  68.648  1.00  0.00    -0.255 C  
HETATM   20  C   UNL     1      -9.772  17.454  67.304  1.00  0.00    -0.267 C  
HETATM   21  H   UNL     1     -10.363  19.103  68.142  1.00  0.00     0.000 HD 
ENDBRANCH  15  16
ENDBRANCH   3  15
BRANCH  14  22
HETATM   22  C   UNL     1      -8.091   6.194  66.269  1.00  0.00    -0.113 C  
HETATM   23  C   UNL     1      -8.894   4.203  67.559  1.00  0.00    -0.126 C  
HETATM   24  C   UNL     1      -8.915   4.086  69.098  1.00  0.00    -0.111 C  
HETATM   25  C   UNL     1      -9.002   5.651  67.106  1.00  0.00    -0.112 C  
HETATM   26  O   UNL     1      -7.709   4.595  69.675  1.00  0.00    -0.057 OA 
HETATM   27  C   UNL     1     -10.117   4.806  69.707  1.00  0.00    -0.289 C  
HETATM   28  H   UNL     1      -7.722   4.522  70.622  1.00  0.00     0.000 HD 
HETATM   29  C   UNL     1     -10.198   6.262  69.244  1.00  0.00    -0.193 C  
HETATM   30  C   UNL     1     -10.113   6.371  67.724  1.00  0.00    -0.171 C  
HETATM   31  O   UNL     1     -11.412   6.831  69.736  1.00  0.00    -0.479 OA 
HETATM   32  C   UNL     1     -11.030   7.014  66.968  1.00  0.00    -0.357 C  
HETATM   33  H   UNL     1     -11.464   7.735  69.449  1.00  0.00     0.000 HD 
ENDBRANCH  14  22
TORSDOF 3
ENDMDL
MODEL       64
REMARK 921   NORMALIZED FREE ENERGY PREDICTED BY IDOCK:   -5.74 KCAL/MOL
REMARK 922        TOTAL FREE ENERGY PREDICTED BY IDOCK:   -7.71 KCAL/MOL
REMARK 923 INTER-LIGAND FREE ENERGY PREDICTED BY IDOCK:   -6.64 KCAL/MOL
REMARK 924 INTRA-LIGAND FREE ENERGY PREDICTED BY IDOCK:   -1.07 KCAL/MOL
REMARK 927      BINDING AFFINITY PREDICTED BY RF-SCORE:    0.00 PKD
ROOT
HETATM    1  C   UNL     1     -10.310  13.648  66.934  1.00  0.00    -0.262 C  
HETATM    2  C   UNL     1     -10.753  12.644  68.008  1.00  0.00    -0.243 C  
HETATM    3  C   UNL     1     -11.249  13.442  69.255  1.00  0.00    -0.275 C  
HETATM    4  C   UNL     1      -9.694  11.511  68.439  1.00  0.00    -0.202 C  
HETATM    5  C   UNL     1      -8.951   8.005  65.781  1.00  0.00    -0.148 C  
HETATM    6  C   UNL     1     -10.415  10.523  69.351  1.00  0.00    -0.264 C  
HETATM    7  C   UNL     1     -11.199   9.651  68.388  1.00  0.00    -0.004 C  
HETATM    8  C   UNL     1      -8.023   9.502  67.692  1.00  0.00    -0.106 C  
HETATM    9  C   UNL     1      -9.145  10.530  67.310  1.00  0.00    -0.152 C  
HETATM   10  C   UNL     1     -10.442   9.648  67.014  1.00  0.00    -0.302 C  
HETATM   11  C   UNL     1      -8.478  11.380  66.203  1.00  0.00    -0.105 C  
HETATM   12  C   UNL     1     -10.202   8.189  66.580  1.00  0.00    -0.329 C  
HETATM   13  C   UNL     1      -7.716   8.536  66.507  1.00  0.00    -0.092 C  
HETATM   14  C   UNL     1     -11.008   7.176  66.972  1.00  0.00    -0.304 C  
ENDROOT
BRANCH   3  15
HETATM   15  C   UNL     1     -12.191  14.627  68.989  1.00  0.00    -0.199 C  
BRANCH  15  16
HETATM   16  C   UNL     1     -12.079  15.745  70.032  1.00  0.00    -0.344 C  
HETATM   17  O   UNL     1     -12.598  16.589  72.216  1.00  0.00    -0.385 OA 
HETATM   18  C   UNL     1     -12.185  14.259  72.103  1.00  0.00    -0.163 C  
HETATM   19  C   UNL     1     -14.295  15.265  71.175  1.00  0.00    -0.384 C  
HETATM   20  C   UNL     1     -12.792  15.454  71.367  1.00  0.00    -0.439 C  
HETATM   21  H   UNL     1     -13.038  16.409  73.039  1.00  0.00     0.000 HD 
ENDBRANCH  15  16
ENDBRANCH   3  15
BRANCH  14  22
HETATM   22  C   UNL     1     -10.637   5.778  67.132  1.00  0.00    -0.365 C  
HETATM   23  C   UNL     1      -9.298   3.923  68.153  1.00  0.00    -0.223 C  
HETATM   24  C   UNL     1      -7.852   4.050  68.677  1.00  0.00    -0.068 C  
HETATM   25  C   UNL     1     -10.038   5.250  68.223  1.00  0.00    -0.219 C  
HETATM   26  O   UNL     1      -7.038   4.810  67.779  1.00  0.00    -0.060 OA 
HETATM   27  C   UNL     1      -7.804   4.679  70.068  1.00  0.00    -0.060 C  
HETATM   28  H   UNL     1      -6.148   4.888  68.101  1.00  0.00     0.000 HD 
HETATM   29  C   UNL     1      -8.546   6.016  70.110  1.00  0.00    -0.135 C  
HETATM   30  C   UNL     1      -9.953   5.894  69.531  1.00  0.00    -0.238 C  
HETATM   31  O   UNL     1      -8.580   6.478  71.461  1.00  0.00    -0.128 OA 
HETATM   32  C   UNL     1     -11.069   6.272  70.192  1.00  0.00    -0.443 C  
HETATM   33  H   UNL     1      -9.041   7.309  71.488  1.00  0.00     0.000 HD 
ENDBRANCH  14  22
TORSDOF 3
ENDMDL
MODEL       65
REMARK 921   NORMALIZED FREE ENERGY PREDICTED BY IDOCK:   -5.70 KCAL/MOL
REMARK 922        TOTAL FREE ENERGY PREDICTED BY IDOCK:   -7.66 KCAL/MOL
REMARK 923 INTER-LIGAND FREE ENERGY PREDICTED BY IDOCK:   -6.20 KCAL/MOL
REMARK 924 INTRA-LIGAND FREE ENERGY PREDICTED BY IDOCK:   -1.46 KCAL/MOL
REMARK 927      BINDING AFFINITY PREDICTED BY RF-SCORE:    0.00 PKD
ROOT
HETATM    1  C   UNL     1     -12.073  11.458  70.717  1.00  0.00    -0.433 C  
HETATM    2  C   UNL     1     -11.261  10.790  69.598  1.00  0.00    -0.355 C  
HETATM    3  C   UNL     1     -11.475  11.601  68.280  1.00  0.00    -0.369 C  
HETATM    4  C   UNL     1     -11.507   9.219  69.346  1.00  0.00     0.246 C  
HETATM    5  C   UNL     1      -9.747   6.200  72.121  1.00  0.00    -0.168 C  
HETATM    6  C   UNL     1     -10.461   8.739  68.344  1.00  0.00    -0.220 C  
HETATM    7  C   UNL     1      -9.207   8.573  69.183  1.00  0.00    -0.150 C  
HETATM    8  C   UNL     1     -11.593   6.700  70.362  1.00  0.00    -0.457 C  
HETATM    9  C   UNL     1     -11.242   8.216  70.557  1.00  0.00    -0.249 C  
HETATM   10  C   UNL     1      -9.651   8.272  70.658  1.00  0.00    -0.190 C  
HETATM   11  C   UNL     1     -12.140   8.634  71.745  1.00  0.00    -0.403 C  
HETATM   12  C   UNL     1      -8.944   6.989  71.137  1.00  0.00    -0.146 C  
HETATM   13  C   UNL     1     -11.136   5.854  71.590  1.00  0.00    -0.319 C  
HETATM   14  C   UNL     1      -7.753   6.588  70.636  1.00  0.00    -0.105 C  
ENDROOT
BRANCH   3  15
HETATM   15  C   UNL     1     -11.374  13.131  68.387  1.00  0.00    -0.324 C  
BRANCH  15  16
HETATM   16  C   UNL     1     -10.781  13.795  67.137  1.00  0.00    -0.283 C  
HETATM   17  O   UNL     1      -9.590  15.621  66.139  1.00  0.00    -0.276 OA 
HETATM   18  C   UNL     1      -8.848  14.988  68.298  1.00  0.00    -0.172 C  
HETATM   19  C   UNL     1     -11.035  16.184  67.958  1.00  0.00    -0.338 C  
HETATM   20  C   UNL     1     -10.074  15.139  67.396  1.00  0.00    -0.229 C  
HETATM   21  H   UNL     1      -9.153  16.450  66.299  1.00  0.00     0.000 HD 
ENDBRANCH  15  16
ENDBRANCH   3  15
BRANCH  14  22
HETATM   22  C   UNL     1      -7.257   5.223  70.549  1.00  0.00    -0.065 C  
HETATM   23  C   UNL     1      -7.417   2.829  69.831  1.00  0.00    -0.044 C  
HETATM   24  C   UNL     1      -8.729   2.041  69.637  1.00  0.00    -0.063 C  
HETATM   25  C   UNL     1      -7.622   4.320  69.612  1.00  0.00    -0.054 C  
HETATM   26  O   UNL     1      -9.654   2.301  70.698  1.00  0.00    -0.135 OA 
HETATM   27  C   UNL     1      -9.390   2.355  68.296  1.00  0.00    -0.265 C  
HETATM   28  H   UNL     1     -10.461   1.815  70.579  1.00  0.00     0.000 HD 
HETATM   29  C   UNL     1      -9.593   3.859  68.104  1.00  0.00    -0.120 C  
HETATM   30  C   UNL     1      -8.304   4.635  68.359  1.00  0.00    -0.091 C  
HETATM   31  O   UNL     1     -10.083   4.089  66.782  1.00  0.00    -0.333 OA 
HETATM   32  C   UNL     1      -7.764   5.500  67.473  1.00  0.00    -0.096 C  
HETATM   33  H   UNL     1     -10.209   5.023  66.662  1.00  0.00     0.000 HD 
ENDBRANCH  14  22
TORSDOF 3
ENDMDL
MODEL       66
REMARK 921   NORMALIZED FREE ENERGY PREDICTED BY IDOCK:   -5.70 KCAL/MOL
REMARK 922        TOTAL FREE ENERGY PREDICTED BY IDOCK:   -7.66 KCAL/MOL
REMARK 923 INTER-LIGAND FREE ENERGY PREDICTED BY IDOCK:   -6.80 KCAL/MOL
REMARK 924 INTRA-LIGAND FREE ENERGY PREDICTED BY IDOCK:   -0.86 KCAL/MOL
REMARK 927      BINDING AFFINITY PREDICTED BY RF-SCORE:    0.00 PKD
ROOT
HETATM    1  C   UNL     1      -8.647   6.732  69.431  1.00  0.00    -0.132 C  
HETATM    2  C   UNL     1      -9.743   7.667  68.900  1.00  0.00    -0.156 C  
HETATM    3  C   UNL     1     -11.110   6.915  68.969  1.00  0.00    -0.188 C  
HETATM    4  C   UNL     1      -9.520   8.312  67.442  1.00  0.00    -0.188 C  
HETATM    5  C   UNL     1      -6.672  11.704  66.902  1.00  0.00    -0.124 C  
HETATM    6  C   UNL     1     -10.618   9.348  67.217  1.00  0.00    -0.314 C  
HETATM    7  C   UNL     1     -10.139  10.555  68.002  1.00  0.00    -0.190 C  
HETATM    8  C   UNL     1      -7.926   9.734  65.762  1.00  0.00    -0.116 C  
HETATM    9  C   UNL     1      -8.218   9.202  67.208  1.00  0.00    -0.114 C  
HETATM   10  C   UNL     1      -8.573  10.496  68.071  1.00  0.00    -0.121 C  
HETATM   11  C   UNL     1      -6.972   8.340  67.523  1.00  0.00    -0.075 C  
HETATM   12  C   UNL     1      -8.002  11.837  67.572  1.00  0.00    -0.148 C  
HETATM   13  C   UNL     1      -6.700  10.697  65.753  1.00  0.00    -0.097 C  
HETATM   14  C   UNL     1      -8.693  12.997  67.661  1.00  0.00    -0.189 C  
ENDROOT
BRANCH   3  15
HETATM   15  C   UNL     1     -11.419   6.160  70.271  1.00  0.00    -0.357 C  
BRANCH  15  16
HETATM   16  C   UNL     1     -12.338   6.934  71.226  1.00  0.00    -0.422 C  
HETATM   17  O   UNL     1     -12.601   8.319  73.165  1.00  0.00    -0.627 OA 
HETATM   18  C   UNL     1     -10.667   8.753  71.867  1.00  0.00    -0.429 C  
HETATM   19  C   UNL     1     -10.864   6.680  73.277  1.00  0.00    -0.290 C  
HETATM   20  C   UNL     1     -11.609   7.660  72.373  1.00  0.00    -0.336 C  
HETATM   21  H   UNL     1     -12.151   8.767  73.873  1.00  0.00     0.000 HD 
ENDBRANCH  15  16
ENDBRANCH   3  15
BRANCH  14  22
HETATM   22  C   UNL     1      -8.571  14.155  66.789  1.00  0.00    -0.097 C  
HETATM   23  C   UNL     1      -8.180  16.590  66.349  1.00  0.00    -0.364 C  
HETATM   24  C   UNL     1      -8.524  17.739  67.319  1.00  0.00    -0.231 C  
HETATM   25  C   UNL     1      -7.905  15.292  67.092  1.00  0.00    -0.249 C  
HETATM   26  O   UNL     1      -9.808  17.545  67.920  1.00  0.00    -0.274 OA 
HETATM   27  C   UNL     1      -7.468  17.897  68.411  1.00  0.00    -0.272 C  
HETATM   28  H   UNL     1     -10.020  18.253  68.517  1.00  0.00     0.000 HD 
HETATM   29  C   UNL     1      -7.216  16.581  69.150  1.00  0.00    -0.226 C  
HETATM   30  C   UNL     1      -6.939  15.438  68.178  1.00  0.00    -0.131 C  
HETATM   31  O   UNL     1      -6.127  16.766  70.056  1.00  0.00    -0.225 OA 
HETATM   32  C   UNL     1      -5.844  14.649  68.244  1.00  0.00    -0.116 C  
HETATM   33  H   UNL     1      -5.971  15.949  70.515  1.00  0.00     0.000 HD 
ENDBRANCH  14  22
TORSDOF 3
ENDMDL
MODEL       67
REMARK 921   NORMALIZED FREE ENERGY PREDICTED BY IDOCK:   -5.68 KCAL/MOL
REMARK 922        TOTAL FREE ENERGY PREDICTED BY IDOCK:   -7.64 KCAL/MOL
REMARK 923 INTER-LIGAND FREE ENERGY PREDICTED BY IDOCK:   -5.94 KCAL/MOL
REMARK 924 INTRA-LIGAND FREE ENERGY PREDICTED BY IDOCK:   -1.70 KCAL/MOL
REMARK 927      BINDING AFFINITY PREDICTED BY RF-SCORE:    0.00 PKD
ROOT
HETATM    1  C   UNL     1     -11.879   9.529  70.984  1.00  0.00    -0.408 C  
HETATM    2  C   UNL     1     -10.519   8.860  70.734  1.00  0.00    -0.283 C  
HETATM    3  C   UNL     1      -9.888   8.494  72.116  1.00  0.00    -0.388 C  
HETATM    4  C   UNL     1      -9.463   9.655  69.817  1.00  0.00    -0.242 C  
HETATM    5  C   UNL     1      -9.976   9.762  65.385  1.00  0.00    -0.302 C  
HETATM    6  C   UNL     1      -8.287   8.721  69.544  1.00  0.00    -0.119 C  
HETATM    7  C   UNL     1      -8.800   7.809  68.444  1.00  0.00    -0.130 C  
HETATM    8  C   UNL     1      -8.927  10.910  67.467  1.00  0.00    -0.136 C  
HETATM    9  C   UNL     1      -9.897  10.031  68.330  1.00  0.00    -0.163 C  
HETATM   10  C   UNL     1      -9.893   8.594  67.637  1.00  0.00    -0.229 C  
HETATM   11  C   UNL     1     -11.182  10.890  68.396  1.00  0.00    -0.347 C  
HETATM   12  C   UNL     1      -9.532   8.549  66.139  1.00  0.00    -0.286 C  
HETATM   13  C   UNL     1      -9.447  11.055  66.004  1.00  0.00    -0.235 C  
HETATM   14  C   UNL     1      -8.806   7.544  65.599  1.00  0.00    -0.072 C  
ENDROOT
BRANCH   3  15
HETATM   15  C   UNL     1     -10.811   7.819  73.141  1.00  0.00    -0.401 C  
BRANCH  15  16
HETATM   16  C   UNL     1     -10.113   6.738  73.977  1.00  0.00    -0.389 C  
HETATM   17  O   UNL     1      -9.507   4.439  74.285  1.00  0.00    -0.108 OA 
HETATM   18  C   UNL     1      -9.480   5.201  72.042  1.00  0.00    -0.182 C  
HETATM   19  C   UNL     1     -11.639   4.834  73.279  1.00  0.00    -0.286 C  
HETATM   20  C   UNL     1     -10.195   5.316  73.389  1.00  0.00    -0.192 C  
HETATM   21  H   UNL     1      -9.558   3.562  73.922  1.00  0.00     0.000 HD 
ENDBRANCH  15  16
ENDBRANCH   3  15
BRANCH  14  22
HETATM   22  C   UNL     1      -7.944   7.621  64.429  1.00  0.00    -0.123 C  
HETATM   23  C   UNL     1      -6.274   8.765  62.955  1.00  0.00    -0.090 C  
HETATM   24  C   UNL     1      -6.139  10.292  62.775  1.00  0.00    -0.139 C  
HETATM   25  C   UNL     1      -6.853   8.410  64.315  1.00  0.00    -0.066 C  
HETATM   26  O   UNL     1      -7.421  10.915  62.646  1.00  0.00    -0.344 OA 
HETATM   27  C   UNL     1      -5.372  10.936  63.928  1.00  0.00     0.034 C  
HETATM   28  H   UNL     1      -7.338  11.855  62.535  1.00  0.00     0.000 HD 
HETATM   29  C   UNL     1      -5.979  10.571  65.285  1.00  0.00    -0.124 C  
HETATM   30  C   UNL     1      -6.166   9.063  65.427  1.00  0.00    -0.063 C  
HETATM   31  O   UNL     1      -5.137  11.088  66.317  1.00  0.00    -0.083 OA 
HETATM   32  C   UNL     1      -5.673   8.342  66.458  1.00  0.00    -0.043 C  
HETATM   33  H   UNL     1      -5.514  10.862  67.159  1.00  0.00     0.000 HD 
ENDBRANCH  14  22
TORSDOF 3
ENDMDL
MODEL       68
REMARK 921   NORMALIZED FREE ENERGY PREDICTED BY IDOCK:   -5.65 KCAL/MOL
REMARK 922        TOTAL FREE ENERGY PREDICTED BY IDOCK:   -7.61 KCAL/MOL
REMARK 923 INTER-LIGAND FREE ENERGY PREDICTED BY IDOCK:   -6.02 KCAL/MOL
REMARK 924 INTRA-LIGAND FREE ENERGY PREDICTED BY IDOCK:   -1.59 KCAL/MOL
REMARK 927      BINDING AFFINITY PREDICTED BY RF-SCORE:    0.00 PKD
ROOT
HETATM    1  C   UNL     1     -10.775   7.972  67.062  1.00  0.00    -0.263 C  
HETATM    2  C   UNL     1     -10.482   8.953  68.206  1.00  0.00    -0.243 C  
HETATM    3  C   UNL     1     -10.848   8.259  69.557  1.00  0.00    -0.124 C  
HETATM    4  C   UNL     1     -11.152  10.413  68.115  1.00  0.00    -0.344 C  
HETATM    5  C   UNL     1      -9.472  13.484  65.347  1.00  0.00     0.232 C  
HETATM    6  C   UNL     1     -10.565  11.267  69.235  1.00  0.00    -0.187 C  
HETATM    7  C   UNL     1      -9.206  11.679  68.698  1.00  0.00    -0.112 C  
HETATM    8  C   UNL     1     -11.554  12.688  66.683  1.00  0.00    -0.443 C  
HETATM    9  C   UNL     1     -10.814  11.314  66.844  1.00  0.00    -0.333 C  
HETATM   10  C   UNL     1      -9.289  11.688  67.132  1.00  0.00    -0.178 C  
HETATM   11  C   UNL     1     -11.228  10.541  65.570  1.00  0.00     0.630 C  
HETATM   12  C   UNL     1      -8.803  13.056  66.615  1.00  0.00    -0.083 C  
HETATM   13  C   UNL     1     -10.994  13.490  65.468  1.00  0.00    -0.295 C  
HETATM   14  C   UNL     1      -7.925  13.820  67.304  1.00  0.00    -0.135 C  
ENDROOT
BRANCH   3  15
HETATM   15  C   UNL     1     -10.362   6.814  69.746  1.00  0.00    -0.226 C  
BRANCH  15  16
HETATM   16  C   UNL     1     -11.216   6.004  70.730  1.00  0.00    -0.340 C  
HETATM   17  O   UNL     1     -11.574   5.167  72.948  1.00  0.00    -0.298 OA 
HETATM   18  C   UNL     1     -10.644   7.342  72.825  1.00  0.00    -0.345 C  
HETATM   19  C   UNL     1      -9.296   5.302  72.235  1.00  0.00    -0.160 C  
HETATM   20  C   UNL     1     -10.673   5.960  72.171  1.00  0.00    -0.231 C  
HETATM   21  H   UNL     1     -11.238   5.140  73.837  1.00  0.00     0.000 HD 
ENDBRANCH  15  16
ENDBRANCH   3  15
BRANCH  14  22
HETATM   22  C   UNL     1      -7.811  15.269  67.266  1.00  0.00    -0.240 C  
HETATM   23  C   UNL     1      -8.762  17.587  67.243  1.00  0.00    -0.236 C  
HETATM   24  C   UNL     1     -10.131  17.984  66.652  1.00  0.00    -0.372 C  
HETATM   25  C   UNL     1      -8.750  16.137  67.704  1.00  0.00    -0.184 C  
HETATM   26  O   UNL     1     -10.359  17.344  65.393  1.00  0.00    -0.631 OA 
HETATM   27  C   UNL     1     -11.279  17.659  67.606  1.00  0.00     0.248 C  
HETATM   28  H   UNL     1     -11.202  17.589  65.029  1.00  0.00     0.000 HD 
HETATM   29  C   UNL     1     -11.250  16.194  68.048  1.00  0.00    -0.291 C  
HETATM   30  C   UNL     1      -9.874  15.795  68.572  1.00  0.00    -0.209 C  
HETATM   31  O   UNL     1     -12.260  15.996  69.038  1.00  0.00    -0.461 OA 
HETATM   32  C   UNL     1      -9.669  15.234  69.784  1.00  0.00    -0.167 C  
HETATM   33  H   UNL     1     -12.242  15.086  69.313  1.00  0.00     0.000 HD 
ENDBRANCH  14  22
TORSDOF 3
ENDMDL
MODEL       69
REMARK 921   NORMALIZED FREE ENERGY PREDICTED BY IDOCK:   -5.59 KCAL/MOL
REMARK 922        TOTAL FREE ENERGY PREDICTED BY IDOCK:   -7.53 KCAL/MOL
REMARK 923 INTER-LIGAND FREE ENERGY PREDICTED BY IDOCK:   -5.98 KCAL/MOL
REMARK 924 INTRA-LIGAND FREE ENERGY PREDICTED BY IDOCK:   -1.55 KCAL/MOL
REMARK 927      BINDING AFFINITY PREDICTED BY RF-SCORE:    0.00 PKD
ROOT
HETATM    1  C   UNL     1     -11.444  14.553  66.813  1.00  0.00    -0.376 C  
HETATM    2  C   UNL     1     -10.932  13.662  67.956  1.00  0.00    -0.270 C  
HETATM    3  C   UNL     1     -10.830  14.530  69.250  1.00  0.00    -0.270 C  
HETATM    4  C   UNL     1      -9.565  12.852  67.702  1.00  0.00    -0.196 C  
HETATM    5  C   UNL     1      -9.566   9.194  65.147  1.00  0.00     0.000 C  
HETATM    6  C   UNL     1      -9.368  11.894  68.875  1.00  0.00     0.117 C  
HETATM    7  C   UNL     1     -10.300  10.740  68.557  1.00  0.00    -0.202 C  
HETATM    8  C   UNL     1      -8.151  11.131  66.145  1.00  0.00    -0.111 C  
HETATM    9  C   UNL     1      -9.513  11.836  66.475  1.00  0.00    -0.225 C  
HETATM   10  C   UNL     1     -10.473  10.674  66.999  1.00  0.00    -0.295 C  
HETATM   11  C   UNL     1      -9.827  12.618  65.178  1.00  0.00    -0.112 C  
HETATM   12  C   UNL     1     -10.151   9.244  66.523  1.00  0.00    -0.343 C  
HETATM   13  C   UNL     1      -8.325  10.073  65.013  1.00  0.00    -0.158 C  
HETATM   14  C   UNL     1     -10.306   8.163  67.321  1.00  0.00    -0.373 C  
ENDROOT
BRANCH   3  15
HETATM   15  C   UNL     1     -12.026  15.441  69.569  1.00  0.00    -0.358 C  
BRANCH  15  16
HETATM   16  C   UNL     1     -11.992  16.024  70.987  1.00  0.00    -0.407 C  
HETATM   17  O   UNL     1     -12.789  15.996  73.249  1.00  0.00    -0.472 OA 
HETATM   18  C   UNL     1     -12.564  13.870  72.229  1.00  0.00    -0.223 C  
HETATM   19  C   UNL     1     -14.398  15.458  71.565  1.00  0.00    -0.572 C  
HETATM   20  C   UNL     1     -12.937  15.334  71.990  1.00  0.00    -0.370 C  
HETATM   21  H   UNL     1     -13.372  15.570  73.867  1.00  0.00     0.000 HD 
ENDBRANCH  15  16
ENDBRANCH   3  15
BRANCH  14  22
HETATM   22  C   UNL     1      -9.564   6.913  67.251  1.00  0.00    -0.173 C  
HETATM   23  C   UNL     1      -7.504   5.558  66.813  1.00  0.00    -0.087 C  
HETATM   24  C   UNL     1      -6.399   5.916  65.797  1.00  0.00    -0.042 C  
HETATM   25  C   UNL     1      -8.219   6.799  67.323  1.00  0.00    -0.121 C  
HETATM   26  O   UNL     1      -6.958   6.378  64.563  1.00  0.00    -0.045 OA 
HETATM   27  C   UNL     1      -5.437   6.966  66.347  1.00  0.00    -0.022 C  
HETATM   28  H   UNL     1      -6.278   6.597  63.937  1.00  0.00     0.000 HD 
HETATM   29  C   UNL     1      -6.180   8.208  66.845  1.00  0.00    -0.055 C  
HETATM   30  C   UNL     1      -7.310   7.839  67.801  1.00  0.00    -0.095 C  
HETATM   31  O   UNL     1      -5.240   9.084  67.468  1.00  0.00    -0.033 OA 
HETATM   32  C   UNL     1      -7.442   8.360  69.040  1.00  0.00    -0.093 C  
HETATM   33  H   UNL     1      -5.700   9.856  67.777  1.00  0.00     0.000 HD 
ENDBRANCH  14  22
TORSDOF 3
ENDMDL
MODEL       70
REMARK 921   NORMALIZED FREE ENERGY PREDICTED BY IDOCK:   -5.57 KCAL/MOL
REMARK 922        TOTAL FREE ENERGY PREDICTED BY IDOCK:   -7.51 KCAL/MOL
REMARK 923 INTER-LIGAND FREE ENERGY PREDICTED BY IDOCK:   -5.97 KCAL/MOL
REMARK 924 INTRA-LIGAND FREE ENERGY PREDICTED BY IDOCK:   -1.54 KCAL/MOL
REMARK 927      BINDING AFFINITY PREDICTED BY RF-SCORE:    0.00 PKD
ROOT
HETATM    1  C   UNL     1     -11.711  12.406  68.241  1.00  0.00    -0.398 C  
HETATM    2  C   UNL     1     -10.188  12.589  68.176  1.00  0.00    -0.231 C  
HETATM    3  C   UNL     1      -9.511  11.293  68.726  1.00  0.00    -0.147 C  
HETATM    4  C   UNL     1      -9.572  13.898  68.881  1.00  0.00     0.021 C  
HETATM    5  C   UNL     1      -9.913  17.883  66.903  1.00  0.00    -0.335 C  
HETATM    6  C   UNL     1      -8.092  13.971  68.516  1.00  0.00    -0.139 C  
HETATM    7  C   UNL     1      -8.096  14.535  67.107  1.00  0.00    -0.196 C  
HETATM    8  C   UNL     1      -9.574  16.603  69.139  1.00  0.00    -0.208 C  
HETATM    9  C   UNL     1     -10.074  15.325  68.379  1.00  0.00    -0.220 C  
HETATM   10  C   UNL     1      -9.395  15.398  66.937  1.00  0.00    -0.255 C  
HETATM   11  C   UNL     1     -11.610  15.393  68.552  1.00  0.00    -0.373 C  
HETATM   12  C   UNL     1      -8.998  16.799  66.431  1.00  0.00    -0.325 C  
HETATM   13  C   UNL     1     -10.049  17.905  68.424  1.00  0.00    -0.385 C  
HETATM   14  C   UNL     1      -7.876  17.015  65.706  1.00  0.00     0.324 C  
ENDROOT
BRANCH   3  15
HETATM   15  C   UNL     1     -10.067   9.953  68.218  1.00  0.00    -0.185 C  
BRANCH  15  16
HETATM   16  C   UNL     1      -9.200   8.746  68.599  1.00  0.00    -0.141 C  
HETATM   17  O   UNL     1      -8.735   6.930  70.094  1.00  0.00    -0.139 OA 
HETATM   18  C   UNL     1     -11.033   7.389  69.742  1.00  0.00    -0.215 C  
HETATM   19  C   UNL     1      -9.579   8.926  71.103  1.00  0.00    -0.342 C  
HETATM   20  C   UNL     1      -9.644   8.013  69.880  1.00  0.00    -0.171 C  
HETATM   21  H   UNL     1      -9.009   6.478  70.884  1.00  0.00     0.000 HD 
ENDBRANCH  15  16
ENDBRANCH   3  15
BRANCH  14  22
HETATM   22  C   UNL     1      -7.100  18.244  65.646  1.00  0.00    -0.190 C  
HETATM   23  C   UNL     1      -5.994  20.242  66.676  1.00  0.00    -0.204 C  
HETATM   24  C   UNL     1      -6.468  20.964  67.955  1.00  0.00    -0.332 C  
HETATM   25  C   UNL     1      -6.404  18.778  66.675  1.00  0.00    -0.206 C  
HETATM   26  O   UNL     1      -7.889  21.126  67.964  1.00  0.00     0.170 OA 
HETATM   27  C   UNL     1      -6.029  20.229  69.219  1.00  0.00    -0.372 C  
HETATM   28  H   UNL     1      -8.181  21.571  68.752  1.00  0.00     0.000 HD 
HETATM   29  C   UNL     1      -6.461  18.761  69.199  1.00  0.00    -0.276 C  
HETATM   30  C   UNL     1      -6.042  18.073  67.903  1.00  0.00    -0.162 C  
HETATM   31  O   UNL     1      -5.902  18.104  70.337  1.00  0.00    -0.207 OA 
HETATM   32  C   UNL     1      -5.318  16.933  67.861  1.00  0.00    -0.128 C  
HETATM   33  H   UNL     1      -6.169  17.192  70.325  1.00  0.00     0.000 HD 
ENDBRANCH  14  22
TORSDOF 3
ENDMDL
MODEL       71
REMARK 921   NORMALIZED FREE ENERGY PREDICTED BY IDOCK:   -5.57 KCAL/MOL
REMARK 922        TOTAL FREE ENERGY PREDICTED BY IDOCK:   -7.51 KCAL/MOL
REMARK 923 INTER-LIGAND FREE ENERGY PREDICTED BY IDOCK:   -6.82 KCAL/MOL
REMARK 924 INTRA-LIGAND FREE ENERGY PREDICTED BY IDOCK:   -0.69 KCAL/MOL
REMARK 927      BINDING AFFINITY PREDICTED BY RF-SCORE:    0.00 PKD
ROOT
HETATM    1  C   UNL     1      -9.524  10.127  62.906  1.00  0.00    -0.288 C  
HETATM    2  C   UNL     1      -9.127  10.369  64.370  1.00  0.00    -0.267 C  
HETATM    3  C   UNL     1      -8.417   9.086  64.908  1.00  0.00    -0.195 C  
HETATM    4  C   UNL     1     -10.287  10.844  65.380  1.00  0.00    -0.326 C  
HETATM    5  C   UNL     1     -11.735  15.064  65.306  1.00  0.00    -0.200 C  
HETATM    6  C   UNL     1      -9.627  11.214  66.706  1.00  0.00    -0.215 C  
HETATM    7  C   UNL     1      -9.059  12.598  66.451  1.00  0.00    -0.114 C  
HETATM    8  C   UNL     1     -12.275  12.606  65.953  1.00  0.00    -0.375 C  
HETATM    9  C   UNL     1     -11.063  12.196  65.045  1.00  0.00    -0.368 C  
HETATM   10  C   UNL     1      -9.930  13.280  65.339  1.00  0.00    -0.205 C  
HETATM   11  C   UNL     1     -11.705  12.059  63.644  1.00  0.00    -0.587 C  
HETATM   12  C   UNL     1     -10.404  14.654  65.851  1.00  0.00    -0.334 C  
HETATM   13  C   UNL     1     -12.815  14.017  65.567  1.00  0.00    -0.453 C  
HETATM   14  C   UNL     1      -9.711  15.362  66.772  1.00  0.00    -0.254 C  
ENDROOT
BRANCH   3  15
HETATM   15  C   UNL     1      -7.351   8.453  63.999  1.00  0.00    -0.105 C  
BRANCH  15  16
HETATM   16  C   UNL     1      -6.623   7.266  64.642  1.00  0.00    -0.043 C  
HETATM   17  O   UNL     1      -6.193   4.908  64.723  1.00  0.00    -0.031 OA 
HETATM   18  C   UNL     1      -6.483   5.810  62.552  1.00  0.00    -0.025 C  
HETATM   19  C   UNL     1      -8.420   5.546  64.134  1.00  0.00    -0.053 C  
HETATM   20  C   UNL     1      -6.939   5.897  64.009  1.00  0.00    -0.050 C  
HETATM   21  H   UNL     1      -6.388   4.064  64.333  1.00  0.00     0.000 HD 
ENDBRANCH  15  16
ENDBRANCH   3  15
BRANCH  14  22
HETATM   22  C   UNL     1     -10.252  16.318  67.726  1.00  0.00    -0.270 C  
HETATM   23  C   UNL     1     -10.384  18.581  68.791  1.00  0.00    -0.210 C  
HETATM   24  C   UNL     1      -9.212  19.576  68.924  1.00  0.00    -0.312 C  
HETATM   25  C   UNL     1     -10.207  17.663  67.592  1.00  0.00    -0.351 C  
HETATM   26  O   UNL     1      -8.009  18.911  69.323  1.00  0.00    -0.142 OA 
HETATM   27  C   UNL     1      -8.965  20.341  67.625  1.00  0.00    -0.393 C  
HETATM   28  H   UNL     1      -7.287  19.523  69.405  1.00  0.00     0.000 HD 
HETATM   29  C   UNL     1      -8.780  19.395  66.437  1.00  0.00    -0.355 C  
HETATM   30  C   UNL     1      -9.913  18.376  66.352  1.00  0.00    -0.399 C  
HETATM   31  O   UNL     1      -8.693  20.174  65.242  1.00  0.00    -0.292 OA 
HETATM   32  C   UNL     1     -10.662  18.182  65.245  1.00  0.00     0.390 C  
HETATM   33  H   UNL     1      -8.579  19.587  64.504  1.00  0.00     0.000 HD 
ENDBRANCH  14  22
TORSDOF 3
ENDMDL
MODEL       72
REMARK 921   NORMALIZED FREE ENERGY PREDICTED BY IDOCK:   -5.48 KCAL/MOL
REMARK 922        TOTAL FREE ENERGY PREDICTED BY IDOCK:   -7.41 KCAL/MOL
REMARK 923 INTER-LIGAND FREE ENERGY PREDICTED BY IDOCK:   -6.51 KCAL/MOL
REMARK 924 INTRA-LIGAND FREE ENERGY PREDICTED BY IDOCK:   -0.90 KCAL/MOL
REMARK 927      BINDING AFFINITY PREDICTED BY RF-SCORE:    0.00 PKD
ROOT
HETATM    1  C   UNL     1     -13.151  11.935  70.265  1.00  0.00     0.580 C  
HETATM    2  C   UNL     1     -12.029  10.936  69.945  1.00  0.00    -0.430 C  
HETATM    3  C   UNL     1     -11.717  10.114  71.236  1.00  0.00    -0.426 C  
HETATM    4  C   UNL     1     -10.677  11.528  69.305  1.00  0.00    -0.171 C  
HETATM    5  C   UNL     1     -10.558  12.700  65.001  1.00  0.00    -0.329 C  
HETATM    6  C   UNL     1      -9.803  10.348  68.889  1.00  0.00    -0.206 C  
HETATM    7  C   UNL     1     -10.415   9.891  67.578  1.00  0.00    -0.310 C  
HETATM    8  C   UNL     1      -9.496  13.004  67.352  1.00  0.00    -0.210 C  
HETATM    9  C   UNL     1     -10.785  12.319  67.925  1.00  0.00    -0.243 C  
HETATM   10  C   UNL     1     -11.114  11.128  66.915  1.00  0.00    -0.313 C  
HETATM   11  C   UNL     1     -11.758  13.507  68.116  1.00  0.00    -0.396 C  
HETATM   12  C   UNL     1     -10.593  11.281  65.473  1.00  0.00    -0.306 C  
HETATM   13  C   UNL     1      -9.757  13.603  65.936  1.00  0.00    -0.206 C  
HETATM   14  C   UNL     1     -10.131  10.232  64.755  1.00  0.00    -0.336 C  
ENDROOT
BRANCH   3  15
HETATM   15  C   UNL     1     -12.923   9.570  72.018  1.00  0.00    -0.514 C  
BRANCH  15  16
HETATM   16  C   UNL     1     -12.647   8.232  72.717  1.00  0.00    -0.053 C  
HETATM   17  O   UNL     1     -12.551   5.838  72.626  1.00  0.00    -0.499 OA 
HETATM   18  C   UNL     1     -11.858   6.954  70.655  1.00  0.00    -0.418 C  
HETATM   19  C   UNL     1     -14.279   6.867  71.332  1.00  0.00    -0.250 C  
HETATM   20  C   UNL     1     -12.839   6.989  71.827  1.00  0.00    -0.324 C  
HETATM   21  H   UNL     1     -12.670   5.071  72.077  1.00  0.00     0.000 HD 
ENDBRANCH  15  16
ENDBRANCH   3  15
BRANCH  14  22
HETATM   22  C   UNL     1      -9.142  10.271  63.689  1.00  0.00    -0.284 C  
HETATM   23  C   UNL     1      -6.833   9.956  62.769  1.00  0.00    -0.120 C  
HETATM   24  C   UNL     1      -5.524  10.099  63.574  1.00  0.00    -0.123 C  
HETATM   25  C   UNL     1      -7.997   9.552  63.660  1.00  0.00    -0.141 C  
HETATM   26  O   UNL     1      -5.563  11.245  64.430  1.00  0.00    -0.394 OA 
HETATM   27  C   UNL     1      -5.226   8.852  64.404  1.00  0.00    -0.051 C  
HETATM   28  H   UNL     1      -4.757  11.334  64.925  1.00  0.00     0.000 HD 
HETATM   29  C   UNL     1      -6.409   8.472  65.298  1.00  0.00    -0.052 C  
HETATM   30  C   UNL     1      -7.709   8.394  64.503  1.00  0.00    -0.121 C  
HETATM   31  O   UNL     1      -6.117   7.228  65.937  1.00  0.00    -0.036 OA 
HETATM   32  C   UNL     1      -8.518   7.312  64.497  1.00  0.00     0.174 C  
HETATM   33  H   UNL     1      -6.851   6.991  66.492  1.00  0.00     0.000 HD 
ENDBRANCH  14  22
TORSDOF 3
ENDMDL
MODEL       73
REMARK 921   NORMALIZED FREE ENERGY PREDICTED BY IDOCK:   -5.48 KCAL/MOL
REMARK 922        TOTAL FREE ENERGY PREDICTED BY IDOCK:   -7.40 KCAL/MOL
REMARK 923 INTER-LIGAND FREE ENERGY PREDICTED BY IDOCK:   -6.71 KCAL/MOL
REMARK 924 INTRA-LIGAND FREE ENERGY PREDICTED BY IDOCK:   -0.69 KCAL/MOL
REMARK 927      BINDING AFFINITY PREDICTED BY RF-SCORE:    0.00 PKD
ROOT
HETATM    1  C   UNL     1     -10.862  12.459  64.839  1.00  0.00    -0.333 C  
HETATM    2  C   UNL     1      -9.919  12.595  66.043  1.00  0.00    -0.267 C  
HETATM    3  C   UNL     1      -9.375  14.059  66.081  1.00  0.00    -0.143 C  
HETATM    4  C   UNL     1      -8.713  11.536  66.159  1.00  0.00    -0.131 C  
HETATM    5  C   UNL     1      -9.513   7.368  67.538  1.00  0.00    -0.162 C  
HETATM    6  C   UNL     1      -8.046  11.735  67.517  1.00  0.00    -0.152 C  
HETATM    7  C   UNL     1      -8.977  11.025  68.482  1.00  0.00    -0.163 C  
HETATM    8  C   UNL     1      -7.915   8.939  66.223  1.00  0.00    -0.103 C  
HETATM    9  C   UNL     1      -9.082   9.987  66.232  1.00  0.00    -0.180 C  
HETATM   10  C   UNL     1      -9.721   9.893  67.691  1.00  0.00    -0.183 C  
HETATM   11  C   UNL     1      -9.896   9.616  64.970  1.00  0.00    -0.141 C  
HETATM   12  C   UNL     1      -9.539   8.560  68.442  1.00  0.00    -0.157 C  
HETATM   13  C   UNL     1      -8.454   7.493  66.445  1.00  0.00    -0.131 C  
HETATM   14  C   UNL     1      -9.333   8.503  69.777  1.00  0.00    -0.161 C  
ENDROOT
BRANCH   3  15
HETATM   15  C   UNL     1     -10.402  15.184  65.879  1.00  0.00    -0.344 C  
BRANCH  15  16
HETATM   16  C   UNL     1     -11.530  15.178  66.918  1.00  0.00    -0.215 C  
HETATM   17  O   UNL     1     -12.275  15.605  69.157  1.00  0.00    -0.574 OA 
HETATM   18  C   UNL     1     -10.694  17.150  68.305  1.00  0.00    -0.363 C  
HETATM   19  C   UNL     1     -10.032  14.806  68.934  1.00  0.00    -0.233 C  
HETATM   20  C   UNL     1     -11.121  15.682  68.316  1.00  0.00    -0.336 C  
HETATM   21  H   UNL     1     -12.022  15.915  70.020  1.00  0.00     0.000 HD 
ENDBRANCH  15  16
ENDBRANCH   3  15
BRANCH  14  22
HETATM   22  C   UNL     1      -8.618   7.467  70.507  1.00  0.00    -0.138 C  
HETATM   23  C   UNL     1      -8.364   5.818  72.375  1.00  0.00    -0.118 C  
HETATM   24  C   UNL     1      -8.964   5.971  73.789  1.00  0.00    -0.127 C  
HETATM   25  C   UNL     1      -9.186   6.562  71.334  1.00  0.00    -0.148 C  
HETATM   26  O   UNL     1      -8.801   7.305  74.281  1.00  0.00    -0.199 OA 
HETATM   27  C   UNL     1     -10.443   5.591  73.824  1.00  0.00    -0.302 C  
HETATM   28  H   UNL     1      -9.169   7.399  75.152  1.00  0.00     0.000 HD 
HETATM   29  C   UNL     1     -11.249   6.359  72.774  1.00  0.00    -0.227 C  
HETATM   30  C   UNL     1     -10.613   6.253  71.392  1.00  0.00    -0.284 C  
HETATM   31  O   UNL     1     -12.587   5.858  72.769  1.00  0.00    -0.473 OA 
HETATM   32  C   UNL     1     -11.276   5.829  70.293  1.00  0.00    -0.221 C  
HETATM   33  H   UNL     1     -13.088   6.334  72.117  1.00  0.00     0.000 HD 
ENDBRANCH  14  22
TORSDOF 3
ENDMDL
MODEL       74
REMARK 921   NORMALIZED FREE ENERGY PREDICTED BY IDOCK:   -5.45 KCAL/MOL
REMARK 922        TOTAL FREE ENERGY PREDICTED BY IDOCK:   -7.37 KCAL/MOL
REMARK 923 INTER-LIGAND FREE ENERGY PREDICTED BY IDOCK:   -6.12 KCAL/MOL
REMARK 924 INTRA-LIGAND FREE ENERGY PREDICTED BY IDOCK:   -1.26 KCAL/MOL
REMARK 927      BINDING AFFINITY PREDICTED BY RF-SCORE:    0.00 PKD
ROOT
HETATM    1  C   UNL     1     -11.176  10.242  67.465  1.00  0.00    -0.192 C  
HETATM    2  C   UNL     1     -10.434  11.247  68.358  1.00  0.00    -0.219 C  
HETATM    3  C   UNL     1     -10.368  10.665  69.807  1.00  0.00    -0.146 C  
HETATM    4  C   UNL     1     -10.979  12.761  68.375  1.00  0.00    -0.281 C  
HETATM    5  C   UNL     1     -10.114  15.496  64.958  1.00  0.00    -0.163 C  
HETATM    6  C   UNL     1      -9.978  13.607  69.158  1.00  0.00     0.210 C  
HETATM    7  C   UNL     1      -8.859  13.851  68.163  1.00  0.00    -0.184 C  
HETATM    8  C   UNL     1     -11.668  14.987  66.977  1.00  0.00    -0.199 C  
HETATM    9  C   UNL     1     -11.026  13.555  66.994  1.00  0.00    -0.297 C  
HETATM   10  C   UNL     1      -9.472  13.786  66.720  1.00  0.00    -0.281 C  
HETATM   11  C   UNL     1     -11.911  12.762  66.003  1.00  0.00    -0.495 C  
HETATM   12  C   UNL     1      -9.087  15.069  65.958  1.00  0.00    -0.150 C  
HETATM   13  C   UNL     1     -11.497  15.663  65.582  1.00  0.00     0.116 C  
HETATM   14  C   UNL     1      -7.969  15.774  66.245  1.00  0.00     0.168 C  
ENDROOT
BRANCH   3  15
HETATM   15  C   UNL     1      -9.960   9.190  69.942  1.00  0.00    -0.213 C  
BRANCH  15  16
HETATM   16  C   UNL     1      -8.801   8.787  69.021  1.00  0.00    -0.137 C  
HETATM   17  O   UNL     1      -7.695   7.114  67.707  1.00  0.00    -0.108 OA 
HETATM   18  C   UNL     1     -10.062   7.024  67.677  1.00  0.00    -0.218 C  
HETATM   19  C   UNL     1      -8.748   6.345  69.711  1.00  0.00    -0.138 C  
HETATM   20  C   UNL     1      -8.837   7.323  68.542  1.00  0.00    -0.129 C  
HETATM   21  H   UNL     1      -7.717   6.211  67.412  1.00  0.00     0.000 HD 
ENDBRANCH  15  16
ENDBRANCH   3  15
BRANCH  14  22
HETATM   22  C   UNL     1      -7.763  17.201  66.049  1.00  0.00    -0.193 C  
HETATM   23  C   UNL     1      -8.370  19.611  66.361  1.00  0.00    -0.376 C  
HETATM   24  C   UNL     1      -9.803  20.154  66.546  1.00  0.00    -0.446 C  
HETATM   25  C   UNL     1      -8.248  18.176  66.850  1.00  0.00    -0.258 C  
HETATM   26  O   UNL     1     -10.717  19.527  65.641  1.00  0.00    -0.491 OA 
HETATM   27  C   UNL     1     -10.299  19.975  67.979  1.00  0.00    -0.501 C  
HETATM   28  H   UNL     1     -11.599  19.862  65.755  1.00  0.00     0.000 HD 
HETATM   29  C   UNL     1     -10.174  18.523  68.444  1.00  0.00    -0.372 C  
HETATM   30  C   UNL     1      -8.771  17.976  68.199  1.00  0.00    -0.277 C  
HETATM   31  O   UNL     1     -10.523  18.453  69.828  1.00  0.00    -0.139 OA 
HETATM   32  C   UNL     1      -8.009  17.411  69.163  1.00  0.00    -0.006 C  
HETATM   33  H   UNL     1     -10.446  17.552  70.117  1.00  0.00     0.000 HD 
ENDBRANCH  14  22
TORSDOF 3
ENDMDL
MODEL       75
REMARK 921   NORMALIZED FREE ENERGY PREDICTED BY IDOCK:   -5.45 KCAL/MOL
REMARK 922        TOTAL FREE ENERGY PREDICTED BY IDOCK:   -7.37 KCAL/MOL
REMARK 923 INTER-LIGAND FREE ENERGY PREDICTED BY IDOCK:   -6.52 KCAL/MOL
REMARK 924 INTRA-LIGAND FREE ENERGY PREDICTED BY IDOCK:   -0.85 KCAL/MOL
REMARK 927      BINDING AFFINITY PREDICTED BY RF-SCORE:    0.00 PKD
ROOT
HETATM    1  C   UNL     1      -7.584   5.457  68.933  1.00  0.00    -0.079 C  
HETATM    2  C   UNL     1      -8.958   6.121  68.767  1.00  0.00    -0.123 C  
HETATM    3  C   UNL     1     -10.055   5.110  69.230  1.00  0.00    -0.283 C  
HETATM    4  C   UNL     1      -9.315   6.727  67.320  1.00  0.00    -0.148 C  
HETATM    5  C   UNL     1      -7.530  10.600  66.007  1.00  0.00    -0.137 C  
HETATM    6  C   UNL     1     -10.622   7.504  67.449  1.00  0.00    -0.364 C  
HETATM    7  C   UNL     1     -10.197   8.821  68.074  1.00  0.00    -0.264 C  
HETATM    8  C   UNL     1      -8.622   8.363  65.263  1.00  0.00    -0.177 C  
HETATM    9  C   UNL     1      -8.357   7.852  66.722  1.00  0.00    -0.120 C  
HETATM   10  C   UNL     1      -8.704   9.086  67.671  1.00  0.00    -0.124 C  
HETATM   11  C   UNL     1      -6.922   7.279  66.637  1.00  0.00    -0.073 C  
HETATM   12  C   UNL     1      -8.600  10.491  67.046  1.00  0.00    -0.127 C  
HETATM   13  C   UNL     1      -7.684   9.555  64.904  1.00  0.00    -0.115 C  
HETATM   14  C   UNL     1      -9.462  11.487  67.355  1.00  0.00    -0.171 C  
ENDROOT
BRANCH   3  15
HETATM   15  C   UNL     1      -9.801   4.371  70.553  1.00  0.00    -0.285 C  
BRANCH  15  16
HETATM   16  C   UNL     1      -9.520   5.308  71.734  1.00  0.00    -0.183 C  
HETATM   17  O   UNL     1     -10.305   6.461  73.685  1.00  0.00    -0.235 OA 
HETATM   18  C   UNL     1     -11.220   4.302  73.349  1.00  0.00    -0.361 C  
HETATM   19  C   UNL     1     -11.874   6.247  71.894  1.00  0.00    -0.359 C  
HETATM   20  C   UNL     1     -10.732   5.571  72.650  1.00  0.00    -0.243 C  
HETATM   21  H   UNL     1     -11.052   6.623  74.250  1.00  0.00     0.000 HD 
ENDBRANCH  15  16
ENDBRANCH   3  15
BRANCH  14  22
HETATM   22  C   UNL     1      -9.847  12.603  66.504  1.00  0.00    -0.258 C  
HETATM   23  C   UNL     1     -10.333  15.022  66.074  1.00  0.00    -0.326 C  
HETATM   24  C   UNL     1     -10.887  16.020  67.113  1.00  0.00    -0.239 C  
HETATM   25  C   UNL     1      -9.549  13.900  66.738  1.00  0.00    -0.288 C  
HETATM   26  O   UNL     1     -11.939  15.434  67.886  1.00  0.00    -0.402 OA 
HETATM   27  C   UNL     1      -9.794  16.536  68.046  1.00  0.00    -0.240 C  
HETATM   28  H   UNL     1     -12.281  16.049  68.525  1.00  0.00     0.000 HD 
HETATM   29  C   UNL     1      -9.027  15.389  68.708  1.00  0.00    -0.196 C  
HETATM   30  C   UNL     1      -8.537  14.376  67.678  1.00  0.00    -0.189 C  
HETATM   31  O   UNL     1      -7.938  15.937  69.453  1.00  0.00    -0.232 OA 
HETATM   32  C   UNL     1      -7.248  13.986  67.566  1.00  0.00    -0.183 C  
HETATM   33  H   UNL     1      -7.461  15.226  69.864  1.00  0.00     0.000 HD 
ENDBRANCH  14  22
TORSDOF 3
ENDMDL
MODEL       76
REMARK 921   NORMALIZED FREE ENERGY PREDICTED BY IDOCK:   -5.42 KCAL/MOL
REMARK 922        TOTAL FREE ENERGY PREDICTED BY IDOCK:   -7.33 KCAL/MOL
REMARK 923 INTER-LIGAND FREE ENERGY PREDICTED BY IDOCK:   -5.51 KCAL/MOL
REMARK 924 INTRA-LIGAND FREE ENERGY PREDICTED BY IDOCK:   -1.82 KCAL/MOL
REMARK 927      BINDING AFFINITY PREDICTED BY RF-SCORE:    0.00 PKD
ROOT
HETATM    1  C   UNL     1     -11.201   7.045  71.978  1.00  0.00    -0.288 C  
HETATM    2  C   UNL     1      -9.933   7.648  71.355  1.00  0.00    -0.203 C  
HETATM    3  C   UNL     1      -8.699   7.171  72.186  1.00  0.00    -0.132 C  
HETATM    4  C   UNL     1      -9.900   9.244  71.149  1.00  0.00    -0.342 C  
HETATM    5  C   UNL     1     -12.173  11.121  67.799  1.00  0.00     0.730 C  
HETATM    6  C   UNL     1      -8.651   9.584  70.341  1.00  0.00    -0.246 C  
HETATM    7  C   UNL     1      -9.043   9.246  68.914  1.00  0.00    -0.139 C  
HETATM    8  C   UNL     1     -11.083  11.469  70.132  1.00  0.00     0.153 C  
HETATM    9  C   UNL     1     -11.032   9.905  70.242  1.00  0.00    -0.366 C  
HETATM   10  C   UNL     1     -10.600   9.395  68.794  1.00  0.00    -0.234 C  
HETATM   11  C   UNL     1     -12.412   9.551  70.844  1.00  0.00    -0.277 C  
HETATM   12  C   UNL     1     -10.921  10.326  67.608  1.00  0.00    -0.356 C  
HETATM   13  C   UNL     1     -12.155  11.927  69.097  1.00  0.00    -0.261 C  
HETATM   14  C   UNL     1     -10.090  10.463  66.550  1.00  0.00    -0.285 C  
ENDROOT
BRANCH   3  15
HETATM   15  C   UNL     1      -8.646   5.680  72.551  1.00  0.00    -0.124 C  
BRANCH  15  16
HETATM   16  C   UNL     1      -7.563   4.901  71.793  1.00  0.00    -0.096 C  
HETATM   17  O   UNL     1      -6.971   3.285  70.123  1.00  0.00    -0.033 OA 
HETATM   18  C   UNL     1      -8.834   4.651  69.595  1.00  0.00    -0.121 C  
HETATM   19  C   UNL     1      -8.982   2.845  71.339  1.00  0.00    -0.157 C  
HETATM   20  C   UNL     1      -8.098   3.929  70.724  1.00  0.00    -0.062 C  
HETATM   21  H   UNL     1      -7.302   2.685  69.464  1.00  0.00     0.000 HD 
ENDBRANCH  15  16
ENDBRANCH   3  15
BRANCH  14  22
HETATM   22  C   UNL     1      -9.952  11.630  65.693  1.00  0.00    -0.274 C  
HETATM   23  C   UNL     1      -9.948  14.098  65.261  1.00  0.00    -0.295 C  
HETATM   24  C   UNL     1     -10.786  15.140  66.030  1.00  0.00    -0.335 C  
HETATM   25  C   UNL     1      -9.648  12.877  66.117  1.00  0.00    -0.215 C  
HETATM   26  O   UNL     1     -12.124  14.678  66.243  1.00  0.00    -0.319 OA 
HETATM   27  C   UNL     1     -10.152  15.503  67.372  1.00  0.00    -0.246 C  
HETATM   28  H   UNL     1     -12.639  15.320  66.716  1.00  0.00     0.000 HD 
HETATM   29  C   UNL     1      -9.869  14.260  68.218  1.00  0.00    -0.235 C  
HETATM   30  C   UNL     1      -9.094  13.209  67.427  1.00  0.00    -0.208 C  
HETATM   31  O   UNL     1      -9.154  14.657  69.389  1.00  0.00    -0.393 OA 
HETATM   32  C   UNL     1      -7.931  12.664  67.847  1.00  0.00    -0.156 C  
HETATM   33  H   UNL     1      -8.978  13.886  69.915  1.00  0.00     0.000 HD 
ENDBRANCH  14  22
TORSDOF 3
ENDMDL
MODEL       77
REMARK 921   NORMALIZED FREE ENERGY PREDICTED BY IDOCK:   -5.39 KCAL/MOL
REMARK 922        TOTAL FREE ENERGY PREDICTED BY IDOCK:   -7.30 KCAL/MOL
REMARK 923 INTER-LIGAND FREE ENERGY PREDICTED BY IDOCK:   -5.44 KCAL/MOL
REMARK 924 INTRA-LIGAND FREE ENERGY PREDICTED BY IDOCK:   -1.86 KCAL/MOL
REMARK 927      BINDING AFFINITY PREDICTED BY RF-SCORE:    0.00 PKD
ROOT
HETATM    1  C   UNL     1     -10.648   8.145  66.865  1.00  0.00    -0.311 C  
HETATM    2  C   UNL     1     -10.352   9.071  68.055  1.00  0.00    -0.275 C  
HETATM    3  C   UNL     1     -10.696   8.306  69.373  1.00  0.00    -0.160 C  
HETATM    4  C   UNL     1     -11.039  10.527  68.044  1.00  0.00    -0.361 C  
HETATM    5  C   UNL     1      -9.421  13.751  65.418  1.00  0.00     0.225 C  
HETATM    6  C   UNL     1     -10.448  11.329  69.200  1.00  0.00    -0.191 C  
HETATM    7  C   UNL     1      -9.100  11.783  68.670  1.00  0.00    -0.075 C  
HETATM    8  C   UNL     1     -11.480  12.866  66.733  1.00  0.00    -0.391 C  
HETATM    9  C   UNL     1     -10.724  11.494  66.817  1.00  0.00    -0.311 C  
HETATM   10  C   UNL     1      -9.200  11.869  67.107  1.00  0.00    -0.183 C  
HETATM   11  C   UNL     1     -11.144  10.781  65.510  1.00  0.00     0.164 C  
HETATM   12  C   UNL     1      -8.734  13.267  66.655  1.00  0.00    -0.015 C  
HETATM   13  C   UNL     1     -10.942  13.734  65.555  1.00  0.00    -0.299 C  
HETATM   14  C   UNL     1      -7.856  14.005  67.373  1.00  0.00    -0.188 C  
ENDROOT
BRANCH   3  15
HETATM   15  C   UNL     1     -10.193   6.858  69.484  1.00  0.00    -0.198 C  
BRANCH  15  16
HETATM   16  C   UNL     1      -9.081   6.674  70.525  1.00  0.00    -0.152 C  
HETATM   17  O   UNL     1      -6.744   6.535  71.045  1.00  0.00    -0.052 OA 
HETATM   18  C   UNL     1      -7.313   8.094  69.355  1.00  0.00    -0.076 C  
HETATM   19  C   UNL     1      -7.405   5.615  68.939  1.00  0.00    -0.082 C  
HETATM   20  C   UNL     1      -7.650   6.729  69.955  1.00  0.00    -0.100 C  
HETATM   21  H   UNL     1      -5.862   6.568  70.694  1.00  0.00     0.000 HD 
ENDBRANCH  15  16
ENDBRANCH   3  15
BRANCH  14  22
HETATM   22  C   UNL     1      -7.758  15.456  67.406  1.00  0.00    -0.224 C  
HETATM   23  C   UNL     1      -8.735  17.762  67.473  1.00  0.00    -0.239 C  
HETATM   24  C   UNL     1     -10.094  18.173  66.870  1.00  0.00    -0.357 C  
HETATM   25  C   UNL     1      -8.716  16.292  67.864  1.00  0.00    -0.175 C  
HETATM   26  O   UNL     1     -10.287  17.592  65.577  1.00  0.00    -0.620 OA 
HETATM   27  C   UNL     1     -11.260  17.791  67.781  1.00  0.00     0.267 C  
HETATM   28  H   UNL     1     -11.124  17.845  65.206  1.00  0.00     0.000 HD 
HETATM   29  C   UNL     1     -11.224  16.307  68.152  1.00  0.00    -0.298 C  
HETATM   30  C   UNL     1      -9.856  15.897  68.688  1.00  0.00    -0.212 C  
HETATM   31  O   UNL     1     -12.253  16.050  69.109  1.00  0.00    -0.446 OA 
HETATM   32  C   UNL     1      -9.672  15.280  69.877  1.00  0.00    -0.108 C  
HETATM   33  H   UNL     1     -12.232  15.129  69.340  1.00  0.00     0.000 HD 
ENDBRANCH  14  22
TORSDOF 3
ENDMDL
MODEL       78
REMARK 921   NORMALIZED FREE ENERGY PREDICTED BY IDOCK:   -5.37 KCAL/MOL
REMARK 922        TOTAL FREE ENERGY PREDICTED BY IDOCK:   -7.27 KCAL/MOL
REMARK 923 INTER-LIGAND FREE ENERGY PREDICTED BY IDOCK:   -6.39 KCAL/MOL
REMARK 924 INTRA-LIGAND FREE ENERGY PREDICTED BY IDOCK:   -0.89 KCAL/MOL
REMARK 927      BINDING AFFINITY PREDICTED BY RF-SCORE:    0.00 PKD
ROOT
HETATM    1  C   UNL     1      -8.897   6.866  69.814  1.00  0.00    -0.141 C  
HETATM    2  C   UNL     1      -9.800   8.084  70.052  1.00  0.00    -0.185 C  
HETATM    3  C   UNL     1     -10.787   7.748  71.216  1.00  0.00    -0.255 C  
HETATM    4  C   UNL     1     -10.595   8.672  68.782  1.00  0.00    -0.169 C  
HETATM    5  C   UNL     1      -8.454  11.131  65.736  1.00  0.00    -0.076 C  
HETATM    6  C   UNL     1     -11.254   9.980  69.209  1.00  0.00    -0.213 C  
HETATM    7  C   UNL     1     -10.118  10.986  69.166  1.00  0.00    -0.167 C  
HETATM    8  C   UNL     1     -10.509   9.622  66.237  1.00  0.00    -0.149 C  
HETATM    9  C   UNL     1      -9.744   9.162  67.527  1.00  0.00    -0.204 C  
HETATM   10  C   UNL     1      -9.070  10.484  68.112  1.00  0.00    -0.141 C  
HETATM   11  C   UNL     1      -8.887   7.976  67.022  1.00  0.00    -0.143 C  
HETATM   12  C   UNL     1      -8.791  11.620  67.109  1.00  0.00    -0.172 C  
HETATM   13  C   UNL     1      -9.525  10.199  65.174  1.00  0.00    -0.319 C  
HETATM   14  C   UNL     1      -8.932  12.926  67.435  1.00  0.00    -0.199 C  
ENDROOT
BRANCH   3  15
HETATM   15  C   UNL     1     -10.185   7.083  72.463  1.00  0.00    -0.207 C  
BRANCH  15  16
HETATM   16  C   UNL     1     -11.057   5.961  73.041  1.00  0.00    -0.289 C  
HETATM   17  O   UNL     1     -11.269   3.696  73.799  1.00  0.00    -0.221 OA 
HETATM   18  C   UNL     1      -9.209   4.746  74.312  1.00  0.00    -0.117 C  
HETATM   19  C   UNL     1      -9.779   4.049  71.964  1.00  0.00    -0.232 C  
HETATM   20  C   UNL     1     -10.321   4.626  73.270  1.00  0.00    -0.181 C  
HETATM   21  H   UNL     1     -10.815   2.873  73.940  1.00  0.00     0.000 HD 
ENDBRANCH  15  16
ENDBRANCH   3  15
BRANCH  14  22
HETATM   22  C   UNL     1      -9.254  14.021  66.534  1.00  0.00    -0.240 C  
HETATM   23  C   UNL     1      -9.578  16.444  65.986  1.00  0.00    -0.352 C  
HETATM   24  C   UNL     1     -10.043  17.529  66.979  1.00  0.00    -0.323 C  
HETATM   25  C   UNL     1      -8.862  15.305  66.695  1.00  0.00    -0.328 C  
HETATM   26  O   UNL     1     -11.119  17.059  67.797  1.00  0.00    -0.263 OA 
HETATM   27  C   UNL     1      -8.900  18.014  67.869  1.00  0.00    -0.269 C  
HETATM   28  H   UNL     1     -11.406  17.728  68.408  1.00  0.00     0.000 HD 
HETATM   29  C   UNL     1      -8.202  16.852  68.578  1.00  0.00    -0.249 C  
HETATM   30  C   UNL     1      -7.803  15.756  67.594  1.00  0.00    -0.168 C  
HETATM   31  O   UNL     1      -7.065  17.359  69.278  1.00  0.00    -0.232 OA 
HETATM   32  C   UNL     1      -6.546  15.271  67.485  1.00  0.00    -0.181 C  
HETATM   33  H   UNL     1      -6.632  16.638  69.718  1.00  0.00     0.000 HD 
ENDBRANCH  14  22
TORSDOF 3
ENDMDL
MODEL       79
REMARK 921   NORMALIZED FREE ENERGY PREDICTED BY IDOCK:   -5.37 KCAL/MOL
REMARK 922        TOTAL FREE ENERGY PREDICTED BY IDOCK:   -7.27 KCAL/MOL
REMARK 923 INTER-LIGAND FREE ENERGY PREDICTED BY IDOCK:   -7.09 KCAL/MOL
REMARK 924 INTRA-LIGAND FREE ENERGY PREDICTED BY IDOCK:   -0.18 KCAL/MOL
REMARK 927      BINDING AFFINITY PREDICTED BY RF-SCORE:    0.00 PKD
ROOT
HETATM    1  C   UNL     1      -7.760   5.688  71.041  1.00  0.00    -0.104 C  
HETATM    2  C   UNL     1      -9.070   5.904  70.270  1.00  0.00    -0.156 C  
HETATM    3  C   UNL     1     -10.141   4.913  70.827  1.00  0.00    -0.303 C  
HETATM    4  C   UNL     1      -9.001   5.825  68.664  1.00  0.00    -0.112 C  
HETATM    5  C   UNL     1      -7.317   9.228  66.320  1.00  0.00    -0.092 C  
HETATM    6  C   UNL     1     -10.355   6.268  68.117  1.00  0.00    -0.236 C  
HETATM    7  C   UNL     1     -10.301   7.782  68.206  1.00  0.00    -0.239 C  
HETATM    8  C   UNL     1      -7.860   6.688  66.353  1.00  0.00    -0.104 C  
HETATM    9  C   UNL     1      -8.028   6.835  67.905  1.00  0.00    -0.114 C  
HETATM   10  C   UNL     1      -8.796   8.217  68.117  1.00  0.00    -0.139 C  
HETATM   11  C   UNL     1      -6.591   6.622  68.435  1.00  0.00    -0.059 C  
HETATM   12  C   UNL     1      -8.647   9.269  67.001  1.00  0.00    -0.128 C  
HETATM   13  C   UNL     1      -6.990   7.842  65.768  1.00  0.00    -0.056 C  
HETATM   14  C   UNL     1      -9.665  10.079  66.629  1.00  0.00    -0.246 C  
ENDROOT
BRANCH   3  15
HETATM   15  C   UNL     1     -10.251   4.803  72.356  1.00  0.00    -0.252 C  
BRANCH  15  16
HETATM   16  C   UNL     1      -9.302   3.764  72.966  1.00  0.00    -0.131 C  
HETATM   17  O   UNL     1      -8.799   1.475  73.474  1.00  0.00    -0.059 OA 
HETATM   18  C   UNL     1      -9.900   1.835  71.407  1.00  0.00    -0.193 C  
HETATM   19  C   UNL     1     -11.105   2.094  73.599  1.00  0.00    -0.297 C  
HETATM   20  C   UNL     1      -9.787   2.305  72.858  1.00  0.00    -0.111 C  
HETATM   21  H   UNL     1      -9.099   0.575  73.408  1.00  0.00     0.000 HD 
ENDBRANCH  15  16
ENDBRANCH   3  15
BRANCH  14  22
HETATM   22  C   UNL     1      -9.872  10.674  65.318  1.00  0.00    -0.334 C  
HETATM   23  C   UNL     1     -10.912  12.332  63.754  1.00  0.00    -0.495 C  
HETATM   24  C   UNL     1     -12.309  12.964  63.924  1.00  0.00    -0.396 C  
HETATM   25  C   UNL     1     -10.311  11.933  65.093  1.00  0.00    -0.318 C  
HETATM   26  O   UNL     1     -13.276  11.988  64.324  1.00  0.00    -0.710 OA 
HETATM   27  C   UNL     1     -12.297  14.113  64.930  1.00  0.00    -0.446 C  
HETATM   28  H   UNL     1     -14.137  12.378  64.428  1.00  0.00     0.000 HD 
HETATM   29  C   UNL     1     -11.697  13.684  66.271  1.00  0.00    -0.367 C  
HETATM   30  C   UNL     1     -10.344  13.004  66.087  1.00  0.00    -0.285 C  
HETATM   31  O   UNL     1     -11.589  14.833  67.112  1.00  0.00    -0.370 OA 
HETATM   32  C   UNL     1      -9.218  13.393  66.724  1.00  0.00    -0.242 C  
HETATM   33  H   UNL     1     -11.216  14.567  67.945  1.00  0.00     0.000 HD 
ENDBRANCH  14  22
TORSDOF 3
ENDMDL
MODEL       80
REMARK 921   NORMALIZED FREE ENERGY PREDICTED BY IDOCK:   -5.35 KCAL/MOL
REMARK 922        TOTAL FREE ENERGY PREDICTED BY IDOCK:   -7.25 KCAL/MOL
REMARK 923 INTER-LIGAND FREE ENERGY PREDICTED BY IDOCK:   -6.13 KCAL/MOL
REMARK 924 INTRA-LIGAND FREE ENERGY PREDICTED BY IDOCK:   -1.12 KCAL/MOL
REMARK 927      BINDING AFFINITY PREDICTED BY RF-SCORE:    0.00 PKD
ROOT
HETATM    1  C   UNL     1     -13.411  10.185  71.258  1.00  0.00    -0.394 C  
HETATM    2  C   UNL     1     -12.180  10.209  70.341  1.00  0.00    -0.300 C  
HETATM    3  C   UNL     1     -11.377   8.886  70.556  1.00  0.00    -0.268 C  
HETATM    4  C   UNL     1     -11.208  11.488  70.445  1.00  0.00     0.307 C  
HETATM    5  C   UNL     1     -12.398  15.365  68.582  1.00  0.00     0.173 C  
HETATM    6  C   UNL     1     -10.186  11.390  69.315  1.00  0.00    -0.007 C  
HETATM    7  C   UNL     1     -10.952  11.868  68.095  1.00  0.00    -0.272 C  
HETATM    8  C   UNL     1     -10.928  14.190  70.374  1.00  0.00     0.347 C  
HETATM    9  C   UNL     1     -11.832  12.927  70.159  1.00  0.00    -0.319 C  
HETATM   10  C   UNL     1     -12.076  12.847  68.584  1.00  0.00    -0.171 C  
HETATM   11  C   UNL     1     -13.001  13.160  71.145  1.00  0.00    -0.280 C  
HETATM   12  C   UNL     1     -11.961  14.168  67.799  1.00  0.00    -0.389 C  
HETATM   13  C   UNL     1     -11.655  15.490  69.911  1.00  0.00    -0.348 C  
HETATM   14  C   UNL     1     -11.431  14.228  66.556  1.00  0.00    -0.368 C  
ENDROOT
BRANCH   3  15
HETATM   15  C   UNL     1     -12.190   7.582  70.585  1.00  0.00    -0.068 C  
BRANCH  15  16
HETATM   16  C   UNL     1     -11.395   6.354  70.121  1.00  0.00    -0.485 C  
HETATM   17  O   UNL     1      -9.637   4.769  70.503  1.00  0.00    -0.156 OA 
HETATM   18  C   UNL     1     -10.820   5.454  72.437  1.00  0.00    -0.297 C  
HETATM   19  C   UNL     1      -9.220   6.998  71.261  1.00  0.00    -0.152 C  
HETATM   20  C   UNL     1     -10.277   5.910  71.082  1.00  0.00    -0.212 C  
HETATM   21  H   UNL     1      -8.947   4.495  71.096  1.00  0.00     0.000 HD 
ENDBRANCH  15  16
ENDBRANCH   3  15
BRANCH  14  22
HETATM   22  C   UNL     1     -10.760  15.366  65.947  1.00  0.00    -0.343 C  
HETATM   23  C   UNL     1      -9.268  17.378  66.010  1.00  0.00    -0.093 C  
HETATM   24  C   UNL     1      -9.060  18.297  67.231  1.00  0.00    -0.256 C  
HETATM   25  C   UNL     1      -9.649  15.966  66.429  1.00  0.00    -0.313 C  
HETATM   26  O   UNL     1     -10.301  18.582  67.885  1.00  0.00    -0.363 OA 
HETATM   27  C   UNL     1      -8.080  17.697  68.236  1.00  0.00    -0.278 C  
HETATM   28  H   UNL     1     -10.173  19.149  68.636  1.00  0.00     0.000 HD 
HETATM   29  C   UNL     1      -8.489  16.281  68.650  1.00  0.00    -0.221 C  
HETATM   30  C   UNL     1      -8.753  15.398  67.434  1.00  0.00    -0.194 C  
HETATM   31  O   UNL     1      -7.463  15.731  69.477  1.00  0.00    -0.219 OA 
HETATM   32  C   UNL     1      -8.154  14.203  67.233  1.00  0.00    -0.188 C  
HETATM   33  H   UNL     1      -7.717  14.852  69.734  1.00  0.00     0.000 HD 
ENDBRANCH  14  22
TORSDOF 3
ENDMDL
MODEL       81
REMARK 921   NORMALIZED FREE ENERGY PREDICTED BY IDOCK:   -5.33 KCAL/MOL
REMARK 922        TOTAL FREE ENERGY PREDICTED BY IDOCK:   -7.23 KCAL/MOL
REMARK 923 INTER-LIGAND FREE ENERGY PREDICTED BY IDOCK:   -5.73 KCAL/MOL
REMARK 924 INTRA-LIGAND FREE ENERGY PREDICTED BY IDOCK:   -1.49 KCAL/MOL
REMARK 927      BINDING AFFINITY PREDICTED BY RF-SCORE:    0.00 PKD
ROOT
HETATM    1  C   UNL     1      -7.127  11.525  68.140  1.00  0.00    -0.076 C  
HETATM    2  C   UNL     1      -8.491  10.858  68.370  1.00  0.00    -0.141 C  
HETATM    3  C   UNL     1      -9.611  11.892  68.027  1.00  0.00    -0.193 C  
HETATM    4  C   UNL     1      -8.752  10.192  69.811  1.00  0.00    -0.148 C  
HETATM    5  C   UNL     1      -6.906   6.261  70.834  1.00  0.00    -0.063 C  
HETATM    6  C   UNL     1     -10.070   9.425  69.739  1.00  0.00    -0.229 C  
HETATM    7  C   UNL     1      -9.697   8.136  69.031  1.00  0.00    -0.163 C  
HETATM    8  C   UNL     1      -7.932   8.468  71.745  1.00  0.00    -0.177 C  
HETATM    9  C   UNL     1      -7.763   9.040  70.294  1.00  0.00    -0.098 C  
HETATM   10  C   UNL     1      -8.182   7.849  69.319  1.00  0.00    -0.128 C  
HETATM   11  C   UNL     1      -6.322   9.604  70.305  1.00  0.00    -0.076 C  
HETATM   12  C   UNL     1      -8.044   6.418  69.876  1.00  0.00    -0.121 C  
HETATM   13  C   UNL     1      -6.978   7.259  71.988  1.00  0.00    -0.063 C  
HETATM   14  C   UNL     1      -8.930   5.439  69.585  1.00  0.00    -0.130 C  
ENDROOT
BRANCH   3  15
HETATM   15  C   UNL     1      -9.443  12.686  66.721  1.00  0.00    -0.237 C  
BRANCH  15  16
HETATM   16  C   UNL     1      -8.982  14.133  66.939  1.00  0.00    -0.247 C  
HETATM   17  O   UNL     1      -9.519  16.462  67.138  1.00  0.00    -0.226 OA 
HETATM   18  C   UNL     1     -11.104  14.973  68.079  1.00  0.00    -0.304 C  
HETATM   19  C   UNL     1     -10.843  15.211  65.589  1.00  0.00    -0.367 C  
HETATM   20  C   UNL     1     -10.115  15.178  66.931  1.00  0.00    -0.255 C  
HETATM   21  H   UNL     1     -10.218  17.106  67.133  1.00  0.00     0.000 HD 
ENDBRANCH  15  16
ENDBRANCH   3  15
BRANCH  14  22
HETATM   22  C   UNL     1      -9.263   4.289  70.411  1.00  0.00    -0.191 C  
HETATM   23  C   UNL     1      -9.787   3.184  72.598  1.00  0.00    -0.208 C  
HETATM   24  C   UNL     1      -9.260   3.636  73.975  1.00  0.00    -0.089 C  
HETATM   25  C   UNL     1      -9.867   4.346  71.619  1.00  0.00    -0.255 C  
HETATM   26  O   UNL     1      -7.872   3.978  73.914  1.00  0.00    -0.081 OA 
HETATM   27  C   UNL     1     -10.053   4.819  74.528  1.00  0.00    -0.267 C  
HETATM   28  H   UNL     1      -7.547   4.256  74.763  1.00  0.00     0.000 HD 
HETATM   29  C   UNL     1     -10.111   5.978  73.530  1.00  0.00    -0.201 C  
HETATM   30  C   UNL     1     -10.573   5.508  72.154  1.00  0.00    -0.280 C  
HETATM   31  O   UNL     1     -10.977   6.987  74.051  1.00  0.00    -0.478 OA 
HETATM   32  C   UNL     1     -11.612   6.057  71.486  1.00  0.00    -0.238 C  
HETATM   33  H   UNL     1     -11.013   7.707  73.432  1.00  0.00     0.000 HD 
ENDBRANCH  14  22
TORSDOF 3
ENDMDL
MODEL       82
REMARK 921   NORMALIZED FREE ENERGY PREDICTED BY IDOCK:   -5.28 KCAL/MOL
REMARK 922        TOTAL FREE ENERGY PREDICTED BY IDOCK:   -7.17 KCAL/MOL
REMARK 923 INTER-LIGAND FREE ENERGY PREDICTED BY IDOCK:   -5.54 KCAL/MOL
REMARK 924 INTRA-LIGAND FREE ENERGY PREDICTED BY IDOCK:   -1.64 KCAL/MOL
REMARK 927      BINDING AFFINITY PREDICTED BY RF-SCORE:    0.00 PKD
ROOT
HETATM    1  C   UNL     1      -8.269   7.438  67.745  1.00  0.00    -0.119 C  
HETATM    2  C   UNL     1      -9.604   8.088  67.352  1.00  0.00    -0.196 C  
HETATM    3  C   UNL     1     -10.450   7.039  66.560  1.00  0.00    -0.072 C  
HETATM    4  C   UNL     1      -9.538   9.485  66.556  1.00  0.00    -0.259 C  
HETATM    5  C   UNL     1      -8.593  13.264  68.732  1.00  0.00     0.136 C  
HETATM    6  C   UNL     1     -10.959  10.032  66.456  1.00  0.00     0.110 C  
HETATM    7  C   UNL     1     -11.208  10.639  67.825  1.00  0.00    -0.383 C  
HETATM    8  C   UNL     1      -8.617  12.039  66.440  1.00  0.00    -0.037 C  
HETATM    9  C   UNL     1      -8.795  10.710  67.254  1.00  0.00    -0.137 C  
HETATM   10  C   UNL     1      -9.822  11.065  68.423  1.00  0.00    -0.186 C  
HETATM   11  C   UNL     1      -7.338  10.289  67.561  1.00  0.00    -0.089 C  
HETATM   12  C   UNL     1      -9.898  12.543  68.851  1.00  0.00     0.121 C  
HETATM   13  C   UNL     1      -8.002  13.164  67.327  1.00  0.00    -0.140 C  
HETATM   14  C   UNL     1     -11.061  13.134  69.209  1.00  0.00    -0.201 C  
ENDROOT
BRANCH   3  15
HETATM   15  C   UNL     1     -10.520   5.621  67.148  1.00  0.00    -0.334 C  
BRANCH  15  16
HETATM   16  C   UNL     1     -10.490   4.515  66.086  1.00  0.00    -0.198 C  
HETATM   17  O   UNL     1      -9.227   3.032  64.687  1.00  0.00    -0.133 OA 
HETATM   18  C   UNL     1      -8.319   3.408  66.842  1.00  0.00    -0.100 C  
HETATM   19  C   UNL     1      -8.265   5.187  65.064  1.00  0.00    -0.130 C  
HETATM   20  C   UNL     1      -9.078   4.050  65.680  1.00  0.00    -0.142 C  
HETATM   21  H   UNL     1      -8.356   2.745  64.436  1.00  0.00     0.000 HD 
ENDBRANCH  15  16
ENDBRANCH   3  15
BRANCH  14  22
HETATM   22  C   UNL     1     -11.396  14.544  69.089  1.00  0.00    -0.305 C  
HETATM   23  C   UNL     1     -11.404  16.746  67.894  1.00  0.00     0.058 C  
HETATM   24  C   UNL     1     -10.314  17.236  66.918  1.00  0.00    -0.310 C  
HETATM   25  C   UNL     1     -11.486  15.228  67.926  1.00  0.00    -0.325 C  
HETATM   26  O   UNL     1      -9.003  16.949  67.416  1.00  0.00    -0.206 OA 
HETATM   27  C   UNL     1     -10.477  16.626  65.528  1.00  0.00    -0.285 C  
HETATM   28  H   UNL     1      -8.332  17.251  66.815  1.00  0.00     0.000 HD 
HETATM   29  C   UNL     1     -10.548  15.098  65.586  1.00  0.00    -0.356 C  
HETATM   30  C   UNL     1     -11.585  14.624  66.599  1.00  0.00    -0.359 C  
HETATM   31  O   UNL     1     -10.838  14.604  64.278  1.00  0.00    -0.588 OA 
HETATM   32  C   UNL     1     -12.586  13.767  66.300  1.00  0.00    -0.372 C  
HETATM   33  H   UNL     1     -10.882  13.655  64.313  1.00  0.00     0.000 HD 
ENDBRANCH  14  22
TORSDOF 3
ENDMDL
MODEL       83
REMARK 921   NORMALIZED FREE ENERGY PREDICTED BY IDOCK:   -5.27 KCAL/MOL
REMARK 922        TOTAL FREE ENERGY PREDICTED BY IDOCK:   -7.16 KCAL/MOL
REMARK 923 INTER-LIGAND FREE ENERGY PREDICTED BY IDOCK:   -6.06 KCAL/MOL
REMARK 924 INTRA-LIGAND FREE ENERGY PREDICTED BY IDOCK:   -1.10 KCAL/MOL
REMARK 927      BINDING AFFINITY PREDICTED BY RF-SCORE:    0.00 PKD
ROOT
HETATM    1  C   UNL     1     -11.568  13.765  70.123  1.00  0.00    -0.230 C  
HETATM    2  C   UNL     1     -11.196  12.604  69.190  1.00  0.00    -0.300 C  
HETATM    3  C   UNL     1     -11.158  13.141  67.724  1.00  0.00    -0.287 C  
HETATM    4  C   UNL     1     -12.087  11.267  69.285  1.00  0.00    -0.372 C  
HETATM    5  C   UNL     1     -11.521   8.428  72.681  1.00  0.00    -0.359 C  
HETATM    6  C   UNL     1     -11.415  10.197  68.428  1.00  0.00    -0.086 C  
HETATM    7  C   UNL     1     -10.281   9.696  69.303  1.00  0.00    -0.215 C  
HETATM    8  C   UNL     1     -13.127   9.285  70.826  1.00  0.00     0.086 C  
HETATM    9  C   UNL     1     -12.167  10.518  70.689  1.00  0.00    -0.446 C  
HETATM   10  C   UNL     1     -10.692   9.918  70.800  1.00  0.00    -0.350 C  
HETATM   11  C   UNL     1     -12.716  11.509  71.743  1.00  0.00    -0.340 C  
HETATM   12  C   UNL     1     -10.543   8.586  71.560  1.00  0.00    -0.333 C  
HETATM   13  C   UNL     1     -12.966   8.597  72.216  1.00  0.00    -0.430 C  
HETATM   14  C   UNL     1      -9.667   7.628  71.178  1.00  0.00    -0.172 C  
ENDROOT
BRANCH   3  15
HETATM   15  C   UNL     1     -10.425  14.473  67.494  1.00  0.00    -0.253 C  
BRANCH  15  16
HETATM   16  C   UNL     1      -9.024  14.305  66.893  1.00  0.00    -0.255 C  
HETATM   17  O   UNL     1      -6.690  14.856  66.915  1.00  0.00    -0.269 OA 
HETATM   18  C   UNL     1      -7.708  14.677  69.047  1.00  0.00    -0.134 C  
HETATM   19  C   UNL     1      -8.187  16.619  67.521  1.00  0.00    -0.180 C  
HETATM   20  C   UNL     1      -7.920  15.117  67.598  1.00  0.00    -0.161 C  
HETATM   21  H   UNL     1      -6.009  15.357  67.350  1.00  0.00     0.000 HD 
ENDBRANCH  15  16
ENDBRANCH   3  15
BRANCH  14  22
HETATM   22  C   UNL     1      -9.789   6.196  71.399  1.00  0.00    -0.200 C  
HETATM   23  C   UNL     1      -8.878   3.941  72.000  1.00  0.00    -0.130 C  
HETATM   24  C   UNL     1      -7.428   3.472  71.761  1.00  0.00    -0.052 C  
HETATM   25  C   UNL     1      -8.959   5.451  72.163  1.00  0.00    -0.140 C  
HETATM   26  O   UNL     1      -6.961   3.864  70.467  1.00  0.00    -0.033 OA 
HETATM   27  C   UNL     1      -6.474   4.001  72.830  1.00  0.00    -0.028 C  
HETATM   28  H   UNL     1      -6.069   3.574  70.319  1.00  0.00     0.000 HD 
HETATM   29  C   UNL     1      -6.567   5.523  72.967  1.00  0.00    -0.071 C  
HETATM   30  C   UNL     1      -8.012   5.981  73.141  1.00  0.00    -0.108 C  
HETATM   31  O   UNL     1      -5.758   5.932  74.071  1.00  0.00    -0.049 OA 
HETATM   32  C   UNL     1      -8.432   6.759  74.163  1.00  0.00    -0.161 C  
HETATM   33  H   UNL     1      -5.815   6.877  74.156  1.00  0.00     0.000 HD 
ENDBRANCH  14  22
TORSDOF 3
ENDMDL
MODEL       84
REMARK 921   NORMALIZED FREE ENERGY PREDICTED BY IDOCK:   -5.25 KCAL/MOL
REMARK 922        TOTAL FREE ENERGY PREDICTED BY IDOCK:   -7.14 KCAL/MOL
REMARK 923 INTER-LIGAND FREE ENERGY PREDICTED BY IDOCK:   -6.15 KCAL/MOL
REMARK 924 INTRA-LIGAND FREE ENERGY PREDICTED BY IDOCK:   -0.99 KCAL/MOL
REMARK 927      BINDING AFFINITY PREDICTED BY RF-SCORE:    0.00 PKD
ROOT
HETATM    1  C   UNL     1      -7.911  14.088  67.618  1.00  0.00    -0.185 C  
HETATM    2  C   UNL     1      -9.150  13.389  67.040  1.00  0.00    -0.245 C  
HETATM    3  C   UNL     1     -10.186  14.483  66.627  1.00  0.00    -0.276 C  
HETATM    4  C   UNL     1      -9.847  12.257  67.947  1.00  0.00    -0.201 C  
HETATM    5  C   UNL     1      -8.000   8.210  68.295  1.00  0.00    -0.123 C  
HETATM    6  C   UNL     1     -10.914  11.571  67.097  1.00  0.00    -0.338 C  
HETATM    7  C   UNL     1     -10.120  10.614  66.227  1.00  0.00    -0.291 C  
HETATM    8  C   UNL     1      -9.597   9.955  69.370  1.00  0.00    -0.229 C  
HETATM    9  C   UNL     1      -8.966  11.004  68.388  1.00  0.00    -0.158 C  
HETATM   10  C   UNL     1      -8.807  10.237  66.998  1.00  0.00    -0.143 C  
HETATM   11  C   UNL     1      -7.736  11.521  69.170  1.00  0.00     0.030 C  
HETATM   12  C   UNL     1      -8.693   8.701  67.065  1.00  0.00    -0.135 C  
HETATM   13  C   UNL     1      -8.649   8.734  69.575  1.00  0.00    -0.130 C  
HETATM   14  C   UNL     1      -9.252   7.893  66.135  1.00  0.00    -0.208 C  
ENDROOT
BRANCH   3  15
HETATM   15  C   UNL     1      -9.644  15.687  65.840  1.00  0.00    -0.385 C  
BRANCH  15  16
HETATM   16  C   UNL     1     -10.495  16.953  65.995  1.00  0.00    -0.297 C  
HETATM   17  O   UNL     1     -10.830  19.105  67.000  1.00  0.00    -0.455 OA 
HETATM   18  C   UNL     1      -8.580  18.564  66.491  1.00  0.00    -0.289 C  
HETATM   19  C   UNL     1      -9.803  17.450  68.386  1.00  0.00    -0.316 C  
HETATM   20  C   UNL     1      -9.920  18.002  66.967  1.00  0.00    -0.329 C  
HETATM   21  H   UNL     1     -10.475  19.751  67.600  1.00  0.00     0.000 HD 
ENDBRANCH  15  16
ENDBRANCH   3  15
BRANCH  14  22
HETATM   22  C   UNL     1      -9.711   6.526  66.330  1.00  0.00    -0.133 C  
HETATM   23  C   UNL     1      -9.942   4.127  65.649  1.00  0.00    -0.205 C  
HETATM   24  C   UNL     1      -9.993   3.612  64.196  1.00  0.00    -0.192 C  
HETATM   25  C   UNL     1      -9.167   5.431  65.755  1.00  0.00    -0.149 C  
HETATM   26  O   UNL     1     -10.829   4.440  63.381  1.00  0.00    -0.418 OA 
HETATM   27  C   UNL     1      -8.601   3.523  63.573  1.00  0.00    -0.090 C  
HETATM   28  H   UNL     1     -10.861   4.122  62.486  1.00  0.00     0.000 HD 
HETATM   29  C   UNL     1      -7.846   4.849  63.684  1.00  0.00    -0.085 C  
HETATM   30  C   UNL     1      -7.855   5.381  65.114  1.00  0.00    -0.095 C  
HETATM   31  O   UNL     1      -6.512   4.657  63.212  1.00  0.00    -0.025 OA 
HETATM   32  C   UNL     1      -6.736   5.714  65.796  1.00  0.00    -0.055 C  
HETATM   33  H   UNL     1      -6.042   5.480  63.280  1.00  0.00     0.000 HD 
ENDBRANCH  14  22
TORSDOF 3
ENDMDL
MODEL       85
REMARK 921   NORMALIZED FREE ENERGY PREDICTED BY IDOCK:   -5.24 KCAL/MOL
REMARK 922        TOTAL FREE ENERGY PREDICTED BY IDOCK:   -7.12 KCAL/MOL
REMARK 923 INTER-LIGAND FREE ENERGY PREDICTED BY IDOCK:   -6.70 KCAL/MOL
REMARK 924 INTRA-LIGAND FREE ENERGY PREDICTED BY IDOCK:   -0.42 KCAL/MOL
REMARK 927      BINDING AFFINITY PREDICTED BY RF-SCORE:    0.00 PKD
ROOT
HETATM    1  C   UNL     1     -10.410   9.969  66.103  1.00  0.00    -0.225 C  
HETATM    2  C   UNL     1     -10.680  10.253  67.588  1.00  0.00    -0.339 C  
HETATM    3  C   UNL     1     -10.867  11.793  67.771  1.00  0.00    -0.258 C  
HETATM    4  C   UNL     1      -9.620   9.676  68.653  1.00  0.00    -0.154 C  
HETATM    5  C   UNL     1      -9.631   5.340  69.707  1.00  0.00    -0.230 C  
HETATM    6  C   UNL     1     -10.194   9.900  70.049  1.00  0.00    -0.319 C  
HETATM    7  C   UNL     1     -11.206   8.779  70.206  1.00  0.00    -0.212 C  
HETATM    8  C   UNL     1      -8.252   7.541  69.630  1.00  0.00    -0.129 C  
HETATM    9  C   UNL     1      -9.369   8.102  68.683  1.00  0.00    -0.143 C  
HETATM   10  C   UNL     1     -10.746   7.584  69.300  1.00  0.00    -0.185 C  
HETATM   11  C   UNL     1      -8.895   7.655  67.279  1.00  0.00    -0.122 C  
HETATM   12  C   UNL     1     -10.681   6.306  70.158  1.00  0.00    -0.346 C  
HETATM   13  C   UNL     1      -8.247   5.982  69.633  1.00  0.00    -0.115 C  
HETATM   14  C   UNL     1     -11.445   6.134  71.261  1.00  0.00    -0.311 C  
ENDROOT
BRANCH   3  15
HETATM   15  C   UNL     1     -11.776  12.504  66.756  1.00  0.00    -0.453 C  
BRANCH  15  16
HETATM   16  C   UNL     1     -11.980  13.995  67.056  1.00  0.00    -0.472 C  
HETATM   17  O   UNL     1     -11.670  15.865  68.524  1.00  0.00    -0.383 OA 
HETATM   18  C   UNL     1      -9.867  14.331  68.445  1.00  0.00    -0.233 C  
HETATM   19  C   UNL     1     -12.034  13.753  69.583  1.00  0.00    -0.399 C  
HETATM   20  C   UNL     1     -11.389  14.469  68.398  1.00  0.00    -0.289 C  
HETATM   21  H   UNL     1     -11.306  16.157  69.352  1.00  0.00     0.000 HD 
ENDBRANCH  15  16
ENDBRANCH   3  15
BRANCH  14  22
HETATM   22  C   UNL     1     -11.128   5.320  72.424  1.00  0.00    -0.260 C  
HETATM   23  C   UNL     1      -9.556   4.373  74.128  1.00  0.00    -0.130 C  
HETATM   24  C   UNL     1      -8.059   4.078  73.895  1.00  0.00    -0.088 C  
HETATM   25  C   UNL     1     -10.053   5.491  73.226  1.00  0.00    -0.202 C  
HETATM   26  O   UNL     1      -7.843   3.457  72.624  1.00  0.00    -0.064 OA 
HETATM   27  C   UNL     1      -7.207   5.341  73.997  1.00  0.00    -0.083 C  
HETATM   28  H   UNL     1      -6.922   3.275  72.481  1.00  0.00     0.000 HD 
HETATM   29  C   UNL     1      -7.722   6.447  73.074  1.00  0.00    -0.098 C  
HETATM   30  C   UNL     1      -9.216   6.687  73.268  1.00  0.00    -0.145 C  
HETATM   31  O   UNL     1      -6.970   7.636  73.321  1.00  0.00    -0.066 OA 
HETATM   32  C   UNL     1      -9.750   7.899  73.541  1.00  0.00    -0.248 C  
HETATM   33  H   UNL     1      -7.289   8.323  72.748  1.00  0.00     0.000 HD 
ENDBRANCH  14  22
TORSDOF 3
ENDMDL
MODEL       86
REMARK 921   NORMALIZED FREE ENERGY PREDICTED BY IDOCK:   -5.20 KCAL/MOL
REMARK 922        TOTAL FREE ENERGY PREDICTED BY IDOCK:   -7.08 KCAL/MOL
REMARK 923 INTER-LIGAND FREE ENERGY PREDICTED BY IDOCK:   -5.20 KCAL/MOL
REMARK 924 INTRA-LIGAND FREE ENERGY PREDICTED BY IDOCK:   -1.87 KCAL/MOL
REMARK 927      BINDING AFFINITY PREDICTED BY RF-SCORE:    0.00 PKD
ROOT
HETATM    1  C   UNL     1      -6.899  11.658  66.732  1.00  0.00    -0.086 C  
HETATM    2  C   UNL     1      -8.144  11.025  67.369  1.00  0.00    -0.122 C  
HETATM    3  C   UNL     1      -8.973  12.153  68.061  1.00  0.00    -0.189 C  
HETATM    4  C   UNL     1      -7.911   9.790  68.374  1.00  0.00    -0.081 C  
HETATM    5  C   UNL     1      -6.944   5.740  66.768  1.00  0.00    -0.065 C  
HETATM    6  C   UNL     1      -9.278   9.203  68.716  1.00  0.00    -0.136 C  
HETATM    7  C   UNL     1      -9.620   8.359  67.502  1.00  0.00    -0.194 C  
HETATM    8  C   UNL     1      -6.822   7.339  68.813  1.00  0.00    -0.073 C  
HETATM    9  C   UNL     1      -7.163   8.499  67.813  1.00  0.00    -0.084 C  
HETATM   10  C   UNL     1      -8.275   7.901  66.838  1.00  0.00    -0.116 C  
HETATM   11  C   UNL     1      -5.774   8.927  67.286  1.00  0.00    -0.042 C  
HETATM   12  C   UNL     1      -8.298   6.369  66.672  1.00  0.00    -0.113 C  
HETATM   13  C   UNL     1      -6.226   6.107  68.065  1.00  0.00    -0.029 C  
HETATM   14  C   UNL     1      -9.450   5.672  66.544  1.00  0.00    -0.165 C  
ENDROOT
BRANCH   3  15
HETATM   15  C   UNL     1      -9.191  13.444  67.256  1.00  0.00    -0.222 C  
BRANCH  15  16
HETATM   16  C   UNL     1     -10.667  13.845  67.127  1.00  0.00    -0.282 C  
HETATM   17  O   UNL     1     -12.676  13.927  65.821  1.00  0.00    -0.504 OA 
HETATM   18  C   UNL     1     -11.366  11.973  65.541  1.00  0.00    -0.381 C  
HETATM   19  C   UNL     1     -10.629  14.192  64.613  1.00  0.00    -0.391 C  
HETATM   20  C   UNL     1     -11.317  13.483  65.778  1.00  0.00    -0.305 C  
HETATM   21  H   UNL     1     -13.076  13.704  64.988  1.00  0.00     0.000 HD 
ENDBRANCH  15  16
ENDBRANCH   3  15
BRANCH  14  22
HETATM   22  C   UNL     1      -9.682   4.289  66.933  1.00  0.00    -0.239 C  
HETATM   23  C   UNL     1      -9.451   2.335  68.483  1.00  0.00    -0.213 C  
HETATM   24  C   UNL     1      -8.259   2.081  69.429  1.00  0.00    -0.044 C  
HETATM   25  C   UNL     1      -9.636   3.817  68.199  1.00  0.00    -0.176 C  
HETATM   26  O   UNL     1      -7.013   2.344  68.777  1.00  0.00    -0.042 OA 
HETATM   27  C   UNL     1      -8.355   2.918  70.703  1.00  0.00    -0.082 C  
HETATM   28  H   UNL     1      -6.279   2.187  69.359  1.00  0.00     0.000 HD 
HETATM   29  C   UNL     1      -8.531   4.405  70.391  1.00  0.00    -0.077 C  
HETATM   30  C   UNL     1      -9.672   4.639  69.406  1.00  0.00    -0.272 C  
HETATM   31  O   UNL     1      -8.752   5.106  71.616  1.00  0.00    -0.130 OA 
HETATM   32  C   UNL     1     -10.702   5.483  69.641  1.00  0.00    -0.349 C  
HETATM   33  H   UNL     1      -8.861   6.030  71.423  1.00  0.00     0.000 HD 
ENDBRANCH  14  22
TORSDOF 3
ENDMDL
MODEL       87
REMARK 921   NORMALIZED FREE ENERGY PREDICTED BY IDOCK:   -5.16 KCAL/MOL
REMARK 922        TOTAL FREE ENERGY PREDICTED BY IDOCK:   -7.03 KCAL/MOL
REMARK 923 INTER-LIGAND FREE ENERGY PREDICTED BY IDOCK:   -5.47 KCAL/MOL
REMARK 924 INTRA-LIGAND FREE ENERGY PREDICTED BY IDOCK:   -1.56 KCAL/MOL
REMARK 927      BINDING AFFINITY PREDICTED BY RF-SCORE:    0.00 PKD
ROOT
HETATM    1  C   UNL     1     -11.848  10.220  69.698  1.00  0.00    -0.181 C  
HETATM    2  C   UNL     1     -10.560   9.788  68.982  1.00  0.00    -0.238 C  
HETATM    3  C   UNL     1     -10.459  10.568  67.632  1.00  0.00    -0.276 C  
HETATM    4  C   UNL     1     -10.340   8.211  68.748  1.00  0.00    -0.220 C  
HETATM    5  C   UNL     1      -9.074   5.595  72.133  1.00  0.00    -0.147 C  
HETATM    6  C   UNL     1      -8.923   8.013  68.215  1.00  0.00    -0.132 C  
HETATM    7  C   UNL     1      -8.055   8.114  69.455  1.00  0.00    -0.119 C  
HETATM    8  C   UNL     1     -10.221   5.711  69.805  1.00  0.00    -0.321 C  
HETATM    9  C   UNL     1     -10.313   7.261  70.027  1.00  0.00    -0.222 C  
HETATM   10  C   UNL     1      -8.921   7.675  70.687  1.00  0.00    -0.153 C  
HETATM   11  C   UNL     1     -11.649   7.427  70.789  1.00  0.00    -0.317 C  
HETATM   12  C   UNL     1      -8.167   6.575  71.460  1.00  0.00    -0.116 C  
HETATM   13  C   UNL     1     -10.062   4.956  71.160  1.00  0.00    -0.277 C  
HETATM   14  C   UNL     1      -6.819   6.472  71.442  1.00  0.00    -0.063 C  
ENDROOT
BRANCH   3  15
HETATM   15  C   UNL     1     -10.748  12.077  67.682  1.00  0.00    -0.252 C  
BRANCH  15  16
HETATM   16  C   UNL     1     -12.022  12.482  66.929  1.00  0.00    -0.306 C  
HETATM   17  O   UNL     1     -13.054  13.504  65.021  1.00  0.00    -0.736 OA 
HETATM   18  C   UNL     1     -11.070  12.292  64.570  1.00  0.00    -0.368 C  
HETATM   19  C   UNL     1     -11.014  14.502  65.769  1.00  0.00    -0.319 C  
HETATM   20  C   UNL     1     -11.777  13.192  65.584  1.00  0.00    -0.364 C  
HETATM   21  H   UNL     1     -12.902  13.943  64.191  1.00  0.00     0.000 HD 
ENDBRANCH  15  16
ENDBRANCH   3  15
BRANCH  14  22
HETATM   22  C   UNL     1      -6.033   5.260  71.614  1.00  0.00    -0.025 C  
HETATM   23  C   UNL     1      -5.621   2.805  71.335  1.00  0.00    -0.008 C  
HETATM   24  C   UNL     1      -6.715   1.720  71.254  1.00  0.00    -0.023 C  
HETATM   25  C   UNL     1      -6.131   4.152  70.846  1.00  0.00    -0.014 C  
HETATM   26  O   UNL     1      -7.740   1.941  72.227  1.00  0.00    -0.042 OA 
HETATM   27  C   UNL     1      -7.340   1.644  69.862  1.00  0.00    -0.036 C  
HETATM   28  H   UNL     1      -8.413   1.272  72.178  1.00  0.00     0.000 HD 
HETATM   29  C   UNL     1      -7.853   3.008  69.397  1.00  0.00    -0.046 C  
HETATM   30  C   UNL     1      -6.783   4.087  69.540  1.00  0.00    -0.037 C  
HETATM   31  O   UNL     1      -8.295   2.894  68.044  1.00  0.00    -0.075 OA 
HETATM   32  C   UNL     1      -6.389   4.888  68.526  1.00  0.00    -0.036 C  
HETATM   33  H   UNL     1      -8.614   3.741  67.755  1.00  0.00     0.000 HD 
ENDBRANCH  14  22
TORSDOF 3
ENDMDL
MODEL       88
REMARK 921   NORMALIZED FREE ENERGY PREDICTED BY IDOCK:   -5.09 KCAL/MOL
REMARK 922        TOTAL FREE ENERGY PREDICTED BY IDOCK:   -6.95 KCAL/MOL
REMARK 923 INTER-LIGAND FREE ENERGY PREDICTED BY IDOCK:   -5.28 KCAL/MOL
REMARK 924 INTRA-LIGAND FREE ENERGY PREDICTED BY IDOCK:   -1.67 KCAL/MOL
REMARK 927      BINDING AFFINITY PREDICTED BY RF-SCORE:    0.00 PKD
ROOT
HETATM    1  C   UNL     1      -6.952  12.468  68.116  1.00  0.00    -0.089 C  
HETATM    2  C   UNL     1      -8.322  11.774  68.125  1.00  0.00    -0.156 C  
HETATM    3  C   UNL     1      -9.432  12.872  68.075  1.00  0.00    -0.213 C  
HETATM    4  C   UNL     1      -8.609  10.725  69.311  1.00  0.00    -0.047 C  
HETATM    5  C   UNL     1      -6.792   6.652  69.192  1.00  0.00    -0.069 C  
HETATM    6  C   UNL     1      -9.928  10.022  69.002  1.00  0.00    -0.203 C  
HETATM    7  C   UNL     1      -9.547   8.986  67.960  1.00  0.00    -0.166 C  
HETATM    8  C   UNL     1      -7.826   8.513  70.681  1.00  0.00    -0.091 C  
HETATM    9  C   UNL     1      -7.631   9.475  69.458  1.00  0.00    -0.096 C  
HETATM   10  C   UNL     1      -8.038   8.616  68.177  1.00  0.00    -0.115 C  
HETATM   11  C   UNL     1      -6.189  10.001  69.652  1.00  0.00    -0.049 C  
HETATM   12  C   UNL     1      -7.913   7.085  68.303  1.00  0.00    -0.123 C  
HETATM   13  C   UNL     1      -6.880   7.277  70.583  1.00  0.00    -0.053 C  
HETATM   14  C   UNL     1      -8.798   6.238  67.729  1.00  0.00    -0.111 C  
ENDROOT
BRANCH   3  15
HETATM   15  C   UNL     1      -9.240  14.005  67.055  1.00  0.00    -0.262 C  
BRANCH  15  16
HETATM   16  C   UNL     1      -8.973  15.371  67.700  1.00  0.00    -0.185 C  
HETATM   17  O   UNL     1      -9.652  17.638  68.086  1.00  0.00    -0.276 OA 
HETATM   18  C   UNL     1     -11.410  16.052  68.022  1.00  0.00    -0.266 C  
HETATM   19  C   UNL     1     -10.184  16.739  65.936  1.00  0.00    -0.345 C  
HETATM   20  C   UNL     1     -10.055  16.435  67.427  1.00  0.00    -0.262 C  
HETATM   21  H   UNL     1     -10.320  18.294  67.918  1.00  0.00     0.000 HD 
ENDBRANCH  15  16
ENDBRANCH   3  15
BRANCH  14  22
HETATM   22  C   UNL     1      -9.149   4.902  68.187  1.00  0.00    -0.134 C  
HETATM   23  C   UNL     1      -9.700   3.218  69.958  1.00  0.00    -0.080 C  
HETATM   24  C   UNL     1      -9.180   3.247  71.410  1.00  0.00    -0.121 C  
HETATM   25  C   UNL     1      -9.762   4.614  69.357  1.00  0.00    -0.272 C  
HETATM   26  O   UNL     1      -7.788   3.576  71.457  1.00  0.00    -0.055 OA 
HETATM   27  C   UNL     1      -9.966   4.229  72.277  1.00  0.00    -0.236 C  
HETATM   28  H   UNL     1      -7.468   3.593  72.352  1.00  0.00     0.000 HD 
HETATM   29  C   UNL     1     -10.006   5.627  71.656  1.00  0.00    -0.174 C  
HETATM   30  C   UNL     1     -10.461   5.580  70.201  1.00  0.00    -0.370 C  
HETATM   31  O   UNL     1     -10.866   6.453  72.442  1.00  0.00    -0.217 OA 
HETATM   32  C   UNL     1     -11.490   6.310  69.715  1.00  0.00    -0.449 C  
HETATM   33  H   UNL     1     -10.891   7.321  72.057  1.00  0.00     0.000 HD 
ENDBRANCH  14  22
TORSDOF 3
ENDMDL
MODEL       89
REMARK 921   NORMALIZED FREE ENERGY PREDICTED BY IDOCK:   -5.03 KCAL/MOL
REMARK 922        TOTAL FREE ENERGY PREDICTED BY IDOCK:   -6.87 KCAL/MOL
REMARK 923 INTER-LIGAND FREE ENERGY PREDICTED BY IDOCK:   -5.37 KCAL/MOL
REMARK 924 INTRA-LIGAND FREE ENERGY PREDICTED BY IDOCK:   -1.50 KCAL/MOL
REMARK 927      BINDING AFFINITY PREDICTED BY RF-SCORE:    0.00 PKD
ROOT
HETATM    1  C   UNL     1     -10.658  12.010  68.311  1.00  0.00    -0.233 C  
HETATM    2  C   UNL     1      -9.417  11.157  68.614  1.00  0.00    -0.196 C  
HETATM    3  C   UNL     1      -8.321  11.484  67.549  1.00  0.00    -0.143 C  
HETATM    4  C   UNL     1      -9.629   9.567  68.744  1.00  0.00    -0.159 C  
HETATM    5  C   UNL     1     -11.445   7.841  72.437  1.00  0.00    -0.418 C  
HETATM    6  C   UNL     1      -8.320   8.962  69.242  1.00  0.00    -0.119 C  
HETATM    7  C   UNL     1      -8.335   9.248  70.732  1.00  0.00    -0.230 C  
HETATM    8  C   UNL     1     -10.952   7.499  69.908  1.00  0.00    -0.223 C  
HETATM    9  C   UNL     1     -10.644   9.036  69.852  1.00  0.00    -0.240 C  
HETATM   10  C   UNL     1      -9.833   9.353  71.188  1.00  0.00    -0.287 C  
HETATM   11  C   UNL     1     -12.034   9.662  69.585  1.00  0.00     0.324 C  
HETATM   12  C   UNL     1     -10.058   8.399  72.377  1.00  0.00    -0.386 C  
HETATM   13  C   UNL     1     -11.847   7.148  71.136  1.00  0.00    -0.363 C  
HETATM   14  C   UNL     1      -9.061   8.043  73.220  1.00  0.00    -0.349 C  
ENDROOT
BRANCH   3  15
HETATM   15  C   UNL     1      -8.078  12.970  67.241  1.00  0.00    -0.164 C  
BRANCH  15  16
HETATM   16  C   UNL     1      -8.017  13.854  68.493  1.00  0.00    -0.137 C  
HETATM   17  O   UNL     1      -6.780  15.340  69.912  1.00  0.00    -0.173 OA 
HETATM   18  C   UNL     1      -6.354  15.566  67.592  1.00  0.00    -0.181 C  
HETATM   19  C   UNL     1      -5.525  13.579  68.892  1.00  0.00    -0.074 C  
HETATM   20  C   UNL     1      -6.671  14.572  68.710  1.00  0.00    -0.091 C  
HETATM   21  H   UNL     1      -5.949  15.782  70.045  1.00  0.00     0.000 HD 
ENDBRANCH  15  16
ENDBRANCH   3  15
BRANCH  14  22
HETATM   22  C   UNL     1      -8.959   6.806  73.978  1.00  0.00    -0.196 C  
HETATM   23  C   UNL     1      -9.250   4.335  74.275  1.00  0.00    -0.111 C  
HETATM   24  C   UNL     1     -10.349   3.480  73.611  1.00  0.00    -0.156 C  
HETATM   25  C   UNL     1      -8.918   5.565  73.443  1.00  0.00    -0.129 C  
HETATM   26  O   UNL     1     -11.620   4.136  73.659  1.00  0.00    -0.195 OA 
HETATM   27  C   UNL     1     -10.006   3.137  72.162  1.00  0.00    -0.232 C  
HETATM   28  H   UNL     1     -12.296   3.609  73.251  1.00  0.00     0.000 HD 
HETATM   29  C   UNL     1      -9.685   4.390  71.345  1.00  0.00    -0.178 C  
HETATM   30  C   UNL     1      -8.644   5.260  72.041  1.00  0.00    -0.130 C  
HETATM   31  O   UNL     1      -9.242   3.989  70.048  1.00  0.00    -0.112 OA 
HETATM   32  C   UNL     1      -7.498   5.671  71.453  1.00  0.00    -0.095 C  
HETATM   33  H   UNL     1      -9.043   4.766  69.540  1.00  0.00     0.000 HD 
ENDBRANCH  14  22
TORSDOF 3
ENDMDL
MODEL       90
REMARK 921   NORMALIZED FREE ENERGY PREDICTED BY IDOCK:   -4.96 KCAL/MOL
REMARK 922        TOTAL FREE ENERGY PREDICTED BY IDOCK:   -6.79 KCAL/MOL
REMARK 923 INTER-LIGAND FREE ENERGY PREDICTED BY IDOCK:   -5.71 KCAL/MOL
REMARK 924 INTRA-LIGAND FREE ENERGY PREDICTED BY IDOCK:   -1.08 KCAL/MOL
REMARK 927      BINDING AFFINITY PREDICTED BY RF-SCORE:    0.00 PKD
ROOT
HETATM    1  C   UNL     1      -8.262  13.178  68.538  1.00  0.00    -0.076 C  
HETATM    2  C   UNL     1      -9.381  12.180  68.207  1.00  0.00    -0.198 C  
HETATM    3  C   UNL     1     -10.751  12.834  68.576  1.00  0.00    -0.275 C  
HETATM    4  C   UNL     1      -9.264  10.705  68.840  1.00  0.00    -0.189 C  
HETATM    5  C   UNL     1      -6.412   7.741  67.112  1.00  0.00    -0.055 C  
HETATM    6  C   UNL     1     -10.359   9.843  68.218  1.00  0.00    -0.232 C  
HETATM    7  C   UNL     1      -9.799   9.478  66.856  1.00  0.00    -0.262 C  
HETATM    8  C   UNL     1      -7.786   8.453  69.199  1.00  0.00    -0.105 C  
HETATM    9  C   UNL     1      -7.971   9.841  68.493  1.00  0.00    -0.089 C  
HETATM   10  C   UNL     1      -8.233   9.502  66.956  1.00  0.00    -0.113 C  
HETATM   11  C   UNL     1      -6.718  10.632  68.941  1.00  0.00    -0.062 C  
HETATM   12  C   UNL     1      -7.682   8.158  66.441  1.00  0.00    -0.092 C  
HETATM   13  C   UNL     1      -6.549   7.692  68.632  1.00  0.00    -0.053 C  
HETATM   14  C   UNL     1      -8.344   7.403  65.535  1.00  0.00    -0.139 C  
ENDROOT
BRANCH   3  15
HETATM   15  C   UNL     1     -10.967  14.287  68.125  1.00  0.00    -0.259 C  
BRANCH  15  16
HETATM   16  C   UNL     1     -12.240  14.924  68.697  1.00  0.00    -0.101 C  
HETATM   17  O   UNL     1     -13.554  15.557  70.601  1.00  0.00    -0.826 OA 
HETATM   18  C   UNL     1     -11.212  15.798  70.862  1.00  0.00    -0.404 C  
HETATM   19  C   UNL     1     -12.302  13.532  70.820  1.00  0.00    -0.440 C  
HETATM   20  C   UNL     1     -12.315  14.943  70.236  1.00  0.00    -0.341 C  
HETATM   21  H   UNL     1     -13.600  15.569  71.550  1.00  0.00     0.000 HD 
ENDBRANCH  15  16
ENDBRANCH   3  15
BRANCH  14  22
HETATM   22  C   UNL     1      -8.272   5.958  65.385  1.00  0.00    -0.139 C  
HETATM   23  C   UNL     1      -8.192   3.618  66.276  1.00  0.00    -0.100 C  
HETATM   24  C   UNL     1      -7.586   3.200  67.633  1.00  0.00    -0.061 C  
HETATM   25  C   UNL     1      -8.686   5.056  66.303  1.00  0.00    -0.117 C  
HETATM   26  O   UNL     1      -6.342   3.864  67.873  1.00  0.00    -0.035 OA 
HETATM   27  C   UNL     1      -8.543   3.473  68.792  1.00  0.00    -0.120 C  
HETATM   28  H   UNL     1      -5.969   3.606  68.708  1.00  0.00     0.000 HD 
HETATM   29  C   UNL     1      -9.019   4.928  68.802  1.00  0.00    -0.104 C  
HETATM   30  C   UNL     1      -9.557   5.350  67.438  1.00  0.00    -0.139 C  
HETATM   31  O   UNL     1     -10.010   5.078  69.819  1.00  0.00    -0.207 OA 
HETATM   32  C   UNL     1     -10.783   5.887  67.252  1.00  0.00    -0.380 C  
HETATM   33  H   UNL     1     -10.306   5.981  69.826  1.00  0.00     0.000 HD 
ENDBRANCH  14  22
TORSDOF 3
ENDMDL
MODEL       91
REMARK 921   NORMALIZED FREE ENERGY PREDICTED BY IDOCK:   -4.93 KCAL/MOL
REMARK 922        TOTAL FREE ENERGY PREDICTED BY IDOCK:   -6.75 KCAL/MOL
REMARK 923 INTER-LIGAND FREE ENERGY PREDICTED BY IDOCK:   -5.63 KCAL/MOL
REMARK 924 INTRA-LIGAND FREE ENERGY PREDICTED BY IDOCK:   -1.12 KCAL/MOL
REMARK 927      BINDING AFFINITY PREDICTED BY RF-SCORE:    0.00 PKD
ROOT
HETATM    1  C   UNL     1      -8.343  11.656  66.579  1.00  0.00    -0.122 C  
HETATM    2  C   UNL     1      -9.329  10.523  66.899  1.00  0.00    -0.181 C  
HETATM    3  C   UNL     1     -10.722  10.897  66.301  1.00  0.00    -0.241 C  
HETATM    4  C   UNL     1      -9.470  10.082  68.440  1.00  0.00    -0.146 C  
HETATM    5  C   UNL     1      -6.313   7.576  70.355  1.00  0.00    -0.038 C  
HETATM    6  C   UNL     1     -10.335   8.825  68.488  1.00  0.00    -0.231 C  
HETATM    7  C   UNL     1      -9.379   7.715  68.090  1.00  0.00    -0.146 C  
HETATM    8  C   UNL     1      -8.260   9.255  70.729  1.00  0.00    -0.210 C  
HETATM    9  C   UNL     1      -8.162   9.572  69.196  1.00  0.00    -0.111 C  
HETATM   10  C   UNL     1      -7.929   8.162  68.488  1.00  0.00    -0.126 C  
HETATM   11  C   UNL     1      -7.095  10.691  69.137  1.00  0.00    -0.095 C  
HETATM   12  C   UNL     1      -7.286   7.055  69.346  1.00  0.00    -0.085 C  
HETATM   13  C   UNL     1      -6.932   8.637  71.263  1.00  0.00    -0.082 C  
HETATM   14  C   UNL     1      -7.647   5.756  69.241  1.00  0.00    -0.088 C  
ENDROOT
BRANCH   3  15
HETATM   15  C   UNL     1     -10.735  11.436  64.862  1.00  0.00    -0.350 C  
BRANCH  15  16
HETATM   16  C   UNL     1     -11.922  12.360  64.563  1.00  0.00    -0.474 C  
HETATM   17  O   UNL     1     -13.216  14.302  65.118  1.00  0.00    -0.686 OA 
HETATM   18  C   UNL     1     -10.880  14.513  65.452  1.00  0.00    -0.362 C  
HETATM   19  C   UNL     1     -12.300  13.091  66.965  1.00  0.00    -0.037 C  
HETATM   20  C   UNL     1     -12.068  13.553  65.528  1.00  0.00    -0.419 C  
HETATM   21  H   UNL     1     -13.306  15.038  65.713  1.00  0.00     0.000 HD 
ENDBRANCH  15  16
ENDBRANCH   3  15
BRANCH  14  22
HETATM   22  C   UNL     1      -7.578   4.744  70.284  1.00  0.00    -0.057 C  
HETATM   23  C   UNL     1      -7.777   3.961  72.655  1.00  0.00    -0.073 C  
HETATM   24  C   UNL     1      -7.531   4.830  73.906  1.00  0.00    -0.086 C  
HETATM   25  C   UNL     1      -8.226   4.800  71.469  1.00  0.00    -0.104 C  
HETATM   26  O   UNL     1      -6.365   5.645  73.752  1.00  0.00    -0.064 OA 
HETATM   27  C   UNL     1      -8.733   5.714  74.231  1.00  0.00    -0.118 C  
HETATM   28  H   UNL     1      -6.214   6.180  74.523  1.00  0.00     0.000 HD 
HETATM   29  C   UNL     1      -9.159   6.555  73.026  1.00  0.00    -0.128 C  
HETATM   30  C   UNL     1      -9.339   5.694  71.779  1.00  0.00    -0.163 C  
HETATM   31  O   UNL     1     -10.364   7.248  73.355  1.00  0.00    -0.294 OA 
HETATM   32  C   UNL     1     -10.469   5.679  71.037  1.00  0.00    -0.316 C  
HETATM   33  H   UNL     1     -10.629   7.771  72.607  1.00  0.00     0.000 HD 
ENDBRANCH  14  22
TORSDOF 3
ENDMDL
MODEL       92
REMARK 921   NORMALIZED FREE ENERGY PREDICTED BY IDOCK:   -4.88 KCAL/MOL
REMARK 922        TOTAL FREE ENERGY PREDICTED BY IDOCK:   -6.70 KCAL/MOL
REMARK 923 INTER-LIGAND FREE ENERGY PREDICTED BY IDOCK:   -6.14 KCAL/MOL
REMARK 924 INTRA-LIGAND FREE ENERGY PREDICTED BY IDOCK:   -0.56 KCAL/MOL
REMARK 927      BINDING AFFINITY PREDICTED BY RF-SCORE:    0.00 PKD
ROOT
HETATM    1  C   UNL     1     -12.444  13.957  71.044  1.00  0.00    -0.452 C  
HETATM    2  C   UNL     1     -11.945  12.999  69.953  1.00  0.00    -0.381 C  
HETATM    3  C   UNL     1     -11.964  13.753  68.586  1.00  0.00    -0.401 C  
HETATM    4  C   UNL     1     -12.685  11.575  69.829  1.00  0.00     0.143 C  
HETATM    5  C   UNL     1     -11.815   8.331  72.768  1.00  0.00    -0.273 C  
HETATM    6  C   UNL     1     -11.898  10.727  68.833  1.00  0.00    -0.287 C  
HETATM    7  C   UNL     1     -10.717  10.224  69.643  1.00  0.00    -0.299 C  
HETATM    8  C   UNL     1     -13.503   9.281  71.035  1.00  0.00    -0.120 C  
HETATM    9  C   UNL     1     -12.683  10.617  71.103  1.00  0.00    -0.522 C  
HETATM   10  C   UNL     1     -11.152  10.171  71.149  1.00  0.00    -0.144 C  
HETATM   11  C   UNL     1     -13.339  11.371  72.284  1.00  0.00    -0.080 C  
HETATM   12  C   UNL     1     -10.859   8.762  71.702  1.00  0.00    -0.399 C  
HETATM   13  C   UNL     1     -13.269   8.411  72.309  1.00  0.00    -0.302 C  
HETATM   14  C   UNL     1      -9.883   7.974  71.195  1.00  0.00    -0.198 C  
ENDROOT
BRANCH   3  15
HETATM   15  C   UNL     1     -11.382  15.176  68.573  1.00  0.00    -0.321 C  
BRANCH  15  16
HETATM   16  C   UNL     1     -10.077  15.311  69.367  1.00  0.00    -0.266 C  
HETATM   17  O   UNL     1      -7.702  15.641  69.392  1.00  0.00    -0.211 OA 
HETATM   18  C   UNL     1      -8.877  16.869  67.742  1.00  0.00    -0.217 C  
HETATM   19  C   UNL     1      -8.564  14.380  67.553  1.00  0.00    -0.199 C  
HETATM   20  C   UNL     1      -8.821  15.546  68.506  1.00  0.00    -0.186 C  
HETATM   21  H   UNL     1      -6.927  15.786  68.861  1.00  0.00     0.000 HD 
ENDBRANCH  15  16
ENDBRANCH   3  15
BRANCH  14  22
HETATM   22  C   UNL     1      -9.847   6.520  71.196  1.00  0.00    -0.198 C  
HETATM   23  C   UNL     1      -9.059   4.303  70.336  1.00  0.00    -0.171 C  
HETATM   24  C   UNL     1      -8.638   4.008  68.882  1.00  0.00    -0.084 C  
HETATM   25  C   UNL     1      -8.843   5.764  70.697  1.00  0.00    -0.145 C  
HETATM   26  O   UNL     1      -9.540   4.608  67.947  1.00  0.00    -0.145 OA 
HETATM   27  C   UNL     1      -7.214   4.482  68.594  1.00  0.00    -0.056 C  
HETATM   28  H   UNL     1      -9.280   4.425  67.051  1.00  0.00     0.000 HD 
HETATM   29  C   UNL     1      -7.025   5.957  68.956  1.00  0.00    -0.068 C  
HETATM   30  C   UNL     1      -7.504   6.250  70.375  1.00  0.00    -0.091 C  
HETATM   31  O   UNL     1      -5.647   6.294  68.794  1.00  0.00    -0.010 OA 
HETATM   32  C   UNL     1      -6.736   6.845  71.315  1.00  0.00    -0.057 C  
HETATM   33  H   UNL     1      -5.529   7.210  69.019  1.00  0.00     0.000 HD 
ENDBRANCH  14  22
TORSDOF 3
ENDMDL
MODEL       93
REMARK 921   NORMALIZED FREE ENERGY PREDICTED BY IDOCK:   -4.83 KCAL/MOL
REMARK 922        TOTAL FREE ENERGY PREDICTED BY IDOCK:   -6.64 KCAL/MOL
REMARK 923 INTER-LIGAND FREE ENERGY PREDICTED BY IDOCK:   -5.63 KCAL/MOL
REMARK 924 INTRA-LIGAND FREE ENERGY PREDICTED BY IDOCK:   -1.00 KCAL/MOL
REMARK 927      BINDING AFFINITY PREDICTED BY RF-SCORE:    0.00 PKD
ROOT
HETATM    1  C   UNL     1     -11.756  10.940  68.493  1.00  0.00    -0.307 C  
HETATM    2  C   UNL     1     -10.644   9.956  68.881  1.00  0.00    -0.239 C  
HETATM    3  C   UNL     1     -10.543   9.914  70.440  1.00  0.00    -0.364 C  
HETATM    4  C   UNL     1      -9.194  10.185  68.222  1.00  0.00    -0.130 C  
HETATM    5  C   UNL     1      -8.447   9.013  63.981  1.00  0.00    -0.175 C  
HETATM    6  C   UNL     1      -8.321   8.987  68.587  1.00  0.00    -0.123 C  
HETATM    7  C   UNL     1      -8.769   7.908  67.618  1.00  0.00    -0.126 C  
HETATM    8  C   UNL     1      -7.700  10.504  65.974  1.00  0.00    -0.147 C  
HETATM    9  C   UNL     1      -9.082  10.162  66.632  1.00  0.00    -0.164 C  
HETATM   10  C   UNL     1      -9.321   8.613  66.331  1.00  0.00    -0.271 C  
HETATM   11  C   UNL     1     -10.021  11.249  66.059  1.00  0.00    -0.273 C  
HETATM   12  C   UNL     1      -8.603   8.030  65.098  1.00  0.00    -0.077 C  
HETATM   13  C   UNL     1      -7.743  10.292  64.430  1.00  0.00    -0.104 C  
HETATM   14  C   UNL     1      -8.093   6.777  65.082  1.00  0.00    -0.132 C  
ENDROOT
BRANCH   3  15
HETATM   15  C   UNL     1     -11.865   9.802  71.215  1.00  0.00    -0.481 C  
BRANCH  15  16
HETATM   16  C   UNL     1     -11.927   8.584  72.147  1.00  0.00    -0.451 C  
HETATM   17  O   UNL     1     -12.684   6.350  72.574  1.00  0.00    -0.522 OA 
HETATM   18  C   UNL     1     -12.077   6.801  70.329  1.00  0.00    -0.211 C  
HETATM   19  C   UNL     1     -14.181   7.744  71.336  1.00  0.00    -0.489 C  
HETATM   20  C   UNL     1     -12.718   7.386  71.589  1.00  0.00    -0.365 C  
HETATM   21  H   UNL     1     -13.173   5.611  72.230  1.00  0.00     0.000 HD 
ENDBRANCH  15  16
ENDBRANCH   3  15
BRANCH  14  22
HETATM   22  C   UNL     1      -6.968   6.303  64.291  1.00  0.00    -0.047 C  
HETATM   23  C   UNL     1      -5.631   4.517  63.153  1.00  0.00    -0.016 C  
HETATM   24  C   UNL     1      -5.538   3.045  63.606  1.00  0.00    -0.009 C  
HETATM   25  C   UNL     1      -6.944   5.154  63.580  1.00  0.00    -0.047 C  
HETATM   26  O   UNL     1      -5.387   2.947  65.026  1.00  0.00    -0.008 OA 
HETATM   27  C   UNL     1      -6.757   2.236  63.166  1.00  0.00    -0.026 C  
HETATM   28  H   UNL     1      -5.329   2.041  65.305  1.00  0.00     0.000 HD 
HETATM   29  C   UNL     1      -8.064   2.892  63.616  1.00  0.00    -0.082 C  
HETATM   30  C   UNL     1      -8.118   4.364  63.217  1.00  0.00    -0.089 C  
HETATM   31  O   UNL     1      -9.158   2.163  63.055  1.00  0.00    -0.090 OA 
HETATM   32  C   UNL     1      -9.130   4.910  62.507  1.00  0.00    -0.066 C  
HETATM   33  H   UNL     1      -9.970   2.570  63.334  1.00  0.00     0.000 HD 
ENDBRANCH  14  22
TORSDOF 3
ENDMDL
MODEL       94
REMARK 921   NORMALIZED FREE ENERGY PREDICTED BY IDOCK:   -4.80 KCAL/MOL
REMARK 922        TOTAL FREE ENERGY PREDICTED BY IDOCK:   -6.60 KCAL/MOL
REMARK 923 INTER-LIGAND FREE ENERGY PREDICTED BY IDOCK:   -5.17 KCAL/MOL
REMARK 924 INTRA-LIGAND FREE ENERGY PREDICTED BY IDOCK:   -1.43 KCAL/MOL
REMARK 927      BINDING AFFINITY PREDICTED BY RF-SCORE:    0.00 PKD
ROOT
HETATM    1  C   UNL     1      -7.731   5.849  68.983  1.00  0.00    -0.091 C  
HETATM    2  C   UNL     1      -8.360   7.028  69.741  1.00  0.00    -0.132 C  
HETATM    3  C   UNL     1      -9.015   6.481  71.049  1.00  0.00    -0.146 C  
HETATM    4  C   UNL     1      -9.394   7.957  68.930  1.00  0.00    -0.150 C  
HETATM    5  C   UNL     1      -7.887  10.945  65.979  1.00  0.00    -0.121 C  
HETATM    6  C   UNL     1      -9.724   9.161  69.809  1.00  0.00    -0.191 C  
HETATM    7  C   UNL     1      -8.522  10.072  69.638  1.00  0.00    -0.193 C  
HETATM    8  C   UNL     1      -9.901   9.494  66.747  1.00  0.00    -0.277 C  
HETATM    9  C   UNL     1      -8.872   8.684  67.611  1.00  0.00    -0.138 C  
HETATM   10  C   UNL     1      -7.890   9.778  68.233  1.00  0.00    -0.089 C  
HETATM   11  C   UNL     1      -8.360   7.606  66.627  1.00  0.00    -0.127 C  
HETATM   12  C   UNL     1      -7.755  11.104  67.460  1.00  0.00    -0.116 C  
HETATM   13  C   UNL     1      -9.188  10.250  65.584  1.00  0.00    -0.225 C  
HETATM   14  C   UNL     1      -7.622  12.296  68.086  1.00  0.00    -0.127 C  
ENDROOT
BRANCH   3  15
HETATM   15  C   UNL     1      -8.180   5.493  71.880  1.00  0.00    -0.119 C  
BRANCH  15  16
HETATM   16  C   UNL     1      -8.814   4.101  71.996  1.00  0.00    -0.135 C  
HETATM   17  O   UNL     1      -8.612   1.719  71.803  1.00  0.00    -0.057 OA 
HETATM   18  C   UNL     1      -6.689   2.836  72.620  1.00  0.00    -0.022 C  
HETATM   19  C   UNL     1      -7.381   3.007  70.208  1.00  0.00    -0.040 C  
HETATM   20  C   UNL     1      -7.869   2.933  71.653  1.00  0.00    -0.056 C  
HETATM   21  H   UNL     1      -8.029   0.999  71.592  1.00  0.00     0.000 HD 
ENDBRANCH  15  16
ENDBRANCH   3  15
BRANCH  14  22
HETATM   22  C   UNL     1      -8.035  13.597  67.583  1.00  0.00    -0.180 C  
HETATM   23  C   UNL     1      -9.589  15.126  66.350  1.00  0.00    -0.309 C  
HETATM   24  C   UNL     1     -10.476  14.723  65.154  1.00  0.00    -0.418 C  
HETATM   25  C   UNL     1      -9.301  13.942  67.259  1.00  0.00    -0.231 C  
HETATM   26  O   UNL     1      -9.760  13.897  64.230  1.00  0.00    -0.553 OA 
HETATM   27  C   UNL     1     -11.746  14.003  65.604  1.00  0.00    -0.356 C  
HETATM   28  H   UNL     1     -10.306  13.649  63.494  1.00  0.00     0.000 HD 
HETATM   29  C   UNL     1     -11.430  12.810  66.509  1.00  0.00    -0.355 C  
HETATM   30  C   UNL     1     -10.501  13.207  67.653  1.00  0.00    -0.225 C  
HETATM   31  O   UNL     1     -12.657  12.271  67.002  1.00  0.00     0.145 OA 
HETATM   32  C   UNL     1     -10.779  12.979  68.955  1.00  0.00    -0.138 C  
HETATM   33  H   UNL     1     -12.462  11.531  67.564  1.00  0.00     0.000 HD 
ENDBRANCH  14  22
TORSDOF 3
ENDMDL
MODEL       95
REMARK 921   NORMALIZED FREE ENERGY PREDICTED BY IDOCK:   -4.70 KCAL/MOL
REMARK 922        TOTAL FREE ENERGY PREDICTED BY IDOCK:   -6.49 KCAL/MOL
REMARK 923 INTER-LIGAND FREE ENERGY PREDICTED BY IDOCK:   -4.91 KCAL/MOL
REMARK 924 INTRA-LIGAND FREE ENERGY PREDICTED BY IDOCK:   -1.59 KCAL/MOL
REMARK 927      BINDING AFFINITY PREDICTED BY RF-SCORE:    0.00 PKD
ROOT
HETATM    1  C   UNL     1      -7.339  10.276  68.357  1.00  0.00    -0.084 C  
HETATM    2  C   UNL     1      -8.749  10.884  68.392  1.00  0.00    -0.147 C  
HETATM    3  C   UNL     1      -9.785   9.744  68.131  1.00  0.00    -0.163 C  
HETATM    4  C   UNL     1      -9.033  12.143  67.432  1.00  0.00    -0.180 C  
HETATM    5  C   UNL     1      -7.501  16.189  68.526  1.00  0.00    -0.167 C  
HETATM    6  C   UNL     1     -10.412  12.696  67.783  1.00  0.00    -0.228 C  
HETATM    7  C   UNL     1     -10.164  13.506  69.041  1.00  0.00     0.025 C  
HETATM    8  C   UNL     1      -8.317  14.633  66.611  1.00  0.00     0.043 C  
HETATM    9  C   UNL     1      -8.133  13.445  67.619  1.00  0.00    -0.175 C  
HETATM   10  C   UNL     1      -8.673  13.992  69.018  1.00  0.00     0.166 C  
HETATM   11  C   UNL     1      -6.650  13.049  67.426  1.00  0.00    -0.115 C  
HETATM   12  C   UNL     1      -8.643  15.519  69.221  1.00  0.00    -0.263 C  
HETATM   13  C   UNL     1      -7.463  15.868  67.033  1.00  0.00    -0.254 C  
HETATM   14  C   UNL     1      -9.615  16.179  69.892  1.00  0.00     0.226 C  
ENDROOT
BRANCH   3  15
HETATM   15  C   UNL     1      -9.580   8.432  68.906  1.00  0.00    -0.153 C  
BRANCH  15  16
HETATM   16  C   UNL     1     -10.848   7.931  69.608  1.00  0.00    -0.177 C  
HETATM   17  O   UNL     1     -12.376   8.065  71.452  1.00  0.00    -0.305 OA 
HETATM   18  C   UNL     1     -11.488  10.136  70.720  1.00  0.00    -0.442 C  
HETATM   19  C   UNL     1     -10.076   8.469  71.966  1.00  0.00    -0.386 C  
HETATM   20  C   UNL     1     -11.181   8.652  70.928  1.00  0.00    -0.267 C  
HETATM   21  H   UNL     1     -12.581   8.510  72.266  1.00  0.00     0.000 HD 
ENDBRANCH  15  16
ENDBRANCH   3  15
BRANCH  14  22
HETATM   22  C   UNL     1     -10.026  17.561  69.697  1.00  0.00     0.272 C  
HETATM   23  C   UNL     1     -10.445  19.592  68.291  1.00  0.00    -0.442 C  
HETATM   24  C   UNL     1      -9.682  19.957  67.000  1.00  0.00    -0.401 C  
HETATM   25  C   UNL     1     -10.456  18.090  68.529  1.00  0.00    -0.291 C  
HETATM   26  O   UNL     1      -8.276  19.740  67.148  1.00  0.00    -0.277 OA 
HETATM   27  C   UNL     1     -10.196  19.172  65.794  1.00  0.00    -0.270 C  
HETATM   28  H   UNL     1      -7.806  19.965  66.354  1.00  0.00     0.000 HD 
HETATM   29  C   UNL     1     -10.189  17.664  66.056  1.00  0.00    -0.297 C  
HETATM   30  C   UNL     1     -10.890  17.320  67.366  1.00  0.00    -0.167 C  
HETATM   31  O   UNL     1     -10.806  17.006  64.949  1.00  0.00    -0.717 OA 
HETATM   32  C   UNL     1     -11.901  16.428  67.461  1.00  0.00     0.730 C  
HETATM   33  H   UNL     1     -10.802  16.069  65.110  1.00  0.00     0.000 HD 
ENDBRANCH  14  22
TORSDOF 3
ENDMDL
MODEL       96
REMARK 921   NORMALIZED FREE ENERGY PREDICTED BY IDOCK:   -4.70 KCAL/MOL
REMARK 922        TOTAL FREE ENERGY PREDICTED BY IDOCK:   -6.48 KCAL/MOL
REMARK 923 INTER-LIGAND FREE ENERGY PREDICTED BY IDOCK:   -4.83 KCAL/MOL
REMARK 924 INTRA-LIGAND FREE ENERGY PREDICTED BY IDOCK:   -1.65 KCAL/MOL
REMARK 927      BINDING AFFINITY PREDICTED BY RF-SCORE:    0.00 PKD
ROOT
HETATM    1  C   UNL     1     -10.343  10.325  66.093  1.00  0.00    -0.253 C  
HETATM    2  C   UNL     1      -9.927  10.316  67.571  1.00  0.00    -0.226 C  
HETATM    3  C   UNL     1      -9.507  11.766  67.974  1.00  0.00    -0.188 C  
HETATM    4  C   UNL     1      -8.804   9.252  68.015  1.00  0.00    -0.128 C  
HETATM    5  C   UNL     1      -9.865   4.948  68.518  1.00  0.00    -0.208 C  
HETATM    6  C   UNL     1      -8.704   9.288  69.537  1.00  0.00    -0.146 C  
HETATM    7  C   UNL     1      -9.894   8.465  69.995  1.00  0.00    -0.182 C  
HETATM    8  C   UNL     1      -7.966   6.668  68.086  1.00  0.00    -0.110 C  
HETATM    9  C   UNL     1      -9.100   7.705  67.771  1.00  0.00    -0.131 C  
HETATM   10  C   UNL     1     -10.234   7.436  68.861  1.00  0.00    -0.200 C  
HETATM   11  C   UNL     1      -9.364   7.488  66.262  1.00  0.00    -0.176 C  
HETATM   12  C   UNL     1     -10.283   6.021  69.471  1.00  0.00    -0.267 C  
HETATM   13  C   UNL     1      -8.481   5.205  67.926  1.00  0.00    -0.104 C  
HETATM   14  C   UNL     1     -10.590   5.804  70.771  1.00  0.00    -0.337 C  
ENDROOT
BRANCH   3  15
HETATM   15  C   UNL     1     -10.435  12.905  67.525  1.00  0.00    -0.226 C  
BRANCH  15  16
HETATM   16  C   UNL     1      -9.769  14.287  67.554  1.00  0.00    -0.223 C  
HETATM   17  O   UNL     1      -9.959  16.673  67.412  1.00  0.00    -0.254 OA 
HETATM   18  C   UNL     1     -11.756  15.577  68.500  1.00  0.00    -0.351 C  
HETATM   19  C   UNL     1     -11.436  15.419  66.010  1.00  0.00    -0.002 C  
HETATM   20  C   UNL     1     -10.735  15.472  67.366  1.00  0.00    -0.301 C  
HETATM   21  H   UNL     1     -10.556  17.404  67.296  1.00  0.00     0.000 HD 
ENDBRANCH  15  16
ENDBRANCH   3  15
BRANCH  14  22
HETATM   22  C   UNL     1     -10.151   4.689  71.596  1.00  0.00    -0.258 C  
HETATM   23  C   UNL     1      -8.451   3.034  72.397  1.00  0.00    -0.079 C  
HETATM   24  C   UNL     1      -7.289   2.468  71.554  1.00  0.00    -0.040 C  
HETATM   25  C   UNL     1      -8.868   4.416  71.921  1.00  0.00    -0.139 C  
HETATM   26  O   UNL     1      -7.722   2.132  70.232  1.00  0.00    -0.042 OA 
HETATM   27  C   UNL     1      -6.116   3.443  71.474  1.00  0.00    -0.014 C  
HETATM   28  H   UNL     1      -7.006   1.783  69.713  1.00  0.00     0.000 HD 
HETATM   29  C   UNL     1      -6.559   4.823  70.984  1.00  0.00    -0.031 C  
HETATM   30  C   UNL     1      -7.749   5.345  71.784  1.00  0.00    -0.110 C  
HETATM   31  O   UNL     1      -5.448   5.717  71.066  1.00  0.00    -0.009 OA 
HETATM   32  C   UNL     1      -7.765   6.547  72.402  1.00  0.00    -0.096 C  
HETATM   33  H   UNL     1      -5.723   6.574  70.762  1.00  0.00     0.000 HD 
ENDBRANCH  14  22
TORSDOF 3
ENDMDL
MODEL       97
REMARK 921   NORMALIZED FREE ENERGY PREDICTED BY IDOCK:   -4.56 KCAL/MOL
REMARK 922        TOTAL FREE ENERGY PREDICTED BY IDOCK:   -6.32 KCAL/MOL
REMARK 923 INTER-LIGAND FREE ENERGY PREDICTED BY IDOCK:   -5.14 KCAL/MOL
REMARK 924 INTRA-LIGAND FREE ENERGY PREDICTED BY IDOCK:   -1.18 KCAL/MOL
REMARK 927      BINDING AFFINITY PREDICTED BY RF-SCORE:    0.00 PKD
ROOT
HETATM    1  C   UNL     1     -10.361  12.575  66.028  1.00  0.00    -0.277 C  
HETATM    2  C   UNL     1      -9.153  12.313  66.939  1.00  0.00    -0.208 C  
HETATM    3  C   UNL     1      -8.450  13.677  67.230  1.00  0.00    -0.203 C  
HETATM    4  C   UNL     1      -8.085  11.213  66.449  1.00  0.00    -0.159 C  
HETATM    5  C   UNL     1      -9.017   6.865  66.808  1.00  0.00    -0.141 C  
HETATM    6  C   UNL     1      -7.100  10.980  67.591  1.00  0.00    -0.088 C  
HETATM    7  C   UNL     1      -7.855  10.062  68.535  1.00  0.00    -0.093 C  
HETATM    8  C   UNL     1      -7.600   8.678  65.601  1.00  0.00    -0.086 C  
HETATM    9  C   UNL     1      -8.603   9.728  66.194  1.00  0.00    -0.138 C  
HETATM   10  C   UNL     1      -8.889   9.243  67.686  1.00  0.00    -0.122 C  
HETATM   11  C   UNL     1      -9.728   9.777  65.132  1.00  0.00    -0.338 C  
HETATM   12  C   UNL     1      -8.692   7.742  67.975  1.00  0.00    -0.125 C  
HETATM   13  C   UNL     1      -8.237   7.255  65.554  1.00  0.00    -0.139 C  
HETATM   14  C   UNL     1      -8.187   7.290  69.146  1.00  0.00    -0.122 C  
ENDROOT
BRANCH   3  15
HETATM   15  C   UNL     1      -9.359  14.856  67.611  1.00  0.00    -0.191 C  
BRANCH  15  16
HETATM   16  C   UNL     1      -9.497  15.059  69.126  1.00  0.00    -0.195 C  
HETATM   17  O   UNL     1     -10.889  15.143  71.077  1.00  0.00    -0.531 OA 
HETATM   18  C   UNL     1     -11.496  13.511  69.470  1.00  0.00    -0.318 C  
HETATM   19  C   UNL     1     -11.868  15.964  69.057  1.00  0.00    -0.328 C  
HETATM   20  C   UNL     1     -10.934  14.920  69.665  1.00  0.00    -0.274 C  
HETATM   21  H   UNL     1     -11.775  15.057  71.409  1.00  0.00     0.000 HD 
ENDBRANCH  15  16
ENDBRANCH   3  15
BRANCH  14  22
HETATM   22  C   UNL     1      -7.445   6.056  69.358  1.00  0.00    -0.088 C  
HETATM   23  C   UNL     1      -6.864   3.992  70.652  1.00  0.00    -0.033 C  
HETATM   24  C   UNL     1      -6.944   3.848  72.187  1.00  0.00    -0.049 C  
HETATM   25  C   UNL     1      -7.851   5.026  70.134  1.00  0.00    -0.067 C  
HETATM   26  O   UNL     1      -6.425   5.008  72.845  1.00  0.00    -0.050 OA 
HETATM   27  C   UNL     1      -8.373   3.589  72.660  1.00  0.00    -0.081 C  
HETATM   28  H   UNL     1      -6.474   4.919  73.790  1.00  0.00     0.000 HD 
HETATM   29  C   UNL     1      -9.345   4.647  72.133  1.00  0.00    -0.136 C  
HETATM   30  C   UNL     1      -9.212   4.826  70.624  1.00  0.00    -0.191 C  
HETATM   31  O   UNL     1     -10.673   4.269  72.496  1.00  0.00    -0.151 OA 
HETATM   32  C   UNL     1     -10.252   4.732  69.765  1.00  0.00    -0.218 C  
HETATM   33  H   UNL     1     -11.277   4.925  72.169  1.00  0.00     0.000 HD 
ENDBRANCH  14  22
TORSDOF 3
ENDMDL
MODEL       98
REMARK 921   NORMALIZED FREE ENERGY PREDICTED BY IDOCK:   -4.43 KCAL/MOL
REMARK 922        TOTAL FREE ENERGY PREDICTED BY IDOCK:   -6.17 KCAL/MOL
REMARK 923 INTER-LIGAND FREE ENERGY PREDICTED BY IDOCK:   -4.84 KCAL/MOL
REMARK 924 INTRA-LIGAND FREE ENERGY PREDICTED BY IDOCK:   -1.32 KCAL/MOL
REMARK 927      BINDING AFFINITY PREDICTED BY RF-SCORE:    0.00 PKD
ROOT
HETATM    1  C   UNL     1      -5.806   8.175  70.406  1.00  0.00    -0.028 C  
HETATM    2  C   UNL     1      -7.125   7.837  69.697  1.00  0.00    -0.063 C  
HETATM    3  C   UNL     1      -7.171   6.295  69.449  1.00  0.00    -0.082 C  
HETATM    4  C   UNL     1      -7.462   8.642  68.344  1.00  0.00    -0.095 C  
HETATM    5  C   UNL     1      -8.908  12.858  68.544  1.00  0.00    -0.044 C  
HETATM    6  C   UNL     1      -8.891   8.291  67.937  1.00  0.00    -0.138 C  
HETATM    7  C   UNL     1      -9.745   9.149  68.852  1.00  0.00    -0.165 C  
HETATM    8  C   UNL     1      -7.762  11.034  67.091  1.00  0.00    -0.131 C  
HETATM    9  C   UNL     1      -7.555  10.231  68.422  1.00  0.00    -0.092 C  
HETATM   10  C   UNL     1      -8.910  10.418  69.243  1.00  0.00    -0.166 C  
HETATM   11  C   UNL     1      -6.208  10.775  68.954  1.00  0.00    -0.041 C  
HETATM   12  C   UNL     1      -9.741  11.677  68.928  1.00  0.00    -0.029 C  
HETATM   13  C   UNL     1      -7.973  12.553  67.376  1.00  0.00    -0.180 C  
HETATM   14  C   UNL     1     -11.094  11.668  68.917  1.00  0.00    -0.287 C  
ENDROOT
BRANCH   3  15
HETATM   15  C   UNL     1      -6.771   5.393  70.628  1.00  0.00    -0.044 C  
BRANCH  15  16
HETATM   16  C   UNL     1      -7.969   4.793  71.375  1.00  0.00    -0.101 C  
HETATM   17  O   UNL     1      -9.169   4.466  73.425  1.00  0.00    -0.112 OA 
HETATM   18  C   UNL     1      -8.154   6.592  73.174  1.00  0.00    -0.106 C  
HETATM   19  C   UNL     1      -6.785   4.526  73.605  1.00  0.00    -0.063 C  
HETATM   20  C   UNL     1      -8.005   5.098  72.885  1.00  0.00    -0.102 C  
HETATM   21  H   UNL     1      -9.190   4.654  74.357  1.00  0.00     0.000 HD 
ENDBRANCH  15  16
ENDBRANCH   3  15
BRANCH  14  22
HETATM   22  C   UNL     1     -11.966  12.532  68.137  1.00  0.00    -0.274 C  
HETATM   23  C   UNL     1     -12.493  13.983  66.164  1.00  0.00    -0.467 C  
HETATM   24  C   UNL     1     -11.465  14.814  65.367  1.00  0.00    -0.341 C  
HETATM   25  C   UNL     1     -11.849  12.766  66.811  1.00  0.00    -0.452 C  
HETATM   26  O   UNL     1     -10.547  15.480  66.239  1.00  0.00    -0.295 OA 
HETATM   27  C   UNL     1     -10.690  13.956  64.369  1.00  0.00    -0.286 C  
HETATM   28  H   UNL     1      -9.915  15.992  65.749  1.00  0.00     0.000 HD 
HETATM   29  C   UNL     1     -10.045  12.744  65.045  1.00  0.00    -0.218 C  
HETATM   30  C   UNL     1     -11.056  11.966  65.881  1.00  0.00    -0.365 C  
HETATM   31  O   UNL     1      -9.458  11.918  64.039  1.00  0.00    -0.477 OA 
HETATM   32  C   UNL     1     -11.282  10.641  65.738  1.00  0.00     0.397 C  
HETATM   33  H   UNL     1      -9.057  11.165  64.458  1.00  0.00     0.000 HD 
ENDBRANCH  14  22
TORSDOF 3
ENDMDL
MODEL       99
REMARK 921   NORMALIZED FREE ENERGY PREDICTED BY IDOCK:   -4.36 KCAL/MOL
REMARK 922        TOTAL FREE ENERGY PREDICTED BY IDOCK:   -6.09 KCAL/MOL
REMARK 923 INTER-LIGAND FREE ENERGY PREDICTED BY IDOCK:   -5.13 KCAL/MOL
REMARK 924 INTRA-LIGAND FREE ENERGY PREDICTED BY IDOCK:   -0.96 KCAL/MOL
REMARK 927      BINDING AFFINITY PREDICTED BY RF-SCORE:    0.00 PKD
ROOT
HETATM    1  C   UNL     1      -9.855   8.562  66.493  1.00  0.00    -0.342 C  
HETATM    2  C   UNL     1      -8.898   9.301  67.440  1.00  0.00    -0.124 C  
HETATM    3  C   UNL     1      -7.866   8.271  68.003  1.00  0.00    -0.118 C  
HETATM    4  C   UNL     1      -9.557  10.158  68.633  1.00  0.00    -0.165 C  
HETATM    5  C   UNL     1     -11.423  14.120  67.782  1.00  0.00    -0.352 C  
HETATM    6  C   UNL     1      -8.442  10.955  69.304  1.00  0.00    -0.006 C  
HETATM    7  C   UNL     1      -8.223  12.128  68.366  1.00  0.00    -0.145 C  
HETATM    8  C   UNL     1     -11.309  12.089  69.398  1.00  0.00    -0.317 C  
HETATM    9  C   UNL     1     -10.568  11.327  68.244  1.00  0.00    -0.228 C  
HETATM   10  C   UNL     1      -9.569  12.396  67.606  1.00  0.00    -0.193 C  
HETATM   11  C   UNL     1     -11.729  10.719  67.423  1.00  0.00     0.316 C  
HETATM   12  C   UNL     1      -9.947  13.880  67.773  1.00  0.00    -0.241 C  
HETATM   13  C   UNL     1     -12.140  13.285  68.840  1.00  0.00    -0.260 C  
HETATM   14  C   UNL     1      -9.021  14.845  67.980  1.00  0.00    -0.172 C  
ENDROOT
BRANCH   3  15
HETATM   15  C   UNL     1      -7.227   7.309  66.989  1.00  0.00    -0.092 C  
BRANCH  15  16
HETATM   16  C   UNL     1      -6.909   5.927  67.573  1.00  0.00    -0.060 C  
HETATM   17  O   UNL     1      -7.408   3.586  67.725  1.00  0.00    -0.058 OA 
HETATM   18  C   UNL     1      -7.710   4.549  65.582  1.00  0.00    -0.093 C  
HETATM   19  C   UNL     1      -9.287   5.043  67.477  1.00  0.00    -0.138 C  
HETATM   20  C   UNL     1      -7.832   4.793  67.086  1.00  0.00    -0.095 C  
HETATM   21  H   UNL     1      -7.978   2.887  67.424  1.00  0.00     0.000 HD 
ENDBRANCH  15  16
ENDBRANCH   3  15
BRANCH  14  22
HETATM   22  C   UNL     1      -9.214  16.103  68.683  1.00  0.00    -0.220 C  
HETATM   23  C   UNL     1      -8.704  18.514  69.133  1.00  0.00     0.054 C  
HETATM   24  C   UNL     1      -7.330  19.188  68.935  1.00  0.00    -0.344 C  
HETATM   25  C   UNL     1      -8.883  17.323  68.204  1.00  0.00    -0.239 C  
HETATM   26  O   UNL     1      -6.269  18.359  69.421  1.00  0.00    -0.246 OA 
HETATM   27  C   UNL     1      -7.073  19.538  67.470  1.00  0.00    -0.245 C  
HETATM   28  H   UNL     1      -5.423  18.774  69.300  1.00  0.00     0.000 HD 
HETATM   29  C   UNL     1      -7.250  18.322  66.558  1.00  0.00    -0.232 C  
HETATM   30  C   UNL     1      -8.586  17.627  66.807  1.00  0.00    -0.276 C  
HETATM   31  O   UNL     1      -7.133  18.748  65.200  1.00  0.00    -0.474 OA 
HETATM   32  C   UNL     1      -9.487  17.368  65.833  1.00  0.00    -0.022 C  
HETATM   33  H   UNL     1      -7.243  17.994  64.633  1.00  0.00     0.000 HD 
ENDBRANCH  14  22
TORSDOF 3
ENDMDL
MODEL      100
REMARK 921   NORMALIZED FREE ENERGY PREDICTED BY IDOCK:   -4.30 KCAL/MOL
REMARK 922        TOTAL FREE ENERGY PREDICTED BY IDOCK:   -6.02 KCAL/MOL
REMARK 923 INTER-LIGAND FREE ENERGY PREDICTED BY IDOCK:   -4.32 KCAL/MOL
REMARK 924 INTRA-LIGAND FREE ENERGY PREDICTED BY IDOCK:   -1.70 KCAL/MOL
REMARK 927      BINDING AFFINITY PREDICTED BY RF-SCORE:    0.00 PKD
ROOT
HETATM    1  C   UNL     1      -8.967  13.627  66.544  1.00  0.00    -0.068 C  
HETATM    2  C   UNL     1      -7.982  12.955  67.511  1.00  0.00    -0.178 C  
HETATM    3  C   UNL     1      -6.636  13.747  67.474  1.00  0.00    -0.113 C  
HETATM    4  C   UNL     1      -7.721  11.379  67.320  1.00  0.00    -0.145 C  
HETATM    5  C   UNL     1     -10.758   8.419  68.709  1.00  0.00    -0.086 C  
HETATM    6  C   UNL     1      -6.881  10.899  68.501  1.00  0.00    -0.059 C  
HETATM    7  C   UNL     1      -7.889  10.760  69.627  1.00  0.00     0.023 C  
HETATM    8  C   UNL     1      -8.752   8.872  67.121  1.00  0.00    -0.126 C  
HETATM    9  C   UNL     1      -8.971  10.395  67.425  1.00  0.00    -0.140 C  
HETATM   10  C   UNL     1      -9.292  10.472  68.986  1.00  0.00    -0.205 C  
HETATM   11  C   UNL     1     -10.016  10.817  66.365  1.00  0.00    -0.264 C  
HETATM   12  C   UNL     1      -9.884   9.206  69.633  1.00  0.00    -0.188 C  
HETATM   13  C   UNL     1     -10.043   8.048  67.411  1.00  0.00    -0.294 C  
HETATM   14  C   UNL     1      -9.559   8.814  70.887  1.00  0.00    -0.275 C  
ENDROOT
BRANCH   3  15
HETATM   15  C   UNL     1      -6.733  15.280  67.542  1.00  0.00    -0.197 C  
BRANCH  15  16
HETATM   16  C   UNL     1      -6.313  15.860  68.898  1.00  0.00    -0.122 C  
HETATM   17  O   UNL     1      -5.845  17.772  70.268  1.00  0.00    -0.238 OA 
HETATM   18  C   UNL     1      -7.626  18.041  68.730  1.00  0.00    -0.277 C  
HETATM   19  C   UNL     1      -5.231  17.960  67.965  1.00  0.00    -0.147 C  
HETATM   20  C   UNL     1      -6.256  17.399  68.950  1.00  0.00    -0.198 C  
HETATM   21  H   UNL     1      -5.810  18.721  70.300  1.00  0.00     0.000 HD 
ENDBRANCH  15  16
ENDBRANCH   3  15
BRANCH  14  22
HETATM   22  C   UNL     1      -9.562   7.454  71.404  1.00  0.00    -0.167 C  
HETATM   23  C   UNL     1      -9.071   5.003  71.250  1.00  0.00    -0.176 C  
HETATM   24  C   UNL     1      -9.033   4.180  69.945  1.00  0.00    -0.099 C  
HETATM   25  C   UNL     1      -8.734   6.465  71.001  1.00  0.00    -0.135 C  
HETATM   26  O   UNL     1     -10.125   4.520  69.085  1.00  0.00    -0.154 OA 
HETATM   27  C   UNL     1      -7.715   4.362  69.195  1.00  0.00    -0.055 C  
HETATM   28  H   UNL     1     -10.102   4.013  68.282  1.00  0.00     0.000 HD 
HETATM   29  C   UNL     1      -7.404   5.840  68.948  1.00  0.00    -0.083 C  
HETATM   30  C   UNL     1      -7.505   6.655  70.234  1.00  0.00    -0.094 C  
HETATM   31  O   UNL     1      -6.101   5.942  68.371  1.00  0.00    -0.019 OA 
HETATM   32  C   UNL     1      -6.512   7.445  70.698  1.00  0.00    -0.039 C  
HETATM   33  H   UNL     1      -5.908   6.860  68.217  1.00  0.00     0.000 HD 
ENDBRANCH  14  22
TORSDOF 3
ENDMDL
MODEL      101
REMARK 921   NORMALIZED FREE ENERGY PREDICTED BY IDOCK:   -4.22 KCAL/MOL
REMARK 922        TOTAL FREE ENERGY PREDICTED BY IDOCK:   -5.92 KCAL/MOL
REMARK 923 INTER-LIGAND FREE ENERGY PREDICTED BY IDOCK:   -4.24 KCAL/MOL
REMARK 924 INTRA-LIGAND FREE ENERGY PREDICTED BY IDOCK:   -1.68 KCAL/MOL
REMARK 927      BINDING AFFINITY PREDICTED BY RF-SCORE:    0.00 PKD
ROOT
HETATM    1  C   UNL     1      -7.066  10.687  68.281  1.00  0.00    -0.081 C  
HETATM    2  C   UNL     1      -8.375  10.017  67.838  1.00  0.00    -0.117 C  
HETATM    3  C   UNL     1      -9.563  10.726  68.563  1.00  0.00    -0.183 C  
HETATM    4  C   UNL     1      -8.477   8.419  68.002  1.00  0.00    -0.132 C  
HETATM    5  C   UNL     1      -6.384   5.728  65.124  1.00  0.00    -0.037 C  
HETATM    6  C   UNL     1      -9.763   7.963  67.318  1.00  0.00    -0.230 C  
HETATM    7  C   UNL     1      -9.401   7.949  65.844  1.00  0.00    -0.059 C  
HETATM    8  C   UNL     1      -7.416   5.969  67.496  1.00  0.00    -0.082 C  
HETATM    9  C   UNL     1      -7.401   7.518  67.248  1.00  0.00    -0.098 C  
HETATM   10  C   UNL     1      -7.855   7.706  65.730  1.00  0.00    -0.106 C  
HETATM   11  C   UNL     1      -5.990   7.936  67.725  1.00  0.00    -0.042 C  
HETATM   12  C   UNL     1      -7.608   6.516  64.782  1.00  0.00    -0.099 C  
HETATM   13  C   UNL     1      -6.394   5.240  66.571  1.00  0.00    -0.036 C  
HETATM   14  C   UNL     1      -8.475   6.181  63.799  1.00  0.00     0.183 C  
ENDROOT
BRANCH   3  15
HETATM   15  C   UNL     1      -9.545  12.263  68.579  1.00  0.00    -0.128 C  
BRANCH  15  16
HETATM   16  C   UNL     1     -10.693  12.897  67.784  1.00  0.00    -0.238 C  
HETATM   17  O   UNL     1     -12.414  14.558  67.613  1.00  0.00    -0.595 OA 
HETATM   18  C   UNL     1     -10.418  15.273  68.670  1.00  0.00    -0.235 C  
HETATM   19  C   UNL     1     -12.010  13.690  69.804  1.00  0.00    -0.404 C  
HETATM   20  C   UNL     1     -11.372  14.094  68.477  1.00  0.00    -0.283 C  
HETATM   21  H   UNL     1     -12.833  15.297  68.041  1.00  0.00     0.000 HD 
ENDBRANCH  15  16
ENDBRANCH   3  15
BRANCH  14  22
HETATM   22  C   UNL     1      -8.685   4.856  63.235  1.00  0.00    -0.114 C  
HETATM   23  C   UNL     1      -8.882   2.364  63.393  1.00  0.00    -0.085 C  
HETATM   24  C   UNL     1      -8.156   1.475  64.424  1.00  0.00    -0.069 C  
HETATM   25  C   UNL     1      -9.104   3.772  63.924  1.00  0.00    -0.123 C  
HETATM   26  O   UNL     1      -6.792   1.874  64.586  1.00  0.00    -0.033 OA 
HETATM   27  C   UNL     1      -8.856   1.489  65.782  1.00  0.00    -0.120 C  
HETATM   28  H   UNL     1      -6.345   1.326  65.220  1.00  0.00     0.000 HD 
HETATM   29  C   UNL     1      -9.059   2.915  66.299  1.00  0.00    -0.132 C  
HETATM   30  C   UNL     1      -9.721   3.802  65.248  1.00  0.00    -0.167 C  
HETATM   31  O   UNL     1      -9.837   2.862  67.496  1.00  0.00    -0.305 OA 
HETATM   32  C   UNL     1     -10.846   4.516  65.473  1.00  0.00    -0.085 C  
HETATM   33  H   UNL     1      -9.963   3.747  67.817  1.00  0.00     0.000 HD 
ENDBRANCH  14  22
TORSDOF 3
ENDMDL
MODEL      102
REMARK 921   NORMALIZED FREE ENERGY PREDICTED BY IDOCK:   -4.22 KCAL/MOL
REMARK 922        TOTAL FREE ENERGY PREDICTED BY IDOCK:   -5.92 KCAL/MOL
REMARK 923 INTER-LIGAND FREE ENERGY PREDICTED BY IDOCK:   -6.69 KCAL/MOL
REMARK 924 INTRA-LIGAND FREE ENERGY PREDICTED BY IDOCK:    0.77 KCAL/MOL
REMARK 927      BINDING AFFINITY PREDICTED BY RF-SCORE:    0.00 PKD
ROOT
HETATM    1  C   UNL     1      -9.275   6.027  66.346  1.00  0.00    -0.163 C  
HETATM    2  C   UNL     1      -8.220   7.086  66.697  1.00  0.00    -0.112 C  
HETATM    3  C   UNL     1      -6.826   6.385  66.780  1.00  0.00    -0.066 C  
HETATM    4  C   UNL     1      -8.485   7.985  68.005  1.00  0.00    -0.126 C  
HETATM    5  C   UNL     1     -11.457  11.311  67.878  1.00  0.00    -0.360 C  
HETATM    6  C   UNL     1      -7.427   9.085  68.037  1.00  0.00    -0.084 C  
HETATM    7  C   UNL     1      -7.938  10.104  67.035  1.00  0.00    -0.110 C  
HETATM    8  C   UNL     1     -10.149   9.639  69.376  1.00  0.00    -0.213 C  
HETATM    9  C   UNL     1      -9.820   8.854  68.059  1.00  0.00    -0.199 C  
HETATM   10  C   UNL     1      -9.500   9.975  66.969  1.00  0.00    -0.197 C  
HETATM   11  C   UNL     1     -11.030   7.903  67.906  1.00  0.00     0.069 C  
HETATM   12  C   UNL     1     -10.124  11.364  67.202  1.00  0.00    -0.226 C  
HETATM   13  C   UNL     1     -11.408  10.541  69.196  1.00  0.00    -0.319 C  
HETATM   14  C   UNL     1      -9.473  12.511  66.900  1.00  0.00    -0.219 C  
ENDROOT
BRANCH   3  15
HETATM   15  C   UNL     1      -6.474   5.410  65.646  1.00  0.00    -0.040 C  
BRANCH  15  16
HETATM   16  C   UNL     1      -7.564   5.300  64.572  1.00  0.00    -0.077 C  
HETATM   17  O   UNL     1      -8.469   6.013  62.469  1.00  0.00    -0.234 OA 
HETATM   18  C   UNL     1      -6.104   5.916  62.573  1.00  0.00    -0.025 C  
HETATM   19  C   UNL     1      -7.399   7.705  63.777  1.00  0.00    -0.093 C  
HETATM   20  C   UNL     1      -7.374   6.235  63.362  1.00  0.00    -0.064 C  
HETATM   21  H   UNL     1      -8.351   6.591  61.723  1.00  0.00     0.000 HD 
ENDBRANCH  15  16
ENDBRANCH   3  15
BRANCH  14  22
HETATM   22  C   UNL     1      -9.648  13.807  67.536  1.00  0.00    -0.219 C  
HETATM   23  C   UNL     1     -10.114  16.268  67.504  1.00  0.00    -0.258 C  
HETATM   24  C   UNL     1      -9.779  17.225  66.341  1.00  0.00    -0.290 C  
HETATM   25  C   UNL     1     -10.337  14.846  67.012  1.00  0.00    -0.264 C  
HETATM   26  O   UNL     1      -8.476  16.963  65.811  1.00  0.00    -0.492 OA 
HETATM   27  C   UNL     1     -10.813  17.144  65.220  1.00  0.00    -0.043 C  
HETATM   28  H   UNL     1      -8.270  17.553  65.095  1.00  0.00     0.000 HD 
HETATM   29  C   UNL     1     -11.011  15.705  64.737  1.00  0.00    -0.400 C  
HETATM   30  C   UNL     1     -11.280  14.756  65.901  1.00  0.00    -0.340 C  
HETATM   31  O   UNL     1     -12.083  15.683  63.792  1.00  0.00    -1.013 OA 
HETATM   32  C   UNL     1     -12.352  13.935  65.965  1.00  0.00    -0.511 C  
HETATM   33  H   UNL     1     -12.206  14.791  63.492  1.00  0.00     0.000 HD 
ENDBRANCH  14  22
TORSDOF 3
ENDMDL
MODEL      103
REMARK 921   NORMALIZED FREE ENERGY PREDICTED BY IDOCK:   -4.16 KCAL/MOL
REMARK 922        TOTAL FREE ENERGY PREDICTED BY IDOCK:   -5.86 KCAL/MOL
REMARK 923 INTER-LIGAND FREE ENERGY PREDICTED BY IDOCK:   -5.48 KCAL/MOL
REMARK 924 INTRA-LIGAND FREE ENERGY PREDICTED BY IDOCK:   -0.37 KCAL/MOL
REMARK 927      BINDING AFFINITY PREDICTED BY RF-SCORE:    0.00 PKD
ROOT
HETATM    1  C   UNL     1     -11.027  12.953  64.749  1.00  0.00    -0.344 C  
HETATM    2  C   UNL     1     -10.490  12.762  66.175  1.00  0.00    -0.284 C  
HETATM    3  C   UNL     1     -10.165  14.168  66.773  1.00  0.00    -0.262 C  
HETATM    4  C   UNL     1      -9.245  11.760  66.365  1.00  0.00    -0.223 C  
HETATM    5  C   UNL     1      -9.882   7.345  66.250  1.00  0.00    -0.042 C  
HETATM    6  C   UNL     1      -9.022  11.574  67.864  1.00  0.00    -0.159 C  
HETATM    7  C   UNL     1     -10.093  10.577  68.266  1.00  0.00    -0.180 C  
HETATM    8  C   UNL     1      -8.183   9.290  65.968  1.00  0.00    -0.111 C  
HETATM    9  C   UNL     1      -9.425  10.246  65.900  1.00  0.00    -0.241 C  
HETATM   10  C   UNL     1     -10.435   9.703  67.009  1.00  0.00    -0.302 C  
HETATM   11  C   UNL     1      -9.794  10.235  64.398  1.00  0.00    -0.374 C  
HETATM   12  C   UNL     1     -10.310   8.215  67.389  1.00  0.00    -0.351 C  
HETATM   13  C   UNL     1      -8.580   7.825  65.613  1.00  0.00    -0.147 C  
HETATM   14  C   UNL     1     -10.487   7.774  68.656  1.00  0.00    -0.199 C  
ENDROOT
BRANCH   3  15
HETATM   15  C   UNL     1     -11.223  15.265  66.576  1.00  0.00    -0.228 C  
BRANCH  15  16
HETATM   16  C   UNL     1     -11.770  15.833  67.892  1.00  0.00    -0.048 C  
HETATM   17  O   UNL     1     -11.845  15.780  70.289  1.00  0.00    -0.325 OA 
HETATM   18  C   UNL     1      -9.728  15.316  69.332  1.00  0.00    -0.248 C  
HETATM   19  C   UNL     1     -11.619  13.663  69.202  1.00  0.00    -0.356 C  
HETATM   20  C   UNL     1     -11.238  15.141  69.162  1.00  0.00    -0.279 C  
HETATM   21  H   UNL     1     -11.517  15.353  71.072  1.00  0.00     0.000 HD 
ENDBRANCH  15  16
ENDBRANCH   3  15
BRANCH  14  22
HETATM   22  C   UNL     1      -9.886   6.595  69.261  1.00  0.00    -0.157 C  
HETATM   23  C   UNL     1      -7.940   5.139  69.866  1.00  0.00    -0.078 C  
HETATM   24  C   UNL     1      -6.634   5.012  69.055  1.00  0.00    -0.048 C  
HETATM   25  C   UNL     1      -8.598   6.494  69.660  1.00  0.00    -0.132 C  
HETATM   26  O   UNL     1      -6.900   4.924  67.651  1.00  0.00    -0.057 OA 
HETATM   27  C   UNL     1      -5.682   6.177  69.321  1.00  0.00    -0.019 C  
HETATM   28  H   UNL     1      -6.095   4.845  67.152  1.00  0.00     0.000 HD 
HETATM   29  C   UNL     1      -6.365   7.528  69.098  1.00  0.00    -0.035 C  
HETATM   30  C   UNL     1      -7.686   7.618  69.855  1.00  0.00    -0.097 C  
HETATM   31  O   UNL     1      -5.467   8.565  69.497  1.00  0.00    -0.030 OA 
HETATM   32  C   UNL     1      -7.989   8.616  70.715  1.00  0.00    -0.127 C  
HETATM   33  H   UNL     1      -5.891   9.404  69.359  1.00  0.00     0.000 HD 
ENDBRANCH  14  22
TORSDOF 3
ENDMDL
MODEL      104
REMARK 921   NORMALIZED FREE ENERGY PREDICTED BY IDOCK:   -4.12 KCAL/MOL
REMARK 922        TOTAL FREE ENERGY PREDICTED BY IDOCK:   -5.81 KCAL/MOL
REMARK 923 INTER-LIGAND FREE ENERGY PREDICTED BY IDOCK:   -5.01 KCAL/MOL
REMARK 924 INTRA-LIGAND FREE ENERGY PREDICTED BY IDOCK:   -0.79 KCAL/MOL
REMARK 927      BINDING AFFINITY PREDICTED BY RF-SCORE:    0.00 PKD
ROOT
HETATM    1  C   UNL     1      -9.817  13.098  67.149  1.00  0.00    -0.235 C  
HETATM    2  C   UNL     1     -10.076  11.863  68.025  1.00  0.00    -0.199 C  
HETATM    3  C   UNL     1     -10.919  12.306  69.264  1.00  0.00    -0.155 C  
HETATM    4  C   UNL     1      -8.796  11.002  68.483  1.00  0.00    -0.159 C  
HETATM    5  C   UNL     1      -6.789   8.256  65.596  1.00  0.00    -0.066 C  
HETATM    6  C   UNL     1      -9.306   9.733  69.160  1.00  0.00    -0.185 C  
HETATM    7  C   UNL     1      -9.695   8.838  67.998  1.00  0.00    -0.183 C  
HETATM    8  C   UNL     1      -6.550   9.645  67.779  1.00  0.00    -0.065 C  
HETATM    9  C   UNL     1      -7.866  10.382  67.348  1.00  0.00    -0.103 C  
HETATM   10  C   UNL     1      -8.816   9.241  66.763  1.00  0.00    -0.142 C  
HETATM   11  C   UNL     1      -7.346  11.534  66.456  1.00  0.00    -0.012 C  
HETATM   12  C   UNL     1      -8.124   7.980  66.211  1.00  0.00    -0.112 C  
HETATM   13  C   UNL     1      -5.848   8.983  66.554  1.00  0.00    -0.055 C  
HETATM   14  C   UNL     1      -8.648   6.742  66.361  1.00  0.00    -0.131 C  
ENDROOT
BRANCH   3  15
HETATM   15  C   UNL     1     -12.121  13.223  68.992  1.00  0.00    -0.268 C  
BRANCH  15  16
HETATM   16  C   UNL     1     -12.336  14.290  70.073  1.00  0.00    -0.403 C  
HETATM   17  O   UNL     1     -11.811  16.448  70.975  1.00  0.00    -0.589 OA 
HETATM   18  C   UNL     1     -11.861  16.325  68.610  1.00  0.00     0.024 C  
HETATM   19  C   UNL     1     -10.001  15.277  69.941  1.00  0.00    -0.176 C  
HETATM   20  C   UNL     1     -11.499  15.570  69.890  1.00  0.00    -0.327 C  
HETATM   21  H   UNL     1     -11.294  17.238  70.862  1.00  0.00     0.000 HD 
ENDBRANCH  15  16
ENDBRANCH   3  15
BRANCH  14  22
HETATM   22  C   UNL     1      -7.917   5.486  66.419  1.00  0.00    -0.105 C  
HETATM   23  C   UNL     1      -7.629   3.043  65.947  1.00  0.00    -0.073 C  
HETATM   24  C   UNL     1      -8.775   2.017  65.820  1.00  0.00    -0.119 C  
HETATM   25  C   UNL     1      -8.088   4.444  65.575  1.00  0.00    -0.105 C  
HETATM   26  O   UNL     1      -9.761   2.211  66.838  1.00  0.00    -0.364 OA 
HETATM   27  C   UNL     1      -9.441   2.074  64.446  1.00  0.00    -0.126 C  
HETATM   28  H   UNL     1     -10.466   1.579  66.760  1.00  0.00     0.000 HD 
HETATM   29  C   UNL     1      -9.901   3.492  64.099  1.00  0.00    -0.177 C  
HETATM   30  C   UNL     1      -8.778   4.507  64.289  1.00  0.00    -0.146 C  
HETATM   31  O   UNL     1     -10.385   3.499  62.755  1.00  0.00    -0.153 OA 
HETATM   32  C   UNL     1      -8.373   5.364  63.325  1.00  0.00    -0.104 C  
HETATM   33  H   UNL     1     -10.671   4.379  62.540  1.00  0.00     0.000 HD 
ENDBRANCH  14  22
TORSDOF 3
ENDMDL
MODEL      105
REMARK 921   NORMALIZED FREE ENERGY PREDICTED BY IDOCK:   -4.08 KCAL/MOL
REMARK 922        TOTAL FREE ENERGY PREDICTED BY IDOCK:   -5.76 KCAL/MOL
REMARK 923 INTER-LIGAND FREE ENERGY PREDICTED BY IDOCK:   -4.04 KCAL/MOL
REMARK 924 INTRA-LIGAND FREE ENERGY PREDICTED BY IDOCK:   -1.72 KCAL/MOL
REMARK 927      BINDING AFFINITY PREDICTED BY RF-SCORE:    0.00 PKD
ROOT
HETATM    1  C   UNL     1      -7.524  13.706  68.823  1.00  0.00    -0.088 C  
HETATM    2  C   UNL     1      -7.935  13.089  67.478  1.00  0.00    -0.177 C  
HETATM    3  C   UNL     1      -8.853  14.106  66.728  1.00  0.00    -0.190 C  
HETATM    4  C   UNL     1      -8.611  11.629  67.514  1.00  0.00    -0.149 C  
HETATM    5  C   UNL     1      -6.090   8.003  68.155  1.00  0.00    -0.046 C  
HETATM    6  C   UNL     1      -8.744  11.142  66.073  1.00  0.00    -0.185 C  
HETATM    7  C   UNL     1      -7.346  10.663  65.726  1.00  0.00    -0.110 C  
HETATM    8  C   UNL     1      -8.471   9.034  68.308  1.00  0.00    -0.129 C  
HETATM    9  C   UNL     1      -7.777  10.433  68.157  1.00  0.00    -0.092 C  
HETATM   10  C   UNL     1      -6.642  10.224  67.057  1.00  0.00    -0.074 C  
HETATM   11  C   UNL     1      -7.427  10.809  69.616  1.00  0.00    -0.082 C  
HETATM   12  C   UNL     1      -6.101   8.791  66.884  1.00  0.00    -0.058 C  
HETATM   13  C   UNL     1      -7.464   7.958  68.820  1.00  0.00    -0.095 C  
HETATM   14  C   UNL     1      -5.759   8.287  65.676  1.00  0.00    -0.040 C  
ENDROOT
BRANCH   3  15
HETATM   15  C   UNL     1      -8.385  15.570  66.700  1.00  0.00    -0.286 C  
BRANCH  15  16
HETATM   16  C   UNL     1      -9.441  16.540  66.156  1.00  0.00    -0.347 C  
HETATM   17  O   UNL     1     -10.724  18.550  66.414  1.00  0.00    -0.351 OA 
HETATM   18  C   UNL     1      -8.496  18.661  67.213  1.00  0.00    -0.275 C  
HETATM   19  C   UNL     1     -10.261  17.339  68.422  1.00  0.00    -0.358 C  
HETATM   20  C   UNL     1      -9.721  17.759  67.057  1.00  0.00    -0.290 C  
HETATM   21  H   UNL     1     -10.896  19.302  66.970  1.00  0.00     0.000 HD 
ENDBRANCH  15  16
ENDBRANCH   3  15
BRANCH  14  22
HETATM   22  C   UNL     1      -5.784   6.888  65.276  1.00  0.00    -0.031 C  
HETATM   23  C   UNL     1      -6.792   4.595  65.225  1.00  0.00    -0.060 C  
HETATM   24  C   UNL     1      -7.653   3.974  66.344  1.00  0.00    -0.089 C  
HETATM   25  C   UNL     1      -6.890   6.113  65.220  1.00  0.00    -0.048 C  
HETATM   26  O   UNL     1      -7.100   4.242  67.636  1.00  0.00    -0.062 OA 
HETATM   27  C   UNL     1      -9.097   4.470  66.294  1.00  0.00    -0.123 C  
HETATM   28  H   UNL     1      -7.630   3.858  68.325  1.00  0.00     0.000 HD 
HETATM   29  C   UNL     1      -9.169   5.999  66.299  1.00  0.00    -0.154 C  
HETATM   30  C   UNL     1      -8.266   6.605  65.230  1.00  0.00    -0.133 C  
HETATM   31  O   UNL     1     -10.530   6.393  66.111  1.00  0.00    -0.435 OA 
HETATM   32  C   UNL     1      -8.697   7.479  64.293  1.00  0.00     0.522 C  
HETATM   33  H   UNL     1     -10.575   7.342  66.114  1.00  0.00     0.000 HD 
ENDBRANCH  14  22
TORSDOF 3
ENDMDL
MODEL      106
REMARK 921   NORMALIZED FREE ENERGY PREDICTED BY IDOCK:   -3.89 KCAL/MOL
REMARK 922        TOTAL FREE ENERGY PREDICTED BY IDOCK:   -5.53 KCAL/MOL
REMARK 923 INTER-LIGAND FREE ENERGY PREDICTED BY IDOCK:   -4.60 KCAL/MOL
REMARK 924 INTRA-LIGAND FREE ENERGY PREDICTED BY IDOCK:   -0.93 KCAL/MOL
REMARK 927      BINDING AFFINITY PREDICTED BY RF-SCORE:    0.00 PKD
ROOT
HETATM    1  C   UNL     1     -11.603  13.583  69.431  1.00  0.00    -0.369 C  
HETATM    2  C   UNL     1     -10.508  12.809  68.682  1.00  0.00    -0.230 C  
HETATM    3  C   UNL     1     -10.094  13.634  67.422  1.00  0.00    -0.241 C  
HETATM    4  C   UNL     1     -10.825  11.282  68.285  1.00  0.00    -0.249 C  
HETATM    5  C   UNL     1     -10.661   8.077  71.385  1.00  0.00    -0.270 C  
HETATM    6  C   UNL     1      -9.539  10.665  67.743  1.00  0.00    -0.172 C  
HETATM    7  C   UNL     1      -8.740  10.343  68.992  1.00  0.00    -0.170 C  
HETATM    8  C   UNL     1     -11.604   8.801  69.075  1.00  0.00     0.914 C  
HETATM    9  C   UNL     1     -11.175  10.260  69.457  1.00  0.00    -0.314 C  
HETATM   10  C   UNL     1      -9.754  10.110  70.166  1.00  0.00    -0.071 C  
HETATM   11  C   UNL     1     -12.406  10.798  70.225  1.00  0.00    -0.423 C  
HETATM   12  C   UNL     1      -9.449   8.750  70.824  1.00  0.00    -0.253 C  
HETATM   13  C   UNL     1     -11.766   7.910  70.344  1.00  0.00    -0.020 C  
HETATM   14  C   UNL     1      -8.215   8.195  70.803  1.00  0.00    -0.111 C  
ENDROOT
BRANCH   3  15
HETATM   15  C   UNL     1      -9.857  15.139  67.628  1.00  0.00    -0.219 C  
BRANCH  15  16
HETATM   16  C   UNL     1     -10.379  16.005  66.474  1.00  0.00    -0.303 C  
HETATM   17  O   UNL     1     -10.633  18.167  65.469  1.00  0.00    -0.638 OA 
HETATM   18  C   UNL     1      -8.580  17.809  66.594  1.00  0.00    -0.280 C  
HETATM   19  C   UNL     1     -10.735  18.104  67.857  1.00  0.00    -0.331 C  
HETATM   20  C   UNL     1     -10.079  17.510  66.612  1.00  0.00    -0.328 C  
HETATM   21  H   UNL     1     -10.449  19.095  65.554  1.00  0.00     0.000 HD 
ENDBRANCH  15  16
ENDBRANCH   3  15
BRANCH  14  22
HETATM   22  C   UNL     1      -7.895   6.777  70.852  1.00  0.00    -0.098 C  
HETATM   23  C   UNL     1      -7.175   4.611  69.820  1.00  0.00    -0.054 C  
HETATM   24  C   UNL     1      -7.431   4.190  68.358  1.00  0.00    -0.059 C  
HETATM   25  C   UNL     1      -7.111   6.124  69.965  1.00  0.00    -0.072 C  
HETATM   26  O   UNL     1      -8.764   4.513  67.950  1.00  0.00    -0.102 OA 
HETATM   27  C   UNL     1      -6.432   4.833  67.397  1.00  0.00    -0.045 C  
HETATM   28  H   UNL     1      -8.921   4.253  67.050  1.00  0.00     0.000 HD 
HETATM   29  C   UNL     1      -6.394   6.355  67.556  1.00  0.00    -0.037 C  
HETATM   30  C   UNL     1      -6.203   6.760  69.014  1.00  0.00    -0.027 C  
HETATM   31  O   UNL     1      -5.348   6.874  66.733  1.00  0.00    -0.016 OA 
HETATM   32  C   UNL     1      -5.222   7.587  69.439  1.00  0.00    -0.015 C  
HETATM   33  H   UNL     1      -5.324   7.818  66.831  1.00  0.00     0.000 HD 
ENDBRANCH  14  22
TORSDOF 3
ENDMDL
MODEL      107
REMARK 921   NORMALIZED FREE ENERGY PREDICTED BY IDOCK:   -3.86 KCAL/MOL
REMARK 922        TOTAL FREE ENERGY PREDICTED BY IDOCK:   -5.49 KCAL/MOL
REMARK 923 INTER-LIGAND FREE ENERGY PREDICTED BY IDOCK:   -5.28 KCAL/MOL
REMARK 924 INTRA-LIGAND FREE ENERGY PREDICTED BY IDOCK:   -0.22 KCAL/MOL
REMARK 927      BINDING AFFINITY PREDICTED BY RF-SCORE:    0.00 PKD
ROOT
HETATM    1  C   UNL     1      -9.740   6.355  69.373  1.00  0.00    -0.160 C  
HETATM    2  C   UNL     1     -10.021   7.731  69.994  1.00  0.00    -0.187 C  
HETATM    3  C   UNL     1     -10.745   7.517  71.361  1.00  0.00    -0.243 C  
HETATM    4  C   UNL     1     -10.815   8.799  69.089  1.00  0.00    -0.074 C  
HETATM    5  C   UNL     1      -8.708  10.959  65.801  1.00  0.00    -0.196 C  
HETATM    6  C   UNL     1     -10.797  10.137  69.824  1.00  0.00    -0.320 C  
HETATM    7  C   UNL     1      -9.410  10.685  69.541  1.00  0.00    -0.008 C  
HETATM    8  C   UNL     1     -10.994  10.165  66.746  1.00  0.00    -0.049 C  
HETATM    9  C   UNL     1     -10.174   9.219  67.691  1.00  0.00    -0.285 C  
HETATM   10  C   UNL     1      -8.925  10.086  68.175  1.00  0.00    -0.122 C  
HETATM   11  C   UNL     1      -9.988   7.944  66.835  1.00  0.00    -0.332 C  
HETATM   12  C   UNL     1      -8.486  11.241  67.253  1.00  0.00    -0.144 C  
HETATM   13  C   UNL     1     -10.156  10.581  65.499  1.00  0.00    -0.349 C  
HETATM   14  C   UNL     1      -8.033  12.420  67.736  1.00  0.00    -0.156 C  
ENDROOT
BRANCH   3  15
HETATM   15  C   UNL     1     -10.159   6.446  72.294  1.00  0.00    -0.193 C  
BRANCH  15  16
HETATM   16  C   UNL     1      -8.669   6.170  72.051  1.00  0.00    -0.135 C  
HETATM   17  O   UNL     1      -6.405   6.229  72.838  1.00  0.00    -0.060 OA 
HETATM   18  C   UNL     1      -8.032   5.706  74.477  1.00  0.00    -0.103 C  
HETATM   19  C   UNL     1      -7.806   8.032  73.546  1.00  0.00    -0.231 C  
HETATM   20  C   UNL     1      -7.745   6.539  73.228  1.00  0.00    -0.092 C  
HETATM   21  H   UNL     1      -5.835   6.457  73.563  1.00  0.00     0.000 HD 
ENDBRANCH  15  16
ENDBRANCH   3  15
BRANCH  14  22
HETATM   22  C   UNL     1      -8.120  13.720  67.089  1.00  0.00    -0.094 C  
HETATM   23  C   UNL     1      -7.920  16.216  67.051  1.00  0.00    -0.254 C  
HETATM   24  C   UNL     1      -8.129  17.147  68.264  1.00  0.00    -0.239 C  
HETATM   25  C   UNL     1      -7.459  14.832  67.480  1.00  0.00    -0.221 C  
HETATM   26  O   UNL     1      -9.272  16.755  69.030  1.00  0.00    -0.257 OA 
HETATM   27  C   UNL     1      -6.899  17.189  69.168  1.00  0.00    -0.236 C  
HETATM   28  H   UNL     1      -9.401  17.328  69.776  1.00  0.00     0.000 HD 
HETATM   29  C   UNL     1      -6.461  15.786  69.593  1.00  0.00    -0.181 C  
HETATM   30  C   UNL     1      -6.318  14.857  68.392  1.00  0.00    -0.105 C  
HETATM   31  O   UNL     1      -5.233  15.890  70.316  1.00  0.00    -0.134 OA 
HETATM   32  C   UNL     1      -5.197  14.153  68.119  1.00  0.00    -0.118 C  
HETATM   33  H   UNL     1      -4.961  15.019  70.581  1.00  0.00     0.000 HD 
ENDBRANCH  14  22
TORSDOF 3
ENDMDL
MODEL      108
REMARK 921   NORMALIZED FREE ENERGY PREDICTED BY IDOCK:   -3.55 KCAL/MOL
REMARK 922        TOTAL FREE ENERGY PREDICTED BY IDOCK:   -5.14 KCAL/MOL
REMARK 923 INTER-LIGAND FREE ENERGY PREDICTED BY IDOCK:   -4.64 KCAL/MOL
REMARK 924 INTRA-LIGAND FREE ENERGY PREDICTED BY IDOCK:   -0.50 KCAL/MOL
REMARK 927      BINDING AFFINITY PREDICTED BY RF-SCORE:    0.00 PKD
ROOT
HETATM    1  C   UNL     1     -10.082  13.398  69.001  1.00  0.00     0.100 C  
HETATM    2  C   UNL     1      -9.347  12.665  67.869  1.00  0.00    -0.204 C  
HETATM    3  C   UNL     1      -9.193  13.646  66.663  1.00  0.00    -0.225 C  
HETATM    4  C   UNL     1      -9.956  11.257  67.385  1.00  0.00    -0.206 C  
HETATM    5  C   UNL     1      -9.361   7.587  69.853  1.00  0.00    -0.150 C  
HETATM    6  C   UNL     1      -8.961  10.627  66.414  1.00  0.00    -0.176 C  
HETATM    7  C   UNL     1      -7.897  10.038  67.322  1.00  0.00    -0.102 C  
HETATM    8  C   UNL     1     -10.802   8.757  68.035  1.00  0.00    -0.056 C  
HETATM    9  C   UNL     1     -10.099  10.092  68.464  1.00  0.00    -0.187 C  
HETATM   10  C   UNL     1      -8.569   9.705  68.700  1.00  0.00    -0.120 C  
HETATM   11  C   UNL     1     -10.990  10.602  69.621  1.00  0.00    -0.331 C  
HETATM   12  C   UNL     1      -8.274   8.235  69.055  1.00  0.00    -0.119 C  
HETATM   13  C   UNL     1     -10.722   7.689  69.168  1.00  0.00    -0.153 C  
HETATM   14  C   UNL     1      -7.177   7.586  68.602  1.00  0.00    -0.086 C  
ENDROOT
BRANCH   3  15
HETATM   15  C   UNL     1      -8.715  15.070  66.987  1.00  0.00    -0.262 C  
BRANCH  15  16
HETATM   16  C   UNL     1      -9.772  15.924  67.698  1.00  0.00    -0.223 C  
HETATM   17  O   UNL     1     -11.147  17.889  67.746  1.00  0.00    -0.205 OA 
HETATM   18  C   UNL     1     -10.831  16.926  65.604  1.00  0.00    -0.082 C  
HETATM   19  C   UNL     1      -8.976  18.153  66.779  1.00  0.00    -0.289 C  
HETATM   20  C   UNL     1     -10.168  17.213  66.952  1.00  0.00    -0.315 C  
HETATM   21  H   UNL     1     -11.390  18.684  67.285  1.00  0.00     0.000 HD 
ENDBRANCH  15  16
ENDBRANCH   3  15
BRANCH  14  22
HETATM   22  C   UNL     1      -7.042   6.157  68.368  1.00  0.00    -0.082 C  
HETATM   23  C   UNL     1      -7.466   4.053  67.076  1.00  0.00    -0.073 C  
HETATM   24  C   UNL     1      -8.724   3.762  66.231  1.00  0.00    -0.118 C  
HETATM   25  C   UNL     1      -7.187   5.545  67.172  1.00  0.00    -0.075 C  
HETATM   26  O   UNL     1      -9.914   4.172  66.912  1.00  0.00    -0.244 OA 
HETATM   27  C   UNL     1      -8.660   4.439  64.863  1.00  0.00    -0.130 C  
HETATM   28  H   UNL     1     -10.688   3.993  66.392  1.00  0.00     0.000 HD 
HETATM   29  C   UNL     1      -8.388   5.940  64.986  1.00  0.00    -0.131 C  
HETATM   30  C   UNL     1      -7.179   6.218  65.875  1.00  0.00    -0.075 C  
HETATM   31  O   UNL     1      -8.203   6.480  63.677  1.00  0.00    -0.282 OA 
HETATM   32  C   UNL     1      -6.122   6.966  65.488  1.00  0.00    -0.036 C  
HETATM   33  H   UNL     1      -8.034   7.412  63.753  1.00  0.00     0.000 HD 
ENDBRANCH  14  22
TORSDOF 3
ENDMDL
MODEL      109
REMARK 921   NORMALIZED FREE ENERGY PREDICTED BY IDOCK:   -3.54 KCAL/MOL
REMARK 922        TOTAL FREE ENERGY PREDICTED BY IDOCK:   -5.13 KCAL/MOL
REMARK 923 INTER-LIGAND FREE ENERGY PREDICTED BY IDOCK:   -5.75 KCAL/MOL
REMARK 924 INTRA-LIGAND FREE ENERGY PREDICTED BY IDOCK:    0.62 KCAL/MOL
REMARK 927      BINDING AFFINITY PREDICTED BY RF-SCORE:    0.00 PKD
ROOT
HETATM    1  C   UNL     1      -8.515  16.198  67.395  1.00  0.00    -0.188 C  
HETATM    2  C   UNL     1      -7.646  14.974  67.717  1.00  0.00    -0.175 C  
HETATM    3  C   UNL     1      -6.147  15.415  67.705  1.00  0.00    -0.173 C  
HETATM    4  C   UNL     1      -7.861  13.659  66.815  1.00  0.00     0.485 C  
HETATM    5  C   UNL     1     -11.410  11.038  67.478  1.00  0.00    -0.332 C  
HETATM    6  C   UNL     1      -7.051  12.526  67.440  1.00  0.00    -0.146 C  
HETATM    7  C   UNL     1      -7.913  12.067  68.602  1.00  0.00    -0.082 C  
HETATM    8  C   UNL     1      -9.566  11.795  65.812  1.00  0.00    -0.253 C  
HETATM    9  C   UNL     1      -9.313  13.003  66.781  1.00  0.00    -0.244 C  
HETATM   10  C   UNL     1      -9.407  12.391  68.251  1.00  0.00    -0.199 C  
HETATM   11  C   UNL     1     -10.320  14.068  66.284  1.00  0.00    -0.294 C  
HETATM   12  C   UNL     1     -10.246  11.109  68.414  1.00  0.00    -0.200 C  
HETATM   13  C   UNL     1     -10.991  11.197  66.018  1.00  0.00    -0.189 C  
HETATM   14  C   UNL     1      -9.894  10.116  69.263  1.00  0.00    -0.235 C  
ENDROOT
BRANCH   3  15
HETATM   15  C   UNL     1      -5.804  16.718  68.443  1.00  0.00    -0.125 C  
BRANCH  15  16
HETATM   16  C   UNL     1      -6.913  17.774  68.370  1.00  0.00    -0.228 C  
HETATM   17  O   UNL     1      -7.580  20.041  67.962  1.00  0.00    -0.298 OA 
HETATM   18  C   UNL     1      -5.848  19.229  66.565  1.00  0.00    -0.174 C  
HETATM   19  C   UNL     1      -5.443  19.748  68.993  1.00  0.00    -0.228 C  
HETATM   20  C   UNL     1      -6.435  19.185  67.977  1.00  0.00    -0.228 C  
HETATM   21  H   UNL     1      -7.285  20.912  67.719  1.00  0.00     0.000 HD 
ENDBRANCH  15  16
ENDBRANCH   3  15
BRANCH  14  22
HETATM   22  C   UNL     1     -10.212   8.703  69.133  1.00  0.00    -0.215 C  
HETATM   23  C   UNL     1     -10.174   6.322  69.910  1.00  0.00    -0.232 C  
HETATM   24  C   UNL     1      -9.059   5.678  70.762  1.00  0.00    -0.147 C  
HETATM   25  C   UNL     1     -10.272   7.819  70.155  1.00  0.00    -0.205 C  
HETATM   26  O   UNL     1      -7.762   6.069  70.301  1.00  0.00    -0.092 OA 
HETATM   27  C   UNL     1      -9.201   6.026  72.242  1.00  0.00    -0.146 C  
HETATM   28  H   UNL     1      -7.076   5.672  70.825  1.00  0.00     0.000 HD 
HETATM   29  C   UNL     1      -9.288   7.538  72.463  1.00  0.00    -0.153 C  
HETATM   30  C   UNL     1     -10.350   8.173  71.570  1.00  0.00    -0.265 C  
HETATM   31  O   UNL     1      -9.558   7.784  73.844  1.00  0.00    -0.365 OA 
HETATM   32  C   UNL     1     -11.354   8.948  72.037  1.00  0.00    -0.427 C  
HETATM   33  H   UNL     1      -9.612   8.722  73.981  1.00  0.00     0.000 HD 
ENDBRANCH  14  22
TORSDOF 3
ENDMDL
MODEL      110
REMARK 921   NORMALIZED FREE ENERGY PREDICTED BY IDOCK:   -3.51 KCAL/MOL
REMARK 922        TOTAL FREE ENERGY PREDICTED BY IDOCK:   -5.09 KCAL/MOL
REMARK 923 INTER-LIGAND FREE ENERGY PREDICTED BY IDOCK:   -5.10 KCAL/MOL
REMARK 924 INTRA-LIGAND FREE ENERGY PREDICTED BY IDOCK:    0.01 KCAL/MOL
REMARK 927      BINDING AFFINITY PREDICTED BY RF-SCORE:    0.00 PKD
ROOT
HETATM    1  C   UNL     1     -12.765  11.476  69.828  1.00  0.00     0.143 C  
HETATM    2  C   UNL     1     -11.922  10.239  70.169  1.00  0.00    -0.313 C  
HETATM    3  C   UNL     1     -12.042   9.965  71.702  1.00  0.00    -0.457 C  
HETATM    4  C   UNL     1     -10.379  10.250  69.710  1.00  0.00    -0.287 C  
HETATM    5  C   UNL     1      -9.301   9.536  65.440  1.00  0.00    -0.324 C  
HETATM    6  C   UNL     1      -9.806   8.859  69.969  1.00  0.00    -0.188 C  
HETATM    7  C   UNL     1     -10.315   8.038  68.798  1.00  0.00    -0.223 C  
HETATM    8  C   UNL     1      -8.562  10.555  67.713  1.00  0.00    -0.118 C  
HETATM    9  C   UNL     1     -10.060  10.421  68.158  1.00  0.00    -0.179 C  
HETATM   10  C   UNL     1     -10.544   9.011  67.589  1.00  0.00    -0.298 C  
HETATM   11  C   UNL     1     -10.691  11.747  67.671  1.00  0.00    -0.254 C  
HETATM   12  C   UNL     1      -9.790   8.465  66.361  1.00  0.00    -0.310 C  
HETATM   13  C   UNL     1      -8.435  10.568  66.159  1.00  0.00    -0.154 C  
HETATM   14  C   UNL     1      -9.529   7.148  66.199  1.00  0.00    -0.059 C  
ENDROOT
BRANCH   3  15
HETATM   15  C   UNL     1     -13.454  10.025  72.306  1.00  0.00    -0.346 C  
BRANCH  15  16
HETATM   16  C   UNL     1     -13.946   8.677  72.848  1.00  0.00    -0.013 C  
HETATM   17  O   UNL     1     -14.194   6.308  72.571  1.00  0.00    -0.624 OA 
HETATM   18  C   UNL     1     -12.177   7.220  71.728  1.00  0.00    -0.368 C  
HETATM   19  C   UNL     1     -14.379   7.620  70.581  1.00  0.00     0.776 C  
HETATM   20  C   UNL     1     -13.672   7.473  71.926  1.00  0.00    -0.243 C  
HETATM   21  H   UNL     1     -14.025   5.565  72.002  1.00  0.00     0.000 HD 
ENDBRANCH  15  16
ENDBRANCH   3  15
BRANCH  14  22
HETATM   22  C   UNL     1      -8.417   6.563  65.465  1.00  0.00    -0.139 C  
HETATM   23  C   UNL     1      -6.799   4.720  64.952  1.00  0.00    -0.049 C  
HETATM   24  C   UNL     1      -6.275   3.685  65.969  1.00  0.00    -0.032 C  
HETATM   25  C   UNL     1      -8.176   5.239  65.340  1.00  0.00    -0.127 C  
HETATM   26  O   UNL     1      -5.941   4.303  67.215  1.00  0.00    -0.022 OA 
HETATM   27  C   UNL     1      -7.281   2.562  66.209  1.00  0.00    -0.065 C  
HETATM   28  H   UNL     1      -5.617   3.665  67.841  1.00  0.00     0.000 HD 
HETATM   29  C   UNL     1      -8.654   3.108  66.607  1.00  0.00    -0.119 C  
HETATM   30  C   UNL     1      -9.136   4.176  65.630  1.00  0.00    -0.137 C  
HETATM   31  O   UNL     1      -9.576   2.019  66.680  1.00  0.00    -0.361 OA 
HETATM   32  C   UNL     1     -10.330   4.129  64.999  1.00  0.00    -0.209 C  
HETATM   33  H   UNL     1     -10.429   2.358  66.927  1.00  0.00     0.000 HD 
ENDBRANCH  14  22
TORSDOF 3
ENDMDL
MODEL      111
REMARK 921   NORMALIZED FREE ENERGY PREDICTED BY IDOCK:   -3.51 KCAL/MOL
REMARK 922        TOTAL FREE ENERGY PREDICTED BY IDOCK:   -5.09 KCAL/MOL
REMARK 923 INTER-LIGAND FREE ENERGY PREDICTED BY IDOCK:   -3.78 KCAL/MOL
REMARK 924 INTRA-LIGAND FREE ENERGY PREDICTED BY IDOCK:   -1.31 KCAL/MOL
REMARK 927      BINDING AFFINITY PREDICTED BY RF-SCORE:    0.00 PKD
ROOT
HETATM    1  C   UNL     1      -7.703   6.413  69.063  1.00  0.00    -0.101 C  
HETATM    2  C   UNL     1      -8.003   7.734  69.787  1.00  0.00    -0.115 C  
HETATM    3  C   UNL     1      -8.728   7.406  71.132  1.00  0.00    -0.137 C  
HETATM    4  C   UNL     1      -8.808   8.859  68.965  1.00  0.00    -0.136 C  
HETATM    5  C   UNL     1      -6.720  11.292  65.861  1.00  0.00     0.215 C  
HETATM    6  C   UNL     1      -8.809  10.136  69.801  1.00  0.00    -0.152 C  
HETATM    7  C   UNL     1      -7.428  10.721  69.566  1.00  0.00    -0.113 C  
HETATM    8  C   UNL     1      -8.999  10.399  66.734  1.00  0.00    -0.153 C  
HETATM    9  C   UNL     1      -8.169   9.393  67.606  1.00  0.00    -0.114 C  
HETATM   10  C   UNL     1      -6.932  10.235  68.159  1.00  0.00    -0.074 C  
HETATM   11  C   UNL     1      -7.965   8.191  66.654  1.00  0.00    -0.102 C  
HETATM   12  C   UNL     1      -6.506  11.463  67.331  1.00  0.00    -0.083 C  
HETATM   13  C   UNL     1      -8.163  10.920  65.525  1.00  0.00    -0.052 C  
HETATM   14  C   UNL     1      -6.068  12.607  67.905  1.00  0.00    -0.108 C  
ENDROOT
BRANCH   3  15
HETATM   15  C   UNL     1      -8.130   6.274  71.981  1.00  0.00    -0.109 C  
BRANCH  15  16
HETATM   16  C   UNL     1      -9.170   5.527  72.827  1.00  0.00    -0.137 C  
HETATM   17  O   UNL     1     -10.381   3.513  73.304  1.00  0.00    -0.143 OA 
HETATM   18  C   UNL     1      -8.130   3.206  72.634  1.00  0.00    -0.067 C  
HETATM   19  C   UNL     1      -9.900   3.925  70.998  1.00  0.00    -0.219 C  
HETATM   20  C   UNL     1      -9.386   4.054  72.430  1.00  0.00    -0.122 C  
HETATM   21  H   UNL     1     -10.514   2.605  73.058  1.00  0.00     0.000 HD 
ENDBRANCH  15  16
ENDBRANCH   3  15
BRANCH  14  22
HETATM   22  C   UNL     1      -6.171  13.952  67.360  1.00  0.00     0.154 C  
HETATM   23  C   UNL     1      -7.420  16.053  66.812  1.00  0.00    -0.218 C  
HETATM   24  C   UNL     1      -8.927  16.137  66.491  1.00  0.00    -0.287 C  
HETATM   25  C   UNL     1      -7.104  14.866  67.708  1.00  0.00    -0.192 C  
HETATM   26  O   UNL     1      -9.333  15.079  65.618  1.00  0.00    -0.463 OA 
HETATM   27  C   UNL     1      -9.781  16.111  67.757  1.00  0.00    -0.229 C  
HETATM   28  H   UNL     1     -10.261  15.131  65.420  1.00  0.00     0.000 HD 
HETATM   29  C   UNL     1      -9.451  14.903  68.637  1.00  0.00    -0.208 C  
HETATM   30  C   UNL     1      -7.951  14.793  68.896  1.00  0.00    -0.160 C  
HETATM   31  O   UNL     1     -10.181  15.015  69.860  1.00  0.00    -0.421 OA 
HETATM   32  C   UNL     1      -7.409  14.713  70.131  1.00  0.00     0.267 C  
HETATM   33  H   UNL     1      -9.976  14.265  70.406  1.00  0.00     0.000 HD 
ENDBRANCH  14  22
TORSDOF 3
ENDMDL
MODEL      112
REMARK 921   NORMALIZED FREE ENERGY PREDICTED BY IDOCK:   -3.36 KCAL/MOL
REMARK 922        TOTAL FREE ENERGY PREDICTED BY IDOCK:   -4.91 KCAL/MOL
REMARK 923 INTER-LIGAND FREE ENERGY PREDICTED BY IDOCK:   -3.89 KCAL/MOL
REMARK 924 INTRA-LIGAND FREE ENERGY PREDICTED BY IDOCK:   -1.02 KCAL/MOL
REMARK 927      BINDING AFFINITY PREDICTED BY RF-SCORE:    0.00 PKD
ROOT
HETATM    1  C   UNL     1      -9.929  13.476  68.743  1.00  0.00    -0.078 C  
HETATM    2  C   UNL     1      -8.845  12.503  68.255  1.00  0.00    -0.171 C  
HETATM    3  C   UNL     1      -8.269  13.042  66.907  1.00  0.00     0.009 C  
HETATM    4  C   UNL     1      -9.253  10.952  68.122  1.00  0.00    -0.158 C  
HETATM    5  C   UNL     1      -9.590   8.401  71.767  1.00  0.00    -0.303 C  
HETATM    6  C   UNL     1      -7.982  10.161  67.825  1.00  0.00    -0.102 C  
HETATM    7  C   UNL     1      -7.312  10.035  69.181  1.00  0.00    -0.087 C  
HETATM    8  C   UNL     1     -10.288   8.725  69.286  1.00  0.00    -0.221 C  
HETATM    9  C   UNL     1      -9.774  10.200  69.427  1.00  0.00    -0.247 C  
HETATM   10  C   UNL     1      -8.429  10.098  70.280  1.00  0.00     0.208 C  
HETATM   11  C   UNL     1     -11.014  10.954  69.964  1.00  0.00    -0.221 C  
HETATM   12  C   UNL     1      -8.288   8.873  71.204  1.00  0.00    -0.232 C  
HETATM   13  C   UNL     1     -10.621   8.108  70.678  1.00  0.00    -0.229 C  
HETATM   14  C   UNL     1      -7.105   8.247  71.401  1.00  0.00    -0.067 C  
ENDROOT
BRANCH   3  15
HETATM   15  C   UNL     1      -7.928  14.540  66.850  1.00  0.00     0.059 C  
BRANCH  15  16
HETATM   16  C   UNL     1      -9.164  15.448  66.812  1.00  0.00    -0.273 C  
HETATM   17  O   UNL     1     -10.112  17.647  66.933  1.00  0.00    -0.305 OA 
HETATM   18  C   UNL     1      -8.012  17.509  65.846  1.00  0.00    -0.071 C  
HETATM   19  C   UNL     1      -8.220  17.244  68.338  1.00  0.00    -0.260 C  
HETATM   20  C   UNL     1      -8.865  16.950  66.985  1.00  0.00    -0.212 C  
HETATM   21  H   UNL     1      -9.927  18.573  67.040  1.00  0.00     0.000 HD 
ENDBRANCH  15  16
ENDBRANCH   3  15
BRANCH  14  22
HETATM   22  C   UNL     1      -6.905   6.847  71.743  1.00  0.00    -0.065 C  
HETATM   23  C   UNL     1      -7.361   4.397  71.491  1.00  0.00    -0.056 C  
HETATM   24  C   UNL     1      -8.704   3.780  71.048  1.00  0.00    -0.078 C  
HETATM   25  C   UNL     1      -7.178   5.800  70.933  1.00  0.00    -0.080 C  
HETATM   26  O   UNL     1      -9.809   4.426  71.688  1.00  0.00    -0.168 OA 
HETATM   27  C   UNL     1      -8.886   3.840  69.533  1.00  0.00    -0.149 C  
HETATM   28  H   UNL     1     -10.636   4.045  71.416  1.00  0.00     0.000 HD 
HETATM   29  C   UNL     1      -8.706   5.263  68.997  1.00  0.00    -0.100 C  
HETATM   30  C   UNL     1      -7.405   5.886  69.492  1.00  0.00    -0.075 C  
HETATM   31  O   UNL     1      -8.751   5.223  67.570  1.00  0.00    -0.108 OA 
HETATM   32  C   UNL     1      -6.471   6.417  68.673  1.00  0.00    -0.049 C  
HETATM   33  H   UNL     1      -8.640   6.106  67.237  1.00  0.00     0.000 HD 
ENDBRANCH  14  22
TORSDOF 3
ENDMDL
MODEL      113
REMARK 921   NORMALIZED FREE ENERGY PREDICTED BY IDOCK:   -3.34 KCAL/MOL
REMARK 922        TOTAL FREE ENERGY PREDICTED BY IDOCK:   -4.89 KCAL/MOL
REMARK 923 INTER-LIGAND FREE ENERGY PREDICTED BY IDOCK:   -4.65 KCAL/MOL
REMARK 924 INTRA-LIGAND FREE ENERGY PREDICTED BY IDOCK:   -0.24 KCAL/MOL
REMARK 927      BINDING AFFINITY PREDICTED BY RF-SCORE:    0.00 PKD
ROOT
HETATM    1  C   UNL     1      -6.357  16.359  66.598  1.00  0.00     0.141 C  
HETATM    2  C   UNL     1      -7.243  16.069  67.819  1.00  0.00    -0.161 C  
HETATM    3  C   UNL     1      -7.702  17.431  68.431  1.00  0.00    -0.258 C  
HETATM    4  C   UNL     1      -6.635  15.108  68.958  1.00  0.00    -0.113 C  
HETATM    5  C   UNL     1      -6.461  10.696  68.311  1.00  0.00    -0.058 C  
HETATM    6  C   UNL     1      -7.751  14.803  69.953  1.00  0.00     0.173 C  
HETATM    7  C   UNL     1      -8.570  13.731  69.258  1.00  0.00     0.566 C  
HETATM    8  C   UNL     1      -5.494  12.729  69.609  1.00  0.00    -0.089 C  
HETATM    9  C   UNL     1      -6.198  13.633  68.538  1.00  0.00    -0.091 C  
HETATM   10  C   UNL     1      -7.619  12.954  68.281  1.00  0.00    -0.134 C  
HETATM   11  C   UNL     1      -5.139  13.737  67.415  1.00  0.00     0.320 C  
HETATM   12  C   UNL     1      -7.727  11.446  68.576  1.00  0.00    -0.133 C  
HETATM   13  C   UNL     1      -5.271  11.284  69.067  1.00  0.00    -0.040 C  
HETATM   14  C   UNL     1      -8.841  10.890  69.107  1.00  0.00    -0.050 C  
ENDROOT
BRANCH   3  15
HETATM   15  C   UNL     1      -8.213  18.494  67.446  1.00  0.00    -0.259 C  
BRANCH  15  16
HETATM   16  C   UNL     1      -8.899  17.904  66.208  1.00  0.00    -0.189 C  
HETATM   17  O   UNL     1     -10.899  17.529  64.938  1.00  0.00    -0.832 OA 
HETATM   18  C   UNL     1     -10.771  19.628  66.030  1.00  0.00    -0.527 C  
HETATM   19  C   UNL     1     -11.147  17.500  67.316  1.00  0.00     0.138 C  
HETATM   20  C   UNL     1     -10.420  18.144  66.138  1.00  0.00    -0.364 C  
HETATM   21  H   UNL     1     -11.837  17.677  64.896  1.00  0.00     0.000 HD 
ENDBRANCH  15  16
ENDBRANCH   3  15
BRANCH  14  22
HETATM   22  C   UNL     1      -8.911   9.690  69.927  1.00  0.00    -0.240 C  
HETATM   23  C   UNL     1      -9.710   7.370  70.431  1.00  0.00    -0.175 C  
HETATM   24  C   UNL     1     -11.062   6.775  69.985  1.00  0.00    -0.315 C  
HETATM   25  C   UNL     1      -9.235   8.457  69.479  1.00  0.00    -0.154 C  
HETATM   26  O   UNL     1     -12.127   7.714  70.164  1.00  0.00    -0.430 OA 
HETATM   27  C   UNL     1     -11.029   6.311  68.531  1.00  0.00    -0.421 C  
HETATM   28  H   UNL     1     -12.960   7.348  69.890  1.00  0.00     0.000 HD 
HETATM   29  C   UNL     1     -10.557   7.424  67.592  1.00  0.00    -0.239 C  
HETATM   30  C   UNL     1      -9.251   8.048  68.076  1.00  0.00    -0.139 C  
HETATM   31  O   UNL     1     -10.417   6.885  66.277  1.00  0.00    -0.454 OA 
HETATM   32  C   UNL     1      -8.144   8.156  67.309  1.00  0.00    -0.121 C  
HETATM   33  H   UNL     1     -10.124   7.576  65.694  1.00  0.00     0.000 HD 
ENDBRANCH  14  22
TORSDOF 3
ENDMDL
MODEL      114
REMARK 921   NORMALIZED FREE ENERGY PREDICTED BY IDOCK:   -3.24 KCAL/MOL
REMARK 922        TOTAL FREE ENERGY PREDICTED BY IDOCK:   -4.77 KCAL/MOL
REMARK 923 INTER-LIGAND FREE ENERGY PREDICTED BY IDOCK:   -4.82 KCAL/MOL
REMARK 924 INTRA-LIGAND FREE ENERGY PREDICTED BY IDOCK:    0.05 KCAL/MOL
REMARK 927      BINDING AFFINITY PREDICTED BY RF-SCORE:    0.00 PKD
ROOT
HETATM    1  C   UNL     1     -11.810  12.534  67.827  1.00  0.00    -0.375 C  
HETATM    2  C   UNL     1     -10.947  11.584  68.670  1.00  0.00    -0.270 C  
HETATM    3  C   UNL     1     -11.020  12.043  70.162  1.00  0.00     0.672 C  
HETATM    4  C   UNL     1      -9.419  11.374  68.212  1.00  0.00    -0.187 C  
HETATM    5  C   UNL     1      -8.462   8.779  64.711  1.00  0.00    -0.179 C  
HETATM    6  C   UNL     1      -8.828  10.252  69.061  1.00  0.00    -0.170 C  
HETATM    7  C   UNL     1      -9.365   8.989  68.411  1.00  0.00    -0.143 C  
HETATM    8  C   UNL     1      -7.664  10.720  66.243  1.00  0.00    -0.146 C  
HETATM    9  C   UNL     1      -9.147  10.814  66.745  1.00  0.00    -0.167 C  
HETATM   10  C   UNL     1      -9.637   9.303  66.899  1.00  0.00    -0.229 C  
HETATM   11  C   UNL     1      -9.802  11.774  65.724  1.00  0.00    -0.267 C  
HETATM   12  C   UNL     1      -8.915   8.251  66.035  1.00  0.00    -0.224 C  
HETATM   13  C   UNL     1      -7.583  10.020  64.852  1.00  0.00    -0.139 C  
HETATM   14  C   UNL     1      -8.648   7.004  66.485  1.00  0.00    -0.130 C  
ENDROOT
BRANCH   3  15
HETATM   15  C   UNL     1     -12.414  12.382  70.713  1.00  0.00    -0.356 C  
BRANCH  15  16
HETATM   16  C   UNL     1     -13.018  13.657  70.112  1.00  0.00     0.197 C  
HETATM   17  O   UNL     1     -13.500  15.999  70.298  1.00  0.00    -0.528 OA 
HETATM   18  C   UNL     1     -11.428  15.315  71.220  1.00  0.00    -0.431 C  
HETATM   19  C   UNL     1     -13.612  14.742  72.329  1.00  0.00    -0.532 C  
HETATM   20  C   UNL     1     -12.886  14.912  70.996  1.00  0.00    -0.362 C  
HETATM   21  H   UNL     1     -13.418  16.773  70.843  1.00  0.00     0.000 HD 
ENDBRANCH  15  16
ENDBRANCH   3  15
BRANCH  14  22
HETATM   22  C   UNL     1      -7.554   6.141  66.068  1.00  0.00    -0.087 C  
HETATM   23  C   UNL     1      -6.164   4.062  66.218  1.00  0.00    -0.032 C  
HETATM   24  C   UNL     1      -5.908   3.251  67.505  1.00  0.00    -0.023 C  
HETATM   25  C   UNL     1      -7.488   4.807  66.279  1.00  0.00    -0.086 C  
HETATM   26  O   UNL     1      -5.633   4.110  68.616  1.00  0.00    -0.012 OA 
HETATM   27  C   UNL     1      -7.083   2.336  67.845  1.00  0.00    -0.047 C  
HETATM   28  H   UNL     1      -5.475   3.610  69.408  1.00  0.00     0.000 HD 
HETATM   29  C   UNL     1      -8.401   3.110  67.910  1.00  0.00    -0.080 C  
HETATM   30  C   UNL     1      -8.615   3.958  66.660  1.00  0.00    -0.111 C  
HETATM   31  O   UNL     1      -9.469   2.180  68.094  1.00  0.00    -0.206 OA 
HETATM   32  C   UNL     1      -9.725   3.892  65.892  1.00  0.00    -0.168 C  
HETATM   33  H   UNL     1     -10.288   2.660  68.134  1.00  0.00     0.000 HD 
ENDBRANCH  14  22
TORSDOF 3
ENDMDL
MODEL      115
REMARK 921   NORMALIZED FREE ENERGY PREDICTED BY IDOCK:   -2.92 KCAL/MOL
REMARK 922        TOTAL FREE ENERGY PREDICTED BY IDOCK:   -4.39 KCAL/MOL
REMARK 923 INTER-LIGAND FREE ENERGY PREDICTED BY IDOCK:   -3.98 KCAL/MOL
REMARK 924 INTRA-LIGAND FREE ENERGY PREDICTED BY IDOCK:   -0.41 KCAL/MOL
REMARK 927      BINDING AFFINITY PREDICTED BY RF-SCORE:    0.00 PKD
ROOT
HETATM    1  C   UNL     1      -9.075   6.857  72.443  1.00  0.00    -0.144 C  
HETATM    2  C   UNL     1      -9.517   6.898  70.973  1.00  0.00    -0.163 C  
HETATM    3  C   UNL     1     -10.596   8.016  70.813  1.00  0.00    -0.228 C  
HETATM    4  C   UNL     1     -10.023   5.518  70.317  1.00  0.00    -0.281 C  
HETATM    5  C   UNL     1      -7.075   2.392  69.114  1.00  0.00    -0.044 C  
HETATM    6  C   UNL     1     -10.210   5.755  68.821  1.00  0.00    -0.255 C  
HETATM    7  C   UNL     1      -8.799   5.688  68.267  1.00  0.00    -0.108 C  
HETATM    8  C   UNL     1      -9.536   2.900  69.774  1.00  0.00    -0.167 C  
HETATM    9  C   UNL     1      -9.015   4.283  70.300  1.00  0.00    -0.147 C  
HETATM   10  C   UNL     1      -7.950   4.772  69.217  1.00  0.00    -0.070 C  
HETATM   11  C   UNL     1      -8.598   3.971  71.756  1.00  0.00    -0.117 C  
HETATM   12  C   UNL     1      -7.269   3.677  68.374  1.00  0.00    -0.051 C  
HETATM   13  C   UNL     1      -8.381   1.856  69.697  1.00  0.00    -0.072 C  
HETATM   14  C   UNL     1      -6.967   3.852  67.067  1.00  0.00    -0.059 C  
ENDROOT
BRANCH   3  15
HETATM   15  C   UNL     1     -10.296   9.367  71.481  1.00  0.00    -0.265 C  
BRANCH  15  16
HETATM   16  C   UNL     1     -10.932  10.562  70.759  1.00  0.00     0.068 C  
HETATM   17  O   UNL     1     -11.208  11.856  68.758  1.00  0.00    -0.220 OA 
HETATM   18  C   UNL     1     -11.022   9.516  68.434  1.00  0.00    -0.117 C  
HETATM   19  C   UNL     1      -9.039  10.910  69.103  1.00  0.00    -0.058 C  
HETATM   20  C   UNL     1     -10.542  10.700  69.274  1.00  0.00    -0.233 C  
HETATM   21  H   UNL     1     -10.967  11.940  67.843  1.00  0.00     0.000 HD 
ENDBRANCH  15  16
ENDBRANCH   3  15
BRANCH  14  22
HETATM   22  C   UNL     1      -6.868   2.818  66.048  1.00  0.00    -0.048 C  
HETATM   23  C   UNL     1      -7.572   1.704  63.918  1.00  0.00    -0.059 C  
HETATM   24  C   UNL     1      -9.002   1.709  63.338  1.00  0.00    -0.087 C  
HETATM   25  C   UNL     1      -7.311   2.932  64.776  1.00  0.00    -0.070 C  
HETATM   26  O   UNL     1      -9.979   1.485  64.360  1.00  0.00    -0.297 OA 
HETATM   27  C   UNL     1      -9.316   3.015  62.610  1.00  0.00    -0.090 C  
HETATM   28  H   UNL     1     -10.859   1.488  64.002  1.00  0.00     0.000 HD 
HETATM   29  C   UNL     1      -9.054   4.234  63.496  1.00  0.00    -0.138 C  
HETATM   30  C   UNL     1      -7.660   4.187  64.114  1.00  0.00    -0.071 C  
HETATM   31  O   UNL     1      -9.233   5.416  62.713  1.00  0.00    -0.349 OA 
HETATM   32  C   UNL     1      -6.759   5.189  64.007  1.00  0.00    -0.046 C  
HETATM   33  H   UNL     1      -9.071   6.173  63.263  1.00  0.00     0.000 HD 
ENDBRANCH  14  22
TORSDOF 3
ENDMDL
MODEL      116
REMARK 921   NORMALIZED FREE ENERGY PREDICTED BY IDOCK:   -2.79 KCAL/MOL
REMARK 922        TOTAL FREE ENERGY PREDICTED BY IDOCK:   -4.24 KCAL/MOL
REMARK 923 INTER-LIGAND FREE ENERGY PREDICTED BY IDOCK:   -4.07 KCAL/MOL
REMARK 924 INTRA-LIGAND FREE ENERGY PREDICTED BY IDOCK:   -0.18 KCAL/MOL
REMARK 927      BINDING AFFINITY PREDICTED BY RF-SCORE:    0.00 PKD
ROOT
HETATM    1  C   UNL     1      -9.780  12.356  65.048  1.00  0.00    -0.042 C  
HETATM    2  C   UNL     1      -9.018  12.103  66.356  1.00  0.00    -0.138 C  
HETATM    3  C   UNL     1      -8.061  13.311  66.612  1.00  0.00     0.401 C  
HETATM    4  C   UNL     1      -8.225  10.709  66.490  1.00  0.00    -0.138 C  
HETATM    5  C   UNL     1     -10.453   6.932  67.315  1.00  0.00    -0.357 C  
HETATM    6  C   UNL     1      -7.724  10.593  67.927  1.00  0.00    -0.100 C  
HETATM    7  C   UNL     1      -8.953  10.154  68.701  1.00  0.00    -0.136 C  
HETATM    8  C   UNL     1      -8.282   7.995  66.362  1.00  0.00    -0.113 C  
HETATM    9  C   UNL     1      -9.060   9.357  66.355  1.00  0.00    -0.199 C  
HETATM   10  C   UNL     1      -9.892   9.375  67.716  1.00  0.00    -0.207 C  
HETATM   11  C   UNL     1      -9.765   9.352  64.978  1.00  0.00    -0.020 C  
HETATM   12  C   UNL     1     -10.235   8.005  68.334  1.00  0.00    -0.239 C  
HETATM   13  C   UNL     1      -9.266   6.785  66.365  1.00  0.00    -0.185 C  
HETATM   14  C   UNL     1     -10.245   7.796  69.670  1.00  0.00    -0.206 C  
ENDROOT
BRANCH   3  15
HETATM   15  C   UNL     1      -8.653  14.716  66.419  1.00  0.00     0.103 C  
BRANCH  15  16
HETATM   16  C   UNL     1      -7.990  15.786  67.296  1.00  0.00    -0.216 C  
HETATM   17  O   UNL     1      -7.175  16.482  69.441  1.00  0.00    -0.231 OA 
HETATM   18  C   UNL     1      -6.841  14.194  68.925  1.00  0.00    -0.106 C  
HETATM   19  C   UNL     1      -9.126  15.099  69.460  1.00  0.00    -0.131 C  
HETATM   20  C   UNL     1      -7.793  15.381  68.769  1.00  0.00    -0.155 C  
HETATM   21  H   UNL     1      -7.054  16.232  70.350  1.00  0.00     0.000 HD 
ENDBRANCH  15  16
ENDBRANCH   3  15
BRANCH  14  22
HETATM   22  C   UNL     1      -9.991   6.539  70.358  1.00  0.00    -0.202 C  
HETATM   23  C   UNL     1      -8.844   5.123  72.077  1.00  0.00    -0.138 C  
HETATM   24  C   UNL     1      -7.415   5.352  72.612  1.00  0.00    -0.097 C  
HETATM   25  C   UNL     1      -9.480   6.421  71.604  1.00  0.00    -0.160 C  
HETATM   26  O   UNL     1      -6.509   5.675  71.554  1.00  0.00    -0.041 OA 
HETATM   27  C   UNL     1      -7.373   6.449  73.674  1.00  0.00    -0.086 C  
HETATM   28  H   UNL     1      -5.629   5.815  71.883  1.00  0.00     0.000 HD 
HETATM   29  C   UNL     1      -8.010   7.747  73.171  1.00  0.00    -0.125 C  
HETATM   30  C   UNL     1      -9.397   7.500  72.586  1.00  0.00    -0.208 C  
HETATM   31  O   UNL     1      -8.062   8.680  74.251  1.00  0.00    -0.356 OA 
HETATM   32  C   UNL     1     -10.506   8.161  72.985  1.00  0.00    -0.237 C  
HETATM   33  H   UNL     1      -8.457   9.486  73.940  1.00  0.00     0.000 HD 
ENDBRANCH  14  22
TORSDOF 3
ENDMDL
MODEL      117
REMARK 921   NORMALIZED FREE ENERGY PREDICTED BY IDOCK:   -2.64 KCAL/MOL
REMARK 922        TOTAL FREE ENERGY PREDICTED BY IDOCK:   -4.07 KCAL/MOL
REMARK 923 INTER-LIGAND FREE ENERGY PREDICTED BY IDOCK:   -3.30 KCAL/MOL
REMARK 924 INTRA-LIGAND FREE ENERGY PREDICTED BY IDOCK:   -0.77 KCAL/MOL
REMARK 927      BINDING AFFINITY PREDICTED BY RF-SCORE:    0.00 PKD
ROOT
HETATM    1  C   UNL     1      -7.967  11.420  65.722  1.00  0.00     0.249 C  
HETATM    2  C   UNL     1      -7.756  11.349  67.241  1.00  0.00    -0.145 C  
HETATM    3  C   UNL     1      -7.713  12.806  67.802  1.00  0.00    -0.152 C  
HETATM    4  C   UNL     1      -6.499  10.496  67.772  1.00  0.00    -0.060 C  
HETATM    5  C   UNL     1      -6.670   6.037  67.809  1.00  0.00    -0.058 C  
HETATM    6  C   UNL     1      -6.610  10.399  69.291  1.00  0.00    -0.056 C  
HETATM    7  C   UNL     1      -7.646   9.311  69.507  1.00  0.00    -0.081 C  
HETATM    8  C   UNL     1      -5.144   8.140  67.786  1.00  0.00    -0.033 C  
HETATM    9  C   UNL     1      -6.423   8.953  67.379  1.00  0.00    -0.057 C  
HETATM   10  C   UNL     1      -7.605   8.352  68.266  1.00  0.00    -0.098 C  
HETATM   11  C   UNL     1      -6.434   8.838  65.836  1.00  0.00    -0.057 C  
HETATM   12  C   UNL     1      -7.430   6.904  68.762  1.00  0.00    -0.099 C  
HETATM   13  C   UNL     1      -5.308   6.626  67.450  1.00  0.00    -0.008 C  
HETATM   14  C   UNL     1      -7.850   6.500  69.983  1.00  0.00    -0.111 C  
ENDROOT
BRANCH   3  15
HETATM   15  C   UNL     1      -8.797  13.773  67.301  1.00  0.00    -0.225 C  
BRANCH  15  16
HETATM   16  C   UNL     1      -8.264  15.173  66.969  1.00  0.00    -0.262 C  
HETATM   17  O   UNL     1      -8.484  17.556  67.124  1.00  0.00    -0.209 OA 
HETATM   18  C   UNL     1      -9.141  16.350  69.055  1.00  0.00    -0.252 C  
HETATM   19  C   UNL     1     -10.527  16.324  66.956  1.00  0.00    -0.306 C  
HETATM   20  C   UNL     1      -9.110  16.334  67.526  1.00  0.00    -0.192 C  
HETATM   21  H   UNL     1      -9.007  18.271  67.468  1.00  0.00     0.000 HD 
ENDBRANCH  15  16
ENDBRANCH   3  15
BRANCH  14  22
HETATM   22  C   UNL     1      -7.296   5.421  70.785  1.00  0.00    -0.078 C  
HETATM   23  C   UNL     1      -7.284   3.883  72.762  1.00  0.00    -0.062 C  
HETATM   24  C   UNL     1      -7.847   4.219  74.158  1.00  0.00    -0.091 C  
HETATM   25  C   UNL     1      -7.990   4.669  71.668  1.00  0.00    -0.101 C  
HETATM   26  O   UNL     1      -7.482   5.544  74.560  1.00  0.00    -0.084 OA 
HETATM   27  C   UNL     1      -9.366   4.070  74.212  1.00  0.00    -0.121 C  
HETATM   28  H   UNL     1      -7.828   5.751  75.421  1.00  0.00     0.000 HD 
HETATM   29  C   UNL     1     -10.053   4.877  73.108  1.00  0.00    -0.161 C  
HETATM   30  C   UNL     1      -9.446   4.583  71.739  1.00  0.00    -0.206 C  
HETATM   31  O   UNL     1     -11.451   4.584  73.129  1.00  0.00    -0.255 OA 
HETATM   32  C   UNL     1     -10.171   4.191  70.669  1.00  0.00     0.069 C  
HETATM   33  H   UNL     1     -11.878   5.085  72.445  1.00  0.00     0.000 HD 
ENDBRANCH  14  22
TORSDOF 3
ENDMDL
MODEL      118
REMARK 921   NORMALIZED FREE ENERGY PREDICTED BY IDOCK:   -2.48 KCAL/MOL
REMARK 922        TOTAL FREE ENERGY PREDICTED BY IDOCK:   -3.88 KCAL/MOL
REMARK 923 INTER-LIGAND FREE ENERGY PREDICTED BY IDOCK:   -3.14 KCAL/MOL
REMARK 924 INTRA-LIGAND FREE ENERGY PREDICTED BY IDOCK:   -0.74 KCAL/MOL
REMARK 927      BINDING AFFINITY PREDICTED BY RF-SCORE:    0.00 PKD
ROOT
HETATM    1  C   UNL     1      -9.421  10.224  64.148  1.00  0.00    -0.358 C  
HETATM    2  C   UNL     1      -9.828   9.641  65.509  1.00  0.00    -0.352 C  
HETATM    3  C   UNL     1     -10.347  10.806  66.410  1.00  0.00    -0.306 C  
HETATM    4  C   UNL     1      -8.732   8.759  66.291  1.00  0.00    -0.169 C  
HETATM    5  C   UNL     1      -7.883   4.573  65.000  1.00  0.00    -0.090 C  
HETATM    6  C   UNL     1      -9.418   8.127  67.499  1.00  0.00    -0.184 C  
HETATM    7  C   UNL     1     -10.176   6.952  66.907  1.00  0.00    -0.310 C  
HETATM    8  C   UNL     1      -6.999   6.666  66.262  1.00  0.00    -0.062 C  
HETATM    9  C   UNL     1      -8.155   7.464  65.563  1.00  0.00    -0.131 C  
HETATM   10  C   UNL     1      -9.423   6.497  65.608  1.00  0.00     0.300 C  
HETATM   11  C   UNL     1      -7.519   7.898  64.221  1.00  0.00    -0.103 C  
HETATM   12  C   UNL     1      -9.137   4.986  65.703  1.00  0.00    -0.157 C  
HETATM   13  C   UNL     1      -6.664   5.359  65.480  1.00  0.00    -0.041 C  
HETATM   14  C   UNL     1      -9.908   4.147  66.432  1.00  0.00    -0.214 C  
ENDROOT
BRANCH   3  15
HETATM   15  C   UNL     1     -11.327  11.797  65.763  1.00  0.00    -0.309 C  
BRANCH  15  16
HETATM   16  C   UNL     1     -10.977  13.267  66.027  1.00  0.00    -0.292 C  
HETATM   17  O   UNL     1     -10.727  15.084  67.572  1.00  0.00    -0.272 OA 
HETATM   18  C   UNL     1     -10.079  12.959  68.394  1.00  0.00    -0.227 C  
HETATM   19  C   UNL     1     -12.498  13.547  68.039  1.00  0.00     0.313 C  
HETATM   20  C   UNL     1     -11.077  13.699  67.502  1.00  0.00    -0.277 C  
HETATM   21  H   UNL     1     -10.789  15.350  68.482  1.00  0.00     0.000 HD 
ENDBRANCH  15  16
ENDBRANCH   3  15
BRANCH  14  22
HETATM   22  C   UNL     1      -9.492   2.903  67.060  1.00  0.00    -0.065 C  
HETATM   23  C   UNL     1      -8.250   1.575  68.783  1.00  0.00    -0.068 C  
HETATM   24  C   UNL     1      -6.929   2.001  69.457  1.00  0.00    -0.033 C  
HETATM   25  C   UNL     1      -9.065   2.779  68.337  1.00  0.00    -0.219 C  
HETATM   26  O   UNL     1      -6.014   2.554  68.505  1.00  0.00    -0.023 OA 
HETATM   27  C   UNL     1      -7.162   3.006  70.584  1.00  0.00    -0.033 C  
HETATM   28  H   UNL     1      -5.201   2.816  68.920  1.00  0.00     0.000 HD 
HETATM   29  C   UNL     1      -7.976   4.211  70.107  1.00  0.00    -0.054 C  
HETATM   30  C   UNL     1      -9.249   3.777  69.387  1.00  0.00    -0.226 C  
HETATM   31  O   UNL     1      -8.274   5.036  71.235  1.00  0.00    -0.110 OA 
HETATM   32  C   UNL     1     -10.484   4.208  69.727  1.00  0.00     0.929 C  
HETATM   33  H   UNL     1      -8.779   5.785  70.940  1.00  0.00     0.000 HD 
ENDBRANCH  14  22
TORSDOF 3
ENDMDL
MODEL      119
REMARK 921   NORMALIZED FREE ENERGY PREDICTED BY IDOCK:   -2.47 KCAL/MOL
REMARK 922        TOTAL FREE ENERGY PREDICTED BY IDOCK:   -3.86 KCAL/MOL
REMARK 923 INTER-LIGAND FREE ENERGY PREDICTED BY IDOCK:   -3.06 KCAL/MOL
REMARK 924 INTRA-LIGAND FREE ENERGY PREDICTED BY IDOCK:   -0.81 KCAL/MOL
REMARK 927      BINDING AFFINITY PREDICTED BY RF-SCORE:    0.00 PKD
ROOT
HETATM    1  C   UNL     1      -8.309  14.170  66.775  1.00  0.00     0.054 C  
HETATM    2  C   UNL     1      -7.637  13.867  68.123  1.00  0.00    -0.134 C  
HETATM    3  C   UNL     1      -7.186  15.217  68.765  1.00  0.00    -0.127 C  
HETATM    4  C   UNL     1      -6.428  12.804  68.121  1.00  0.00    -0.085 C  
HETATM    5  C   UNL     1      -7.281   8.435  67.814  1.00  0.00    -0.088 C  
HETATM    6  C   UNL     1      -6.061  12.514  69.574  1.00  0.00    -0.120 C  
HETATM    7  C   UNL     1      -7.131  11.538  70.027  1.00  0.00     0.497 C  
HETATM    8  C   UNL     1      -5.530  10.323  67.468  1.00  0.00    -0.041 C  
HETATM    9  C   UNL     1      -6.726  11.332  67.589  1.00  0.00    -0.073 C  
HETATM   10  C   UNL     1      -7.642  10.761  68.764  1.00  0.00    -0.113 C  
HETATM   11  C   UNL     1      -7.248  11.432  66.136  1.00  0.00     0.149 C  
HETATM   12  C   UNL     1      -7.549   9.248  69.040  1.00  0.00    -0.074 C  
HETATM   13  C   UNL     1      -6.031   8.901  67.071  1.00  0.00    -0.057 C  
HETATM   14  C   UNL     1      -7.615   8.734  70.290  1.00  0.00    -0.073 C  
ENDROOT
BRANCH   3  15
HETATM   15  C   UNL     1      -8.206  16.367  68.746  1.00  0.00    -0.234 C  
BRANCH  15  16
HETATM   16  C   UNL     1      -7.809  17.523  67.820  1.00  0.00    -0.209 C  
HETATM   17  O   UNL     1      -7.735  19.879  67.377  1.00  0.00    -0.261 OA 
HETATM   18  C   UNL     1      -7.411  19.265  69.642  1.00  0.00     0.054 C  
HETATM   19  C   UNL     1      -9.668  19.094  68.544  1.00  0.00    -0.467 C  
HETATM   20  C   UNL     1      -8.162  18.925  68.353  1.00  0.00    -0.342 C  
HETATM   21  H   UNL     1      -7.953  20.743  67.706  1.00  0.00     0.000 HD 
ENDBRANCH  15  16
ENDBRANCH   3  15
BRANCH  14  22
HETATM   22  C   UNL     1      -7.011   7.496  70.758  1.00  0.00    -0.048 C  
HETATM   23  C   UNL     1      -6.964   5.424  72.164  1.00  0.00    -0.080 C  
HETATM   24  C   UNL     1      -7.616   5.273  73.555  1.00  0.00    -0.096 C  
HETATM   25  C   UNL     1      -7.681   6.465  71.319  1.00  0.00    -0.095 C  
HETATM   26  O   UNL     1      -7.379   6.427  74.367  1.00  0.00    -0.095 OA 
HETATM   27  C   UNL     1      -9.119   5.019  73.455  1.00  0.00    -0.121 C  
HETATM   28  H   UNL     1      -7.780   6.334  75.224  1.00  0.00     0.000 HD 
HETATM   29  C   UNL     1      -9.818   6.084  72.608  1.00  0.00    -0.167 C  
HETATM   30  C   UNL     1      -9.128   6.269  71.260  1.00  0.00    -0.148 C  
HETATM   31  O   UNL     1     -11.187   5.710  72.442  1.00  0.00    -0.268 OA 
HETATM   32  C   UNL     1      -9.769   6.184  70.073  1.00  0.00    -0.195 C  
HETATM   33  H   UNL     1     -11.622   6.371  71.916  1.00  0.00     0.000 HD 
ENDBRANCH  14  22
TORSDOF 3
ENDMDL
MODEL      120
REMARK 921   NORMALIZED FREE ENERGY PREDICTED BY IDOCK:   -1.13 KCAL/MOL
REMARK 922        TOTAL FREE ENERGY PREDICTED BY IDOCK:   -2.29 KCAL/MOL
REMARK 923 INTER-LIGAND FREE ENERGY PREDICTED BY IDOCK:   -4.17 KCAL/MOL
REMARK 924 INTRA-LIGAND FREE ENERGY PREDICTED BY IDOCK:    1.89 KCAL/MOL
REMARK 927      BINDING AFFINITY PREDICTED BY RF-SCORE:    0.00 PKD
ROOT
HETATM    1  C   UNL     1     -10.585  15.777  65.669  1.00  0.00    -0.393 C  
HETATM    2  C   UNL     1     -10.053  15.595  67.098  1.00  0.00    -0.256 C  
HETATM    3  C   UNL     1      -9.861  17.007  67.737  1.00  0.00    -0.271 C  
HETATM    4  C   UNL     1      -8.728  14.700  67.283  1.00  0.00    -0.224 C  
HETATM    5  C   UNL     1      -8.974  10.251  67.044  1.00  0.00    -0.147 C  
HETATM    6  C   UNL     1      -8.510  14.494  68.779  1.00  0.00    -0.145 C  
HETATM    7  C   UNL     1      -9.496  13.397  69.138  1.00  0.00     0.502 C  
HETATM    8  C   UNL     1      -7.448  12.344  66.839  1.00  0.00     0.051 C  
HETATM    9  C   UNL     1      -8.768  13.189  66.776  1.00  0.00    -0.095 C  
HETATM   10  C   UNL     1      -9.742  12.531  67.854  1.00  0.00    -0.205 C  
HETATM   11  C   UNL     1      -9.114  13.187  65.268  1.00  0.00     0.945 C  
HETATM   12  C   UNL     1      -9.493  11.049  68.198  1.00  0.00    -0.172 C  
HETATM   13  C   UNL     1      -7.710  10.860  66.441  1.00  0.00    -0.154 C  
HETATM   14  C   UNL     1      -9.648  10.560  69.450  1.00  0.00    -0.170 C  
ENDROOT
BRANCH   3  15
HETATM   15  C   UNL     1     -11.009  18.012  67.551  1.00  0.00    -0.111 C  
BRANCH  15  16
HETATM   16  C   UNL     1     -10.578  19.474  67.725  1.00  0.00    -0.542 C  
HETATM   17  O   UNL     1      -8.912  21.179  67.462  1.00  0.00    -0.349 OA 
HETATM   18  C   UNL     1      -9.011  19.583  65.714  1.00  0.00     0.126 C  
HETATM   19  C   UNL     1      -8.099  18.991  67.982  1.00  0.00    -0.328 C  
HETATM   20  C   UNL     1      -9.156  19.790  67.222  1.00  0.00    -0.326 C  
HETATM   21  H   UNL     1      -8.034  21.373  67.152  1.00  0.00     0.000 HD 
ENDBRANCH  15  16
ENDBRANCH   3  15
BRANCH  14  22
HETATM   22  C   UNL     1      -8.954   9.423  70.034  1.00  0.00    -0.234 C  
HETATM   23  C   UNL     1      -8.802   7.032  70.765  1.00  0.00    -0.149 C  
HETATM   24  C   UNL     1      -9.986   6.170  71.251  1.00  0.00    -0.182 C  
HETATM   25  C   UNL     1      -9.259   8.125  69.812  1.00  0.00    -0.151 C  
HETATM   26  O   UNL     1     -10.835   6.905  72.138  1.00  0.00    -0.216 OA 
HETATM   27  C   UNL     1     -10.812   5.629  70.086  1.00  0.00    -0.356 C  
HETATM   28  H   UNL     1     -11.563   6.374  72.437  1.00  0.00     0.000 HD 
HETATM   29  C   UNL     1     -11.267   6.748  69.146  1.00  0.00    -0.177 C  
HETATM   30  C   UNL     1     -10.098   7.632  68.722  1.00  0.00    -0.202 C  
HETATM   31  O   UNL     1     -11.910   6.161  68.014  1.00  0.00    -0.003 OA 
HETATM   32  C   UNL     1      -9.788   7.894  67.434  1.00  0.00    -0.237 C  
HETATM   33  H   UNL     1     -12.193   6.856  67.431  1.00  0.00     0.000 HD 
ENDBRANCH  14  22
TORSDOF 3
ENDMDL
MODEL      121
REMARK 921   NORMALIZED FREE ENERGY PREDICTED BY IDOCK:   -0.99 KCAL/MOL
REMARK 922        TOTAL FREE ENERGY PREDICTED BY IDOCK:   -2.13 KCAL/MOL
REMARK 923 INTER-LIGAND FREE ENERGY PREDICTED BY IDOCK:   -1.82 KCAL/MOL
REMARK 924 INTRA-LIGAND FREE ENERGY PREDICTED BY IDOCK:   -0.31 KCAL/MOL
REMARK 927      BINDING AFFINITY PREDICTED BY RF-SCORE:    0.00 PKD
ROOT
HETATM    1  C   UNL     1      -7.654  11.616  68.756  1.00  0.00    -0.119 C  
HETATM    2  C   UNL     1      -8.143  10.364  68.014  1.00  0.00    -0.110 C  
HETATM    3  C   UNL     1      -9.054  10.816  66.828  1.00  0.00    -0.167 C  
HETATM    4  C   UNL     1      -8.871   9.226  68.890  1.00  0.00    -0.135 C  
HETATM    5  C   UNL     1      -6.461   6.490  71.461  1.00  0.00    -0.046 C  
HETATM    6  C   UNL     1      -9.082   8.010  67.991  1.00  0.00    -0.130 C  
HETATM    7  C   UNL     1      -7.718   7.344  67.963  1.00  0.00    -0.116 C  
HETATM    8  C   UNL     1      -8.793   7.549  71.027  1.00  0.00    -0.146 C  
HETATM    9  C   UNL     1      -8.055   8.570  70.092  1.00  0.00    -0.111 C  
HETATM   10  C   UNL     1      -6.975   7.708  69.295  1.00  0.00    -0.060 C  
HETATM   11  C   UNL     1      -7.631   9.694  71.066  1.00  0.00     0.181 C  
HETATM   12  C   UNL     1      -6.495   6.408  69.969  1.00  0.00    -0.040 C  
HETATM   13  C   UNL     1      -7.806   6.908  72.050  1.00  0.00    -0.095 C  
HETATM   14  C   UNL     1      -6.223   5.285  69.264  1.00  0.00    -0.033 C  
ENDROOT
BRANCH   3  15
HETATM   15  C   UNL     1      -8.534  11.973  65.960  1.00  0.00     0.271 C  
BRANCH  15  16
HETATM   16  C   UNL     1      -9.167  12.024  64.563  1.00  0.00     0.392 C  
HETATM   17  O   UNL     1     -10.542  11.006  62.883  1.00  0.00    -0.777 OA 
HETATM   18  C   UNL     1     -11.263  10.678  65.116  1.00  0.00     0.576 C  
HETATM   19  C   UNL     1      -9.228   9.511  64.208  1.00  0.00    -0.166 C  
HETATM   20  C   UNL     1     -10.040  10.805  64.207  1.00  0.00    -0.361 C  
HETATM   21  H   UNL     1     -11.080  10.254  62.664  1.00  0.00     0.000 HD 
ENDBRANCH  15  16
ENDBRANCH   3  15
BRANCH  14  22
HETATM   22  C   UNL     1      -6.317   3.913  69.739  1.00  0.00    -0.028 C  
HETATM   23  C   UNL     1      -7.320   2.097  71.142  1.00  0.00    -0.033 C  
HETATM   24  C   UNL     1      -7.980   2.296  72.522  1.00  0.00    -0.054 C  
HETATM   25  C   UNL     1      -7.417   3.351  70.288  1.00  0.00    -0.041 C  
HETATM   26  O   UNL     1      -7.215   3.187  73.340  1.00  0.00    -0.043 OA 
HETATM   27  C   UNL     1      -9.411   2.816  72.399  1.00  0.00    -0.159 C  
HETATM   28  H   UNL     1      -7.622   3.309  74.190  1.00  0.00     0.000 HD 
HETATM   29  C   UNL     1      -9.481   4.083  71.544  1.00  0.00    -0.153 C  
HETATM   30  C   UNL     1      -8.770   3.895  70.207  1.00  0.00    -0.123 C  
HETATM   31  O   UNL     1     -10.853   4.433  71.357  1.00  0.00     0.242 OA 
HETATM   32  C   UNL     1      -9.353   4.130  69.010  1.00  0.00    -0.232 C  
HETATM   33  H   UNL     1     -10.897   5.220  70.826  1.00  0.00     0.000 HD 
ENDBRANCH  14  22
TORSDOF 3
ENDMDL
MODEL      122
REMARK 921   NORMALIZED FREE ENERGY PREDICTED BY IDOCK:   -0.25 KCAL/MOL
REMARK 922        TOTAL FREE ENERGY PREDICTED BY IDOCK:   -1.26 KCAL/MOL
REMARK 923 INTER-LIGAND FREE ENERGY PREDICTED BY IDOCK:    0.61 KCAL/MOL
REMARK 924 INTRA-LIGAND FREE ENERGY PREDICTED BY IDOCK:   -1.86 KCAL/MOL
REMARK 927      BINDING AFFINITY PREDICTED BY RF-SCORE:    0.00 PKD
ROOT
HETATM    1  C   UNL     1      -8.953  13.093  65.105  1.00  0.00     1.406 C  
HETATM    2  C   UNL     1      -8.162  12.492  66.276  1.00  0.00     0.497 C  
HETATM    3  C   UNL     1      -7.115  13.546  66.758  1.00  0.00     1.152 C  
HETATM    4  C   UNL     1      -7.462  11.062  66.035  1.00  0.00    -0.032 C  
HETATM    5  C   UNL     1      -9.911   7.333  66.063  1.00  0.00     0.363 C  
HETATM    6  C   UNL     1      -6.917  10.579  67.376  1.00  0.00    -0.085 C  
HETATM    7  C   UNL     1      -8.144  10.039  68.089  1.00  0.00    -0.108 C  
HETATM    8  C   UNL     1      -7.710   8.465  65.274  1.00  0.00    -0.098 C  
HETATM    9  C   UNL     1      -8.391   9.833  65.629  1.00  0.00    -0.138 C  
HETATM   10  C   UNL     1      -9.170   9.573  66.997  1.00  0.00    -0.166 C  
HETATM   11  C   UNL     1      -9.146  10.197  64.329  1.00  0.00    -0.288 C  
HETATM   12  C   UNL     1      -9.583   8.118  67.292  1.00  0.00    -0.211 C  
HETATM   13  C   UNL     1      -8.773   7.348  65.044  1.00  0.00     0.187 C  
HETATM   14  C   UNL     1      -9.557   7.596  68.540  1.00  0.00    -0.149 C  
ENDROOT
BRANCH   3  15
HETATM   15  C   UNL     1      -7.617  14.988  66.934  1.00  0.00     0.076 C  
BRANCH  15  16
HETATM   16  C   UNL     1      -8.205  15.268  68.323  1.00  0.00    -0.142 C  
HETATM   17  O   UNL     1      -9.934  16.235  69.675  1.00  0.00    -0.228 OA 
HETATM   18  C   UNL     1     -10.660  15.286  67.629  1.00  0.00    -0.270 C  
HETATM   19  C   UNL     1      -9.360  17.439  67.690  1.00  0.00    -0.245 C  
HETATM   20  C   UNL     1      -9.530  16.055  68.314  1.00  0.00    -0.206 C  
HETATM   21  H   UNL     1     -10.750  16.720  69.669  1.00  0.00     0.000 HD 
ENDBRANCH  15  16
ENDBRANCH   3  15
BRANCH  14  22
HETATM   22  C   UNL     1      -9.365   6.200  68.899  1.00  0.00    -0.126 C  
HETATM   23  C   UNL     1      -8.353   3.930  68.585  1.00  0.00    -0.091 C  
HETATM   24  C   UNL     1      -7.918   3.326  67.234  1.00  0.00    -0.078 C  
HETATM   25  C   UNL     1      -8.291   5.449  68.565  1.00  0.00    -0.097 C  
HETATM   26  O   UNL     1      -8.889   3.579  66.214  1.00  0.00    -0.118 OA 
HETATM   27  C   UNL     1      -6.557   3.855  66.785  1.00  0.00    -0.046 C  
HETATM   28  H   UNL     1      -8.621   3.206  65.382  1.00  0.00     0.000 HD 
HETATM   29  C   UNL     1      -6.523   5.385  66.765  1.00  0.00    -0.041 C  
HETATM   30  C   UNL     1      -7.015   5.972  68.084  1.00  0.00    -0.076 C  
HETATM   31  O   UNL     1      -5.191   5.809  66.474  1.00  0.00    -0.008 OA 
HETATM   32  C   UNL     1      -6.306   6.857  68.819  1.00  0.00    -0.028 C  
HETATM   33  H   UNL     1      -5.169   6.759  66.461  1.00  0.00     0.000 HD 
ENDBRANCH  14  22
TORSDOF 3
ENDMDL
MODEL      123
REMARK 921   NORMALIZED FREE ENERGY PREDICTED BY IDOCK:    0.48 KCAL/MOL
REMARK 922        TOTAL FREE ENERGY PREDICTED BY IDOCK:   -0.40 KCAL/MOL
REMARK 923 INTER-LIGAND FREE ENERGY PREDICTED BY IDOCK:   -1.07 KCAL/MOL
REMARK 924 INTRA-LIGAND FREE ENERGY PREDICTED BY IDOCK:    0.67 KCAL/MOL
REMARK 927      BINDING AFFINITY PREDICTED BY RF-SCORE:    0.00 PKD
ROOT
HETATM    1  C   UNL     1      -7.064  10.665  68.292  1.00  0.00    -0.081 C  
HETATM    2  C   UNL     1      -8.184   9.772  67.740  1.00  0.00    -0.114 C  
HETATM    3  C   UNL     1      -9.537  10.228  68.373  1.00  0.00    -0.155 C  
HETATM    4  C   UNL     1      -7.995   8.180  67.883  1.00  0.00    -0.127 C  
HETATM    5  C   UNL     1      -5.213   5.996  65.163  1.00  0.00    -0.013 C  
HETATM    6  C   UNL     1      -9.114   7.505  67.095  1.00  0.00    -0.144 C  
HETATM    7  C   UNL     1      -8.642   7.593  65.655  1.00  0.00    -0.142 C  
HETATM    8  C   UNL     1      -6.453   5.985  67.446  1.00  0.00    -0.047 C  
HETATM    9  C   UNL     1      -6.712   7.514  67.211  1.00  0.00    -0.067 C  
HETATM   10  C   UNL     1      -7.075   7.647  65.663  1.00  0.00    -0.061 C  
HETATM   11  C   UNL     1      -5.447   8.179  67.803  1.00  0.00    -0.034 C  
HETATM   12  C   UNL     1      -6.534   6.547  64.729  1.00  0.00    -0.041 C  
HETATM   13  C   UNL     1      -5.243   5.482  66.601  1.00  0.00    -0.005 C  
HETATM   14  C   UNL     1      -7.243   6.077  63.677  1.00  0.00    -0.060 C  
ENDROOT
BRANCH   3  15
HETATM   15  C   UNL     1      -9.812  11.740  68.401  1.00  0.00    -0.199 C  
BRANCH  15  16
HETATM   16  C   UNL     1      -8.595  12.576  68.817  1.00  0.00     0.153 C  
HETATM   17  O   UNL     1      -7.076  14.376  68.363  1.00  0.00    -0.091 OA 
HETATM   18  C   UNL     1      -9.324  14.762  67.722  1.00  0.00    -0.199 C  
HETATM   19  C   UNL     1      -7.855  13.158  66.459  1.00  0.00     0.812 C  
HETATM   20  C   UNL     1      -8.224  13.705  67.836  1.00  0.00    -0.171 C  
HETATM   21  H   UNL     1      -6.848  15.072  67.758  1.00  0.00     0.000 HD 
ENDBRANCH  15  16
ENDBRANCH   3  15
BRANCH  14  22
HETATM   22  C   UNL     1      -7.154   4.750  63.088  1.00  0.00    -0.047 C  
HETATM   23  C   UNL     1      -7.869   2.362  62.838  1.00  0.00    -0.063 C  
HETATM   24  C   UNL     1      -8.475   1.490  63.957  1.00  0.00    -0.073 C  
HETATM   25  C   UNL     1      -8.153   3.839  63.063  1.00  0.00    -0.080 C  
HETATM   26  O   UNL     1      -7.777   1.670  65.193  1.00  0.00    -0.068 OA 
HETATM   27  C   UNL     1      -9.961   1.780  64.163  1.00  0.00    -0.030 C  
HETATM   28  H   UNL     1      -8.150   1.133  65.882  1.00  0.00     0.000 HD 
HETATM   29  C   UNL     1     -10.219   3.270  64.396  1.00  0.00    -0.093 C  
HETATM   30  C   UNL     1      -9.562   4.127  63.318  1.00  0.00    -0.132 C  
HETATM   31  O   UNL     1     -11.630   3.488  64.442  1.00  0.00    -0.326 OA 
HETATM   32  C   UNL     1     -10.229   5.041  62.579  1.00  0.00     0.629 C  
HETATM   33  H   UNL     1     -11.791   4.413  64.586  1.00  0.00     0.000 HD 
ENDBRANCH  14  22
TORSDOF 3
ENDMDL
MODEL      124
REMARK 921   NORMALIZED FREE ENERGY PREDICTED BY IDOCK:    0.62 KCAL/MOL
REMARK 922        TOTAL FREE ENERGY PREDICTED BY IDOCK:   -0.23 KCAL/MOL
REMARK 923 INTER-LIGAND FREE ENERGY PREDICTED BY IDOCK:   -6.75 KCAL/MOL
REMARK 924 INTRA-LIGAND FREE ENERGY PREDICTED BY IDOCK:    6.52 KCAL/MOL
REMARK 927      BINDING AFFINITY PREDICTED BY RF-SCORE:    0.00 PKD
ROOT
HETATM    1  C   UNL     1     -12.302  13.896  70.250  1.00  0.00    -0.413 C  
HETATM    2  C   UNL     1     -11.816  12.945  69.146  1.00  0.00    -0.353 C  
HETATM    3  C   UNL     1     -12.098  13.610  67.761  1.00  0.00    -0.325 C  
HETATM    4  C   UNL     1     -12.371  11.435  69.178  1.00  0.00    -0.097 C  
HETATM    5  C   UNL     1     -10.737   8.504  72.119  1.00  0.00    -0.426 C  
HETATM    6  C   UNL     1     -11.606  10.635  68.128  1.00  0.00    -0.217 C  
HETATM    7  C   UNL     1     -10.280  10.333  68.802  1.00  0.00    -0.205 C  
HETATM    8  C   UNL     1     -12.730   9.132  70.575  1.00  0.00     0.335 C  
HETATM    9  C   UNL     1     -12.091  10.561  70.481  1.00  0.00    -0.437 C  
HETATM   10  C   UNL     1     -10.521  10.313  70.352  1.00  0.00    -0.141 C  
HETATM   11  C   UNL     1     -12.695  11.295  71.702  1.00  0.00    -0.448 C  
HETATM   12  C   UNL     1      -9.981   8.988  70.923  1.00  0.00    -0.326 C  
HETATM   13  C   UNL     1     -12.234   8.374  71.844  1.00  0.00    -0.395 C  
HETATM   14  C   UNL     1      -8.977   8.300  70.331  1.00  0.00    -0.146 C  
ENDROOT
BRANCH   3  15
HETATM   15  C   UNL     1     -11.713  15.091  67.614  1.00  0.00    -0.281 C  
BRANCH  15  16
HETATM   16  C   UNL     1     -10.525  15.325  66.673  1.00  0.00    -0.290 C  
HETATM   17  O   UNL     1      -8.574  16.591  66.088  1.00  0.00    -0.314 OA 
HETATM   18  C   UNL     1      -8.930  16.295  68.411  1.00  0.00    -0.203 C  
HETATM   19  C   UNL     1     -10.379  17.832  67.046  1.00  0.00    -0.344 C  
HETATM   20  C   UNL     1      -9.618  16.508  67.062  1.00  0.00    -0.242 C  
HETATM   21  H   UNL     1      -8.015  17.321  66.328  1.00  0.00     0.000 HD 
ENDBRANCH  15  16
ENDBRANCH   3  15
BRANCH  14  22
HETATM   22  C   UNL     1      -8.751   6.864  70.389  1.00  0.00    -0.147 C  
HETATM   23  C   UNL     1      -9.247   4.555  71.223  1.00  0.00    -0.195 C  
HETATM   24  C   UNL     1      -9.822   4.212  72.614  1.00  0.00    -0.150 C  
HETATM   25  C   UNL     1      -9.666   5.945  70.771  1.00  0.00    -0.212 C  
HETATM   26  O   UNL     1      -9.192   4.983  73.641  1.00  0.00    -0.123 OA 
HETATM   27  C   UNL     1     -11.334   4.421  72.673  1.00  0.00     0.101 C  
HETATM   28  H   UNL     1      -9.546   4.772  74.497  1.00  0.00     0.000 HD 
HETATM   29  C   UNL     1     -11.728   5.829  72.222  1.00  0.00    -0.205 C  
HETATM   30  C   UNL     1     -11.104   6.181  70.876  1.00  0.00    -0.371 C  
HETATM   31  O   UNL     1     -13.154   5.909  72.169  1.00  0.00    -0.018 OA 
HETATM   32  C   UNL     1     -11.816   6.608  69.809  1.00  0.00    -0.159 C  
HETATM   33  H   UNL     1     -13.399   6.784  71.890  1.00  0.00     0.000 HD 
ENDBRANCH  14  22
TORSDOF 3
ENDMDL
MODEL      125
REMARK 921   NORMALIZED FREE ENERGY PREDICTED BY IDOCK:    1.12 KCAL/MOL
REMARK 922        TOTAL FREE ENERGY PREDICTED BY IDOCK:    0.35 KCAL/MOL
REMARK 923 INTER-LIGAND FREE ENERGY PREDICTED BY IDOCK:    0.86 KCAL/MOL
REMARK 924 INTRA-LIGAND FREE ENERGY PREDICTED BY IDOCK:   -0.50 KCAL/MOL
REMARK 927      BINDING AFFINITY PREDICTED BY RF-SCORE:    0.00 PKD
ROOT
HETATM    1  C   UNL     1      -9.347  12.790  68.008  1.00  0.00    -0.213 C  
HETATM    2  C   UNL     1      -8.286  12.121  68.893  1.00  0.00     0.161 C  
HETATM    3  C   UNL     1      -7.286  13.218  69.380  1.00  0.00     0.230 C  
HETATM    4  C   UNL     1      -7.495  10.864  68.272  1.00  0.00    -0.093 C  
HETATM    5  C   UNL     1      -9.475   6.874  68.013  1.00  0.00    -0.124 C  
HETATM    6  C   UNL     1      -6.654  10.247  69.386  1.00  0.00    -0.058 C  
HETATM    7  C   UNL     1      -7.655   9.430  70.182  1.00  0.00    -0.132 C  
HETATM    8  C   UNL     1      -7.602   8.419  67.090  1.00  0.00    -0.093 C  
HETATM    9  C   UNL     1      -8.346   9.600  67.806  1.00  0.00    -0.121 C  
HETATM   10  C   UNL     1      -8.815   9.011  69.213  1.00  0.00    -0.139 C  
HETATM   11  C   UNL     1      -9.372  10.064  66.745  1.00  0.00    -0.193 C  
HETATM   12  C   UNL     1      -9.004   7.483  69.295  1.00  0.00    -0.136 C  
HETATM   13  C   UNL     1      -8.563   7.218  66.838  1.00  0.00    -0.124 C  
HETATM   14  C   UNL     1      -8.682   6.772  70.400  1.00  0.00    -0.151 C  
ENDROOT
BRANCH   3  15
HETATM   15  C   UNL     1      -7.897  14.526  69.906  1.00  0.00     0.389 C  
BRANCH  15  16
HETATM   16  C   UNL     1      -6.858  15.620  70.185  1.00  0.00     0.127 C  
HETATM   17  O   UNL     1      -5.296  17.241  69.358  1.00  0.00    -0.158 OA 
HETATM   18  C   UNL     1      -7.275  16.997  68.078  1.00  0.00    -0.172 C  
HETATM   19  C   UNL     1      -5.488  15.226  68.084  1.00  0.00    -0.131 C  
HETATM   20  C   UNL     1      -6.239  16.256  68.926  1.00  0.00    -0.138 C  
HETATM   21  H   UNL     1      -4.915  17.633  68.581  1.00  0.00     0.000 HD 
ENDBRANCH  15  16
ENDBRANCH   3  15
BRANCH  14  22
HETATM   22  C   UNL     1      -8.275   5.376  70.451  1.00  0.00    -0.105 C  
HETATM   23  C   UNL     1      -8.349   3.059  71.400  1.00  0.00    -0.083 C  
HETATM   24  C   UNL     1      -8.655   2.707  72.871  1.00  0.00    -0.071 C  
HETATM   25  C   UNL     1      -9.000   4.372  70.992  1.00  0.00    -0.164 C  
HETATM   26  O   UNL     1      -7.974   3.587  73.769  1.00  0.00    -0.072 OA 
HETATM   27  C   UNL     1     -10.154   2.738  73.164  1.00  0.00    -0.197 C  
HETATM   28  H   UNL     1      -8.162   3.369  74.675  1.00  0.00     0.000 HD 
HETATM   29  C   UNL     1     -10.783   4.071  72.753  1.00  0.00    -0.095 C  
HETATM   30  C   UNL     1     -10.422   4.441  71.317  1.00  0.00     0.059 C  
HETATM   31  O   UNL     1     -12.199   3.981  72.924  1.00  0.00     0.452 OA 
HETATM   32  C   UNL     1     -11.338   4.738  70.369  1.00  0.00     2.401 C  
HETATM   33  H   UNL     1     -12.590   4.808  72.669  1.00  0.00     0.000 HD 
ENDBRANCH  14  22
TORSDOF 3
ENDMDL
MODEL      126
REMARK 921   NORMALIZED FREE ENERGY PREDICTED BY IDOCK:    1.48 KCAL/MOL
REMARK 922        TOTAL FREE ENERGY PREDICTED BY IDOCK:    0.78 KCAL/MOL
REMARK 923 INTER-LIGAND FREE ENERGY PREDICTED BY IDOCK:   -0.61 KCAL/MOL
REMARK 924 INTRA-LIGAND FREE ENERGY PREDICTED BY IDOCK:    1.38 KCAL/MOL
REMARK 927      BINDING AFFINITY PREDICTED BY RF-SCORE:    0.00 PKD
ROOT
HETATM    1  C   UNL     1      -7.786  12.316  69.183  1.00  0.00     0.260 C  
HETATM    2  C   UNL     1      -8.329  11.686  67.892  1.00  0.00    -0.143 C  
HETATM    3  C   UNL     1      -9.510  12.566  67.372  1.00  0.00    -0.184 C  
HETATM    4  C   UNL     1      -8.756  10.135  67.951  1.00  0.00    -0.122 C  
HETATM    5  C   UNL     1      -5.636   6.946  67.931  1.00  0.00    -0.016 C  
HETATM    6  C   UNL     1      -9.066   9.682  66.527  1.00  0.00    -0.185 C  
HETATM    7  C   UNL     1      -7.695   9.448  65.919  1.00  0.00    -0.099 C  
HETATM    8  C   UNL     1      -8.081   7.572  68.549  1.00  0.00    -0.125 C  
HETATM    9  C   UNL     1      -7.648   9.069  68.369  1.00  0.00    -0.090 C  
HETATM   10  C   UNL     1      -6.707   9.084  67.081  1.00  0.00    -0.066 C  
HETATM   11  C   UNL     1      -7.107   9.447  69.768  1.00  0.00    -0.068 C  
HETATM   12  C   UNL     1      -5.992   7.765  66.732  1.00  0.00    -0.047 C  
HETATM   13  C   UNL     1      -6.847   6.657  68.816  1.00  0.00    -0.070 C  
HETATM   14  C   UNL     1      -5.797   7.363  65.455  1.00  0.00    -0.037 C  
ENDROOT
BRANCH   3  15
HETATM   15  C   UNL     1      -9.285  14.086  67.356  1.00  0.00    -0.216 C  
BRANCH  15  16
HETATM   16  C   UNL     1      -7.983  14.506  66.662  1.00  0.00     0.433 C  
HETATM   17  O   UNL     1      -5.771  15.421  66.804  1.00  0.00     0.210 OA 
HETATM   18  C   UNL     1      -6.416  14.046  68.622  1.00  0.00    -0.091 C  
HETATM   19  C   UNL     1      -7.385  16.346  68.305  1.00  0.00    -0.158 C  
HETATM   20  C   UNL     1      -6.906  15.077  67.604  1.00  0.00    -0.179 C  
HETATM   21  H   UNL     1      -5.107  15.774  67.385  1.00  0.00     0.000 HD 
ENDBRANCH  15  16
ENDBRANCH   3  15
BRANCH  14  22
HETATM   22  C   UNL     1      -5.677   5.993  64.979  1.00  0.00    -0.024 C  
HETATM   23  C   UNL     1      -6.596   3.880  63.996  1.00  0.00    -0.042 C  
HETATM   24  C   UNL     1      -8.042   3.372  64.165  1.00  0.00    -0.086 C  
HETATM   25  C   UNL     1      -6.517   5.395  64.105  1.00  0.00    -0.029 C  
HETATM   26  O   UNL     1      -8.493   3.525  65.515  1.00  0.00    -0.104 OA 
HETATM   27  C   UNL     1      -9.010   4.082  63.220  1.00  0.00    -0.114 C  
HETATM   28  H   UNL     1      -9.383   3.212  65.619  1.00  0.00     0.000 HD 
HETATM   29  C   UNL     1      -8.919   5.604  63.356  1.00  0.00     0.439 C  
HETATM   30  C   UNL     1      -7.477   6.089  63.250  1.00  0.00    -0.075 C  
HETATM   31  O   UNL     1      -9.743   6.202  62.354  1.00  0.00     0.490 OA 
HETATM   32  C   UNL     1      -7.070   7.039  62.378  1.00  0.00    -0.068 C  
HETATM   33  H   UNL     1      -9.687   7.147  62.438  1.00  0.00     0.000 HD 
ENDBRANCH  14  22
TORSDOF 3
ENDMDL
MODEL      127
REMARK 921   NORMALIZED FREE ENERGY PREDICTED BY IDOCK:    1.52 KCAL/MOL
REMARK 922        TOTAL FREE ENERGY PREDICTED BY IDOCK:    0.82 KCAL/MOL
REMARK 923 INTER-LIGAND FREE ENERGY PREDICTED BY IDOCK:    0.46 KCAL/MOL
REMARK 924 INTRA-LIGAND FREE ENERGY PREDICTED BY IDOCK:    0.36 KCAL/MOL
REMARK 927      BINDING AFFINITY PREDICTED BY RF-SCORE:    0.00 PKD
ROOT
HETATM    1  C   UNL     1      -6.613  18.276  65.895  1.00  0.00    -0.306 C  
HETATM    2  C   UNL     1      -7.178  17.889  67.270  1.00  0.00    -0.202 C  
HETATM    3  C   UNL     1      -7.418  19.196  68.091  1.00  0.00    -0.316 C  
HETATM    4  C   UNL     1      -6.344  16.817  68.134  1.00  0.00    -0.143 C  
HETATM    5  C   UNL     1      -6.507  12.481  67.091  1.00  0.00    -0.053 C  
HETATM    6  C   UNL     1      -7.189  16.440  69.348  1.00  0.00    -0.172 C  
HETATM    7  C   UNL     1      -8.196  15.450  68.792  1.00  0.00    -0.172 C  
HETATM    8  C   UNL     1      -5.170  14.370  68.273  1.00  0.00    -0.113 C  
HETATM    9  C   UNL     1      -6.083  15.381  67.494  1.00  0.00    -0.095 C  
HETATM   10  C   UNL     1      -7.548  14.751  67.545  1.00  0.00    -0.215 C  
HETATM   11  C   UNL     1      -5.333  15.570  66.154  1.00  0.00     3.658 C  
HETATM   12  C   UNL     1      -7.639  13.224  67.728  1.00  0.00    -0.161 C  
HETATM   13  C   UNL     1      -5.145  12.978  67.572  1.00  0.00    -0.002 C  
HETATM   14  C   UNL     1      -8.606  12.639  68.472  1.00  0.00    -0.051 C  
ENDROOT
BRANCH   3  15
HETATM   15  C   UNL     1      -8.115  20.354  67.360  1.00  0.00    -0.367 C  
BRANCH  15  16
HETATM   16  C   UNL     1      -9.550  20.029  66.927  1.00  0.00    -0.541 C  
HETATM   17  O   UNL     1     -11.831  19.578  67.514  1.00  0.00     0.743 OA 
HETATM   18  C   UNL     1     -10.737  21.187  68.865  1.00  0.00     1.135 C  
HETATM   19  C   UNL     1     -10.176  18.740  69.022  1.00  0.00    -0.181 C  
HETATM   20  C   UNL     1     -10.556  19.884  68.085  1.00  0.00    -0.217 C  
HETATM   21  H   UNL     1     -12.451  19.489  68.229  1.00  0.00     0.000 HD 
ENDBRANCH  15  16
ENDBRANCH   3  15
BRANCH  14  22
HETATM   22  C   UNL     1      -8.516  11.371  69.178  1.00  0.00     0.150 C  
HETATM   23  C   UNL     1      -9.102   8.960  69.527  1.00  0.00    -0.146 C  
HETATM   24  C   UNL     1     -10.445   8.304  69.144  1.00  0.00    -0.206 C  
HETATM   25  C   UNL     1      -8.794  10.160  68.644  1.00  0.00    -0.136 C  
HETATM   26  O   UNL     1     -11.552   9.138  69.500  1.00  0.00    -0.419 OA 
HETATM   27  C   UNL     1     -10.513   7.973  67.654  1.00  0.00    -0.301 C  
HETATM   28  H   UNL     1     -12.379   8.733  69.264  1.00  0.00     0.000 HD 
HETATM   29  C   UNL     1     -10.208   9.197  66.788  1.00  0.00    -0.261 C  
HETATM   30  C   UNL     1      -8.910   9.876  67.216  1.00  0.00    -0.138 C  
HETATM   31  O   UNL     1     -10.152   8.788  65.421  1.00  0.00    -0.198 OA 
HETATM   32  C   UNL     1      -7.888  10.137  66.371  1.00  0.00    -0.114 C  
HETATM   33  H   UNL     1      -9.963   9.548  64.883  1.00  0.00     0.000 HD 
ENDBRANCH  14  22
TORSDOF 3
ENDMDL
MODEL      128
REMARK 921   NORMALIZED FREE ENERGY PREDICTED BY IDOCK:    2.32 KCAL/MOL
REMARK 922        TOTAL FREE ENERGY PREDICTED BY IDOCK:    1.77 KCAL/MOL
REMARK 923 INTER-LIGAND FREE ENERGY PREDICTED BY IDOCK:    1.58 KCAL/MOL
REMARK 924 INTRA-LIGAND FREE ENERGY PREDICTED BY IDOCK:    0.19 KCAL/MOL
REMARK 927      BINDING AFFINITY PREDICTED BY RF-SCORE:    0.00 PKD
ROOT
HETATM    1  C   UNL     1      -9.739  14.171  68.095  1.00  0.00    -0.225 C  
HETATM    2  C   UNL     1      -9.653  12.734  68.632  1.00  0.00    -0.028 C  
HETATM    3  C   UNL     1     -10.128  12.734  70.120  1.00  0.00     2.789 C  
HETATM    4  C   UNL     1      -8.241  11.975  68.483  1.00  0.00    -0.113 C  
HETATM    5  C   UNL     1      -6.980  10.337  64.529  1.00  0.00    -0.067 C  
HETATM    6  C   UNL     1      -8.450  10.519  68.891  1.00  0.00    -0.152 C  
HETATM    7  C   UNL     1      -9.099   9.893  67.670  1.00  0.00    -0.140 C  
HETATM    8  C   UNL     1      -6.211  11.162  66.870  1.00  0.00    -0.111 C  
HETATM    9  C   UNL     1      -7.641  11.791  67.019  1.00  0.00    -0.147 C  
HETATM   10  C   UNL     1      -8.643  10.709  66.410  1.00  0.00    -0.151 C  
HETATM   11  C   UNL     1      -7.477  13.189  66.377  1.00  0.00     1.620 C  
HETATM   12  C   UNL     1      -8.059   9.733  65.371  1.00  0.00    -0.127 C  
HETATM   13  C   UNL     1      -5.852  10.929  65.371  1.00  0.00    -0.019 C  
HETATM   14  C   UNL     1      -8.436   8.436  65.304  1.00  0.00    -0.189 C  
ENDROOT
BRANCH   3  15
HETATM   15  C   UNL     1     -11.415  13.512  70.436  1.00  0.00     0.067 C  
BRANCH  15  16
HETATM   16  C   UNL     1     -12.608  12.611  70.780  1.00  0.00    -0.302 C  
HETATM   17  O   UNL     1     -13.672  10.465  70.667  1.00  0.00    -0.068 OA 
HETATM   18  C   UNL     1     -11.317  10.414  70.914  1.00  0.00    -0.307 C  
HETATM   19  C   UNL     1     -12.395  11.102  68.748  1.00  0.00     0.132 C  
HETATM   20  C   UNL     1     -12.487  11.161  70.272  1.00  0.00    -0.274 C  
HETATM   21  H   UNL     1     -13.597   9.571  70.353  1.00  0.00     0.000 HD 
ENDBRANCH  15  16
ENDBRANCH   3  15
BRANCH  14  22
HETATM   22  C   UNL     1      -7.639   7.319  64.819  1.00  0.00    -0.104 C  
HETATM   23  C   UNL     1      -6.527   5.089  65.074  1.00  0.00    -0.036 C  
HETATM   24  C   UNL     1      -5.976   4.512  66.395  1.00  0.00    -0.027 C  
HETATM   25  C   UNL     1      -7.667   6.065  65.321  1.00  0.00    -0.093 C  
HETATM   26  O   UNL     1      -5.266   5.506  67.140  1.00  0.00    -0.004 OA 
HETATM   27  C   UNL     1      -7.083   3.917  67.262  1.00  0.00    -0.063 C  
HETATM   28  H   UNL     1      -4.927   5.150  67.953  1.00  0.00     0.000 HD 
HETATM   29  C   UNL     1      -8.214   4.920  67.503  1.00  0.00    -0.105 C  
HETATM   30  C   UNL     1      -8.708   5.531  66.196  1.00  0.00    -0.133 C  
HETATM   31  O   UNL     1      -9.271   4.258  68.199  1.00  0.00    -0.124 OA 
HETATM   32  C   UNL     1     -10.003   5.524  65.809  1.00  0.00     0.077 C  
HETATM   33  H   UNL     1      -9.973   4.880  68.349  1.00  0.00     0.000 HD 
ENDBRANCH  14  22
TORSDOF 3
ENDMDL
MODEL      129
REMARK 921   NORMALIZED FREE ENERGY PREDICTED BY IDOCK:    2.36 KCAL/MOL
REMARK 922        TOTAL FREE ENERGY PREDICTED BY IDOCK:    1.81 KCAL/MOL
REMARK 923 INTER-LIGAND FREE ENERGY PREDICTED BY IDOCK:    0.59 KCAL/MOL
REMARK 924 INTRA-LIGAND FREE ENERGY PREDICTED BY IDOCK:    1.21 KCAL/MOL
REMARK 927      BINDING AFFINITY PREDICTED BY RF-SCORE:    0.00 PKD
ROOT
HETATM    1  C   UNL     1     -11.503   9.819  69.789  1.00  0.00    -0.145 C  
HETATM    2  C   UNL     1     -10.330   9.932  68.804  1.00  0.00    -0.222 C  
HETATM    3  C   UNL     1     -10.095  11.443  68.487  1.00  0.00    -0.211 C  
HETATM    4  C   UNL     1     -10.424   9.072  67.446  1.00  0.00    -0.338 C  
HETATM    5  C   UNL     1      -9.654   4.678  67.516  1.00  0.00    -0.198 C  
HETATM    6  C   UNL     1      -9.079   9.181  66.733  1.00  0.00    -0.176 C  
HETATM    7  C   UNL     1      -8.194   8.202  67.482  1.00  0.00    -0.123 C  
HETATM    8  C   UNL     1     -10.782   6.653  66.261  1.00  0.00     0.418 C  
HETATM    9  C   UNL     1     -10.569   7.490  67.570  1.00  0.00    -0.331 C  
HETATM   10  C   UNL     1      -9.116   7.090  68.094  1.00  0.00    -0.128 C  
HETATM   11  C   UNL     1     -11.838   7.177  68.397  1.00  0.00     1.378 C  
HETATM   12  C   UNL     1      -8.582   5.709  67.665  1.00  0.00    -0.108 C  
HETATM   13  C   UNL     1     -10.758   5.123  66.560  1.00  0.00    -0.262 C  
HETATM   14  C   UNL     1      -7.279   5.497  67.368  1.00  0.00    -0.075 C  
ENDROOT
BRANCH   3  15
HETATM   15  C   UNL     1     -10.085  12.407  69.684  1.00  0.00     1.176 C  
BRANCH  15  16
HETATM   16  C   UNL     1     -11.024  13.608  69.512  1.00  0.00    -0.054 C  
HETATM   17  O   UNL     1     -12.619  14.805  68.181  1.00  0.00    -0.417 OA 
HETATM   18  C   UNL     1     -12.761  12.444  68.050  1.00  0.00     1.846 C  
HETATM   19  C   UNL     1     -10.867  13.708  66.980  1.00  0.00    -0.291 C  
HETATM   20  C   UNL     1     -11.805  13.630  68.184  1.00  0.00    -0.372 C  
HETATM   21  H   UNL     1     -13.100  14.819  67.362  1.00  0.00     0.000 HD 
ENDBRANCH  15  16
ENDBRANCH   3  15
BRANCH  14  22
HETATM   22  C   UNL     1      -6.743   4.496  66.459  1.00  0.00    -0.051 C  
HETATM   23  C   UNL     1      -6.930   2.865  64.567  1.00  0.00    -0.049 C  
HETATM   24  C   UNL     1      -8.207   2.092  64.178  1.00  0.00    -0.078 C  
HETATM   25  C   UNL     1      -7.260   4.184  65.250  1.00  0.00    -0.071 C  
HETATM   26  O   UNL     1      -8.881   1.585  65.335  1.00  0.00    -0.115 OA 
HETATM   27  C   UNL     1      -9.170   2.953  63.364  1.00  0.00    -0.095 C  
HETATM   28  H   UNL     1      -9.667   1.108  65.096  1.00  0.00     0.000 HD 
HETATM   29  C   UNL     1      -9.493   4.269  64.076  1.00  0.00    -0.127 C  
HETATM   30  C   UNL     1      -8.224   4.995  64.511  1.00  0.00    -0.126 C  
HETATM   31  O   UNL     1     -10.281   5.080  63.203  1.00  0.00     0.040 OA 
HETATM   32  C   UNL     1      -7.946   6.277  64.184  1.00  0.00    -0.103 C  
HETATM   33  H   UNL     1     -10.482   5.897  63.645  1.00  0.00     0.000 HD 
ENDBRANCH  14  22
TORSDOF 3
ENDMDL
MODEL      130
REMARK 921   NORMALIZED FREE ENERGY PREDICTED BY IDOCK:    3.65 KCAL/MOL
REMARK 922        TOTAL FREE ENERGY PREDICTED BY IDOCK:    3.33 KCAL/MOL
REMARK 923 INTER-LIGAND FREE ENERGY PREDICTED BY IDOCK:    2.75 KCAL/MOL
REMARK 924 INTRA-LIGAND FREE ENERGY PREDICTED BY IDOCK:    0.59 KCAL/MOL
REMARK 927      BINDING AFFINITY PREDICTED BY RF-SCORE:    0.00 PKD
ROOT
HETATM    1  C   UNL     1      -7.902  11.456  69.137  1.00  0.00     0.023 C  
HETATM    2  C   UNL     1      -8.971  10.388  69.408  1.00  0.00    -0.168 C  
HETATM    3  C   UNL     1     -10.082  11.018  70.307  1.00  0.00     1.151 C  
HETATM    4  C   UNL     1      -8.473   8.984  70.017  1.00  0.00    -0.149 C  
HETATM    5  C   UNL     1      -6.462   5.987  67.392  1.00  0.00    -0.047 C  
HETATM    6  C   UNL     1      -9.660   8.025  70.008  1.00  0.00    -0.171 C  
HETATM    7  C   UNL     1      -9.735   7.557  68.566  1.00  0.00    -0.159 C  
HETATM    8  C   UNL     1      -6.821   6.835  69.822  1.00  0.00    -0.054 C  
HETATM    9  C   UNL     1      -7.405   8.143  69.184  1.00  0.00    -0.082 C  
HETATM   10  C   UNL     1      -8.294   7.652  67.954  1.00  0.00    -0.123 C  
HETATM   11  C   UNL     1      -6.148   9.021  68.972  1.00  0.00    -0.043 C  
HETATM   12  C   UNL     1      -7.926   6.290  67.335  1.00  0.00    -0.109 C  
HETATM   13  C   UNL     1      -5.908   6.075  68.813  1.00  0.00    -0.012 C  
HETATM   14  C   UNL     1      -8.860   5.428  66.873  1.00  0.00    -0.111 C  
ENDROOT
BRANCH   3  15
HETATM   15  C   UNL     1     -10.587  12.414  69.907  1.00  0.00     0.994 C  
BRANCH  15  16
HETATM   16  C   UNL     1     -12.116  12.512  69.826  1.00  0.00    -0.293 C  
HETATM   17  O   UNL     1     -14.270  11.945  70.713  1.00  0.00     2.874 OA 
HETATM   18  C   UNL     1     -12.578  12.327  72.327  1.00  0.00     0.483 C  
HETATM   19  C   UNL     1     -12.585  10.259  70.896  1.00  0.00    -0.465 C  
HETATM   20  C   UNL     1     -12.870  11.759  70.938  1.00  0.00    -0.152 C  
HETATM   21  H   UNL     1     -14.735  11.480  71.400  1.00  0.00     0.000 HD 
ENDBRANCH  15  16
ENDBRANCH   3  15
BRANCH  14  22
HETATM   22  C   UNL     1      -8.752   3.979  66.801  1.00  0.00    -0.116 C  
HETATM   23  C   UNL     1      -7.768   1.775  67.471  1.00  0.00    -0.059 C  
HETATM   24  C   UNL     1      -6.320   1.553  67.955  1.00  0.00    -0.025 C  
HETATM   25  C   UNL     1      -8.251   3.185  67.774  1.00  0.00    -0.087 C  
HETATM   26  O   UNL     1      -5.387   2.288  67.156  1.00  0.00    -0.015 OA 
HETATM   27  C   UNL     1      -6.145   1.934  69.424  1.00  0.00    -0.024 C  
HETATM   28  H   UNL     1      -4.495   2.151  67.454  1.00  0.00     0.000 HD 
HETATM   29  C   UNL     1      -6.629   3.359  69.700  1.00  0.00    -0.033 C  
HETATM   30  C   UNL     1      -8.039   3.586  69.162  1.00  0.00    -0.067 C  
HETATM   31  O   UNL     1      -6.567   3.599  71.107  1.00  0.00    -0.028 OA 
HETATM   32  C   UNL     1      -9.061   4.049  69.915  1.00  0.00    -0.185 C  
HETATM   33  H   UNL     1      -6.867   4.483  71.279  1.00  0.00     0.000 HD 
ENDBRANCH  14  22
TORSDOF 3
ENDMDL
MODEL      131
REMARK 921   NORMALIZED FREE ENERGY PREDICTED BY IDOCK:    5.07 KCAL/MOL
REMARK 922        TOTAL FREE ENERGY PREDICTED BY IDOCK:    4.99 KCAL/MOL
REMARK 923 INTER-LIGAND FREE ENERGY PREDICTED BY IDOCK:    4.59 KCAL/MOL
REMARK 924 INTRA-LIGAND FREE ENERGY PREDICTED BY IDOCK:    0.41 KCAL/MOL
REMARK 927      BINDING AFFINITY PREDICTED BY RF-SCORE:    0.00 PKD
ROOT
HETATM    1  C   UNL     1      -9.616  10.729  64.343  1.00  0.00    -0.330 C  
HETATM    2  C   UNL     1     -10.498  11.242  65.491  1.00  0.00    -0.323 C  
HETATM    3  C   UNL     1     -11.268  10.028  66.103  1.00  0.00     0.858 C  
HETATM    4  C   UNL     1     -11.508  12.450  65.161  1.00  0.00    -0.379 C  
HETATM    5  C   UNL     1      -9.968  16.621  64.776  1.00  0.00     1.500 C  
HETATM    6  C   UNL     1     -12.119  12.919  66.478  1.00  0.00    -0.375 C  
HETATM    7  C   UNL     1     -11.032  13.782  67.092  1.00  0.00    -0.299 C  
HETATM    8  C   UNL     1     -11.872  14.957  64.176  1.00  0.00    -0.202 C  
HETATM    9  C   UNL     1     -10.890  13.815  64.616  1.00  0.00    -0.416 C  
HETATM   10  C   UNL     1     -10.162  14.365  65.924  1.00  0.00    -0.341 C  
HETATM   11  C   UNL     1     -10.101  13.513  63.320  1.00  0.00     3.289 C  
HETATM   12  C   UNL     1     -10.083  15.897  66.079  1.00  0.00    -0.359 C  
HETATM   13  C   UNL     1     -11.094  16.258  63.810  1.00  0.00     1.703 C  
HETATM   14  C   UNL     1     -10.200  16.510  67.279  1.00  0.00    -0.287 C  
ENDROOT
BRANCH   3  15
HETATM   15  C   UNL     1     -10.448   8.757  66.377  1.00  0.00    -0.024 C  
BRANCH  15  16
HETATM   16  C   UNL     1      -9.739   8.766  67.737  1.00  0.00    -0.194 C  
HETATM   17  O   UNL     1      -7.998   9.616  69.150  1.00  0.00    -0.088 OA 
HETATM   18  C   UNL     1      -8.965  11.196  67.674  1.00  0.00    -0.140 C  
HETATM   19  C   UNL     1      -7.445   9.376  66.837  1.00  0.00    -0.091 C  
HETATM   20  C   UNL     1      -8.545   9.735  67.834  1.00  0.00    -0.125 C  
HETATM   21  H   UNL     1      -7.261  10.213  69.210  1.00  0.00     0.000 HD 
ENDBRANCH  15  16
ENDBRANCH   3  15
BRANCH  14  22
HETATM   22  C   UNL     1     -10.696  17.855  67.528  1.00  0.00    -0.333 C  
HETATM   23  C   UNL     1     -10.610  20.100  68.635  1.00  0.00    -0.031 C  
HETATM   24  C   UNL     1     -10.039  20.381  70.040  1.00  0.00     0.690 C  
HETATM   25  C   UNL     1      -9.956  18.884  67.997  1.00  0.00    -0.414 C  
HETATM   26  O   UNL     1     -10.451  19.382  70.979  1.00  0.00     0.394 OA 
HETATM   27  C   UNL     1      -8.514  20.470  70.028  1.00  0.00     1.768 C  
HETATM   28  H   UNL     1     -10.100  19.556  71.844  1.00  0.00     0.000 HD 
HETATM   29  C   UNL     1      -7.880  19.233  69.390  1.00  0.00    -0.006 C  
HETATM   30  C   UNL     1      -8.496  18.927  68.028  1.00  0.00    -0.325 C  
HETATM   31  O   UNL     1      -6.471  19.443  69.285  1.00  0.00    -0.284 OA 
HETATM   32  C   UNL     1      -7.773  18.780  66.895  1.00  0.00    -0.246 C  
HETATM   33  H   UNL     1      -6.077  18.675  68.889  1.00  0.00     0.000 HD 
ENDBRANCH  14  22
TORSDOF 3
ENDMDL
MODEL      132
REMARK 921   NORMALIZED FREE ENERGY PREDICTED BY IDOCK:    8.31 KCAL/MOL
REMARK 922        TOTAL FREE ENERGY PREDICTED BY IDOCK:    8.81 KCAL/MOL
REMARK 923 INTER-LIGAND FREE ENERGY PREDICTED BY IDOCK:    5.34 KCAL/MOL
REMARK 924 INTRA-LIGAND FREE ENERGY PREDICTED BY IDOCK:    3.47 KCAL/MOL
REMARK 927      BINDING AFFINITY PREDICTED BY RF-SCORE:    0.00 PKD
ROOT
HETATM    1  C   UNL     1      -7.908  11.500  69.213  1.00  0.00     0.153 C  
HETATM    2  C   UNL     1      -8.964  10.441  69.562  1.00  0.00    -0.127 C  
HETATM    3  C   UNL     1     -10.011  11.085  70.526  1.00  0.00     2.014 C  
HETATM    4  C   UNL     1      -8.435   9.039  70.150  1.00  0.00    -0.165 C  
HETATM    5  C   UNL     1      -6.614   6.009  67.426  1.00  0.00    -0.056 C  
HETATM    6  C   UNL     1      -9.626   8.087  70.226  1.00  0.00    -0.171 C  
HETATM    7  C   UNL     1      -9.796   7.608  68.796  1.00  0.00    -0.165 C  
HETATM    8  C   UNL     1      -6.811   6.878  69.867  1.00  0.00    -0.050 C  
HETATM    9  C   UNL     1      -7.428   8.185  69.257  1.00  0.00    -0.089 C  
HETATM   10  C   UNL     1      -8.397   7.690  68.091  1.00  0.00    -0.124 C  
HETATM   11  C   UNL     1      -6.183   9.053  68.956  1.00  0.00    -0.043 C  
HETATM   12  C   UNL     1      -8.077   6.320  67.461  1.00  0.00    -0.113 C  
HETATM   13  C   UNL     1      -5.969   6.105  68.807  1.00  0.00    -0.024 C  
HETATM   14  C   UNL     1      -9.044   5.460  67.068  1.00  0.00    -0.112 C  
ENDROOT
BRANCH   3  15
HETATM   15  C   UNL     1     -10.533  12.480  70.147  1.00  0.00     1.948 C  
BRANCH  15  16
HETATM   16  C   UNL     1     -12.063  12.562  70.068  1.00  0.00    -0.337 C  
HETATM   17  O   UNL     1     -14.210  11.902  70.907  1.00  0.00     2.601 OA 
HETATM   18  C   UNL     1     -12.528  12.195  72.549  1.00  0.00     1.714 C  
HETATM   19  C   UNL     1     -12.500  10.232  70.977  1.00  0.00    -0.484 C  
HETATM   20  C   UNL     1     -12.808  11.721  71.123  1.00  0.00    -0.267 C  
HETATM   21  H   UNL     1     -14.669  11.383  71.558  1.00  0.00     0.000 HD 
ENDBRANCH  15  16
ENDBRANCH   3  15
BRANCH  14  22
HETATM   22  C   UNL     1      -8.948   4.010  67.001  1.00  0.00    -0.143 C  
HETATM   23  C   UNL     1      -8.454   1.854  65.826  1.00  0.00    -0.105 C  
HETATM   24  C   UNL     1      -8.607   1.608  64.310  1.00  0.00    -0.084 C  
HETATM   25  C   UNL     1      -8.179   3.318  66.131  1.00  0.00    -0.094 C  
HETATM   26  O   UNL     1      -9.822   2.175  63.812  1.00  0.00    -0.130 OA 
HETATM   27  C   UNL     1      -7.423   2.163  63.521  1.00  0.00    -0.054 C  
HETATM   28  H   UNL     1      -9.917   2.023  62.878  1.00  0.00     0.000 HD 
HETATM   29  C   UNL     1      -7.173   3.639  63.838  1.00  0.00    -0.051 C  
HETATM   30  C   UNL     1      -7.086   3.881  65.342  1.00  0.00    -0.063 C  
HETATM   31  O   UNL     1      -5.977   4.053  63.176  1.00  0.00    -0.016 OA 
HETATM   32  C   UNL     1      -6.044   4.499  65.941  1.00  0.00    -0.027 C  
HETATM   33  H   UNL     1      -5.822   4.969  63.373  1.00  0.00     0.000 HD 
ENDBRANCH  14  22
TORSDOF 3
ENDMDL
MODEL      133
REMARK 921   NORMALIZED FREE ENERGY PREDICTED BY IDOCK:   10.65 KCAL/MOL
REMARK 922        TOTAL FREE ENERGY PREDICTED BY IDOCK:   11.56 KCAL/MOL
REMARK 923 INTER-LIGAND FREE ENERGY PREDICTED BY IDOCK:   11.98 KCAL/MOL
REMARK 924 INTRA-LIGAND FREE ENERGY PREDICTED BY IDOCK:   -0.43 KCAL/MOL
REMARK 927      BINDING AFFINITY PREDICTED BY RF-SCORE:    0.00 PKD
ROOT
HETATM    1  C   UNL     1     -11.779  10.766  66.968  1.00  0.00     0.665 C  
HETATM    2  C   UNL     1     -10.645  11.596  67.588  1.00  0.00    -0.237 C  
HETATM    3  C   UNL     1      -9.690  10.629  68.358  1.00  0.00    -0.172 C  
HETATM    4  C   UNL     1     -11.067  12.841  68.517  1.00  0.00    -0.300 C  
HETATM    5  C   UNL     1     -12.528  16.628  66.665  1.00  0.00     3.743 C  
HETATM    6  C   UNL     1      -9.800  13.625  68.848  1.00  0.00     0.019 C  
HETATM    7  C   UNL     1      -9.544  14.440  67.593  1.00  0.00    -0.214 C  
HETATM    8  C   UNL     1     -12.485  15.142  68.796  1.00  0.00     0.186 C  
HETATM    9  C   UNL     1     -11.967  13.986  67.871  1.00  0.00    -0.387 C  
HETATM   10  C   UNL     1     -10.922  14.675  66.881  1.00  0.00    -0.324 C  
HETATM   11  C   UNL     1     -13.273  13.346  67.345  1.00  0.00     3.521 C  
HETATM   12  C   UNL     1     -11.100  16.185  66.628  1.00  0.00     0.052 C  
HETATM   13  C   UNL     1     -13.222  16.239  67.968  1.00  0.00     4.439 C  
HETATM   14  C   UNL     1     -10.049  17.023  66.480  1.00  0.00    -0.318 C  
ENDROOT
BRANCH   3  15
HETATM   15  C   UNL     1      -9.281   9.338  67.633  1.00  0.00    -0.139 C  
BRANCH  15  16
HETATM   16  C   UNL     1     -10.201   8.148  67.934  1.00  0.00    -0.274 C  
HETATM   17  O   UNL     1     -10.568   6.050  69.037  1.00  0.00    -0.227 OA 
HETATM   18  C   UNL     1      -9.297   7.630  70.263  1.00  0.00    -0.157 C  
HETATM   19  C   UNL     1      -8.343   6.449  68.257  1.00  0.00    -0.116 C  
HETATM   20  C   UNL     1      -9.592   7.082  68.866  1.00  0.00    -0.140 C  
HETATM   21  H   UNL     1     -10.192   5.393  69.611  1.00  0.00     0.000 HD 
ENDBRANCH  15  16
ENDBRANCH   3  15
BRANCH  14  22
HETATM   22  C   UNL     1     -10.015  18.443  66.793  1.00  0.00    -0.374 C  
HETATM   23  C   UNL     1      -8.837  20.579  67.365  1.00  0.00    -0.393 C  
HETATM   24  C   UNL     1      -7.515  20.685  68.154  1.00  0.00     0.003 C  
HETATM   25  C   UNL     1      -8.945  19.253  66.629  1.00  0.00    -0.369 C  
HETATM   26  O   UNL     1      -7.508  19.800  69.278  1.00  0.00    -0.316 OA 
HETATM   27  C   UNL     1      -6.301  20.401  67.272  1.00  0.00    -0.261 C  
HETATM   28  H   UNL     1      -6.694  19.866  69.764  1.00  0.00     0.000 HD 
HETATM   29  C   UNL     1      -6.429  19.058  66.549  1.00  0.00    -0.190 C  
HETATM   30  C   UNL     1      -7.766  18.938  65.825  1.00  0.00    -0.042 C  
HETATM   31  O   UNL     1      -5.334  18.921  65.642  1.00  0.00    -0.142 OA 
HETATM   32  C   UNL     1      -7.881  18.641  64.511  1.00  0.00     4.447 C  
HETATM   33  H   UNL     1      -5.413  18.087  65.193  1.00  0.00     0.000 HD 
ENDBRANCH  14  22
TORSDOF 3
ENDMDL
MODEL      134
REMARK 921   NORMALIZED FREE ENERGY PREDICTED BY IDOCK:   12.09 KCAL/MOL
REMARK 922        TOTAL FREE ENERGY PREDICTED BY IDOCK:   13.25 KCAL/MOL
REMARK 923 INTER-LIGAND FREE ENERGY PREDICTED BY IDOCK:   13.61 KCAL/MOL
REMARK 924 INTRA-LIGAND FREE ENERGY PREDICTED BY IDOCK:   -0.36 KCAL/MOL
REMARK 927      BINDING AFFINITY PREDICTED BY RF-SCORE:    0.00 PKD
ROOT
HETATM    1  C   UNL     1      -9.648  16.206  66.329  1.00  0.00    -0.334 C  
HETATM    2  C   UNL     1      -8.429  15.298  66.106  1.00  0.00     0.231 C  
HETATM    3  C   UNL     1      -7.162  16.199  65.954  1.00  0.00     1.773 C  
HETATM    4  C   UNL     1      -8.516  14.229  64.906  1.00  0.00     5.494 C  
HETATM    5  C   UNL     1     -10.925  10.504  65.391  1.00  0.00     0.267 C  
HETATM    6  C   UNL     1      -7.296  13.316  65.006  1.00  0.00     9.526 C  
HETATM    7  C   UNL     1      -7.663  12.346  66.113  1.00  0.00     1.049 C  
HETATM    8  C   UNL     1      -9.863  12.188  63.721  1.00  0.00    -0.259 C  
HETATM    9  C   UNL     1      -9.694  13.156  64.943  1.00  0.00     0.091 C  
HETATM   10  C   UNL     1      -9.227  12.229  66.155  1.00  0.00    -0.132 C  
HETATM   11  C   UNL     1     -11.044  13.912  64.980  1.00  0.00    -0.353 C  
HETATM   12  C   UNL     1      -9.617  10.740  66.076  1.00  0.00    -0.244 C  
HETATM   13  C   UNL     1     -10.967  11.122  63.994  1.00  0.00    -0.269 C  
HETATM   14  C   UNL     1      -8.800   9.754  66.510  1.00  0.00    -0.154 C  
ENDROOT
BRANCH   3  15
HETATM   15  C   UNL     1      -6.997  17.338  66.973  1.00  0.00    -0.223 C  
BRANCH  15  16
HETATM   16  C   UNL     1      -7.773  18.609  66.603  1.00  0.00    -0.265 C  
HETATM   17  O   UNL     1      -8.177  20.949  66.934  1.00  0.00    -0.565 OA 
HETATM   18  C   UNL     1      -5.912  20.277  67.116  1.00  0.00    -0.207 C  
HETATM   19  C   UNL     1      -7.601  19.700  68.889  1.00  0.00    -0.344 C  
HETATM   20  C   UNL     1      -7.360  19.867  67.390  1.00  0.00    -0.256 C  
HETATM   21  H   UNL     1      -7.922  21.726  67.419  1.00  0.00     0.000 HD 
ENDBRANCH  15  16
ENDBRANCH   3  15
BRANCH  14  22
HETATM   22  C   UNL     1      -8.751   8.384  66.023  1.00  0.00    -0.183 C  
HETATM   23  C   UNL     1      -8.284   5.936  66.279  1.00  0.00    -0.114 C  
HETATM   24  C   UNL     1      -7.208   5.324  67.200  1.00  0.00    -0.078 C  
HETATM   25  C   UNL     1      -8.771   7.278  66.801  1.00  0.00    -0.132 C  
HETATM   26  O   UNL     1      -5.981   6.055  67.123  1.00  0.00    -0.017 OA 
HETATM   27  C   UNL     1      -7.673   5.257  68.653  1.00  0.00    -0.083 C  
HETATM   28  H   UNL     1      -5.318   5.678  67.690  1.00  0.00     0.000 HD 
HETATM   29  C   UNL     1      -8.149   6.621  69.158  1.00  0.00    -0.116 C  
HETATM   30  C   UNL     1      -9.166   7.245  68.208  1.00  0.00    -0.133 C  
HETATM   31  O   UNL     1      -8.695   6.458  70.468  1.00  0.00    -0.140 OA 
HETATM   32  C   UNL     1     -10.387   7.675  68.596  1.00  0.00    -0.220 C  
HETATM   33  H   UNL     1      -8.991   7.305  70.782  1.00  0.00     0.000 HD 
ENDBRANCH  14  22
TORSDOF 3
ENDMDL
MODEL      135
REMARK 921   NORMALIZED FREE ENERGY PREDICTED BY IDOCK:   14.29 KCAL/MOL
REMARK 922        TOTAL FREE ENERGY PREDICTED BY IDOCK:   15.84 KCAL/MOL
REMARK 923 INTER-LIGAND FREE ENERGY PREDICTED BY IDOCK:    4.05 KCAL/MOL
REMARK 924 INTRA-LIGAND FREE ENERGY PREDICTED BY IDOCK:   11.79 KCAL/MOL
REMARK 927      BINDING AFFINITY PREDICTED BY RF-SCORE:    0.00 PKD
ROOT
HETATM    1  C   UNL     1     -10.060  10.978  65.493  1.00  0.00    -0.316 C  
HETATM    2  C   UNL     1     -10.557  12.344  64.997  1.00  0.00    -0.330 C  
HETATM    3  C   UNL     1     -10.933  12.214  63.486  1.00  0.00    -0.521 C  
HETATM    4  C   UNL     1      -9.594  13.611  65.238  1.00  0.00     0.122 C  
HETATM    5  C   UNL     1      -9.275  15.446  69.293  1.00  0.00    -0.259 C  
HETATM    6  C   UNL     1     -10.372  14.867  64.856  1.00  0.00    -0.347 C  
HETATM    7  C   UNL     1     -11.267  15.115  66.056  1.00  0.00    -0.275 C  
HETATM    8  C   UNL     1      -8.146  15.117  66.976  1.00  0.00    -0.240 C  
HETATM    9  C   UNL     1      -9.179  13.961  66.737  1.00  0.00    -0.267 C  
HETATM   10  C   UNL     1     -10.562  14.505  67.318  1.00  0.00    -0.280 C  
HETATM   11  C   UNL     1      -8.475  12.729  67.351  1.00  0.00    -0.191 C  
HETATM   12  C   UNL     1     -10.474  15.588  68.411  1.00  0.00    -0.240 C  
HETATM   13  C   UNL     1      -7.972  15.411  68.497  1.00  0.00    -0.140 C  
HETATM   14  C   UNL     1     -11.357  16.610  68.490  1.00  0.00    -0.152 C  
ENDROOT
BRANCH   3  15
HETATM   15  C   UNL     1     -11.769  10.989  63.084  1.00  0.00     0.990 C  
BRANCH  15  16
HETATM   16  C   UNL     1     -11.236   9.669  63.657  1.00  0.00     6.643 C  
HETATM   17  O   UNL     1      -9.377   8.316  64.335  1.00  0.00     0.252 OA 
HETATM   18  C   UNL     1      -9.164  10.630  64.793  1.00  0.00    -0.255 C  
HETATM   19  C   UNL     1      -9.005   9.736  62.448  1.00  0.00    -0.288 C  
HETATM   20  C   UNL     1      -9.704   9.601  63.799  1.00  0.00     0.565 C  
HETATM   21  H   UNL     1      -8.431   8.274  64.422  1.00  0.00     0.000 HD 
ENDBRANCH  15  16
ENDBRANCH   3  15
BRANCH  14  22
HETATM   22  C   UNL     1     -11.113  17.933  69.043  1.00  0.00     0.958 C  
HETATM   23  C   UNL     1      -9.774  20.033  69.308  1.00  0.00    -0.091 C  
HETATM   24  C   UNL     1      -8.239  20.134  69.192  1.00  0.00     0.385 C  
HETATM   25  C   UNL     1     -10.324  18.878  68.486  1.00  0.00    -0.312 C  
HETATM   26  O   UNL     1      -7.595  19.048  69.867  1.00  0.00     0.310 OA 
HETATM   27  C   UNL     1      -7.779  20.175  67.736  1.00  0.00    -0.321 C  
HETATM   28  H   UNL     1      -6.649  19.111  69.796  1.00  0.00     0.000 HD 
HETATM   29  C   UNL     1      -8.338  18.998  66.933  1.00  0.00    -0.277 C  
HETATM   30  C   UNL     1      -9.848  18.870  67.105  1.00  0.00    -0.368 C  
HETATM   31  O   UNL     1      -7.985  19.174  65.560  1.00  0.00    -0.372 OA 
HETATM   32  C   UNL     1     -10.718  18.830  66.071  1.00  0.00    -0.337 C  
HETATM   33  H   UNL     1      -8.332  18.444  65.061  1.00  0.00     0.000 HD 
ENDBRANCH  14  22
TORSDOF 3
ENDMDL
MODEL      136
REMARK 921   NORMALIZED FREE ENERGY PREDICTED BY IDOCK:   62.93 KCAL/MOL
REMARK 922        TOTAL FREE ENERGY PREDICTED BY IDOCK:   73.00 KCAL/MOL
REMARK 923 INTER-LIGAND FREE ENERGY PREDICTED BY IDOCK:   70.00 KCAL/MOL
REMARK 924 INTRA-LIGAND FREE ENERGY PREDICTED BY IDOCK:    3.01 KCAL/MOL
REMARK 927      BINDING AFFINITY PREDICTED BY RF-SCORE:    0.00 PKD
ROOT
HETATM    1  C   UNL     1      -9.592  11.017  64.301  1.00  0.00    -0.303 C  
HETATM    2  C   UNL     1     -10.794  11.408  65.173  1.00  0.00    -0.302 C  
HETATM    3  C   UNL     1     -11.856  10.265  65.091  1.00  0.00     3.909 C  
HETATM    4  C   UNL     1     -11.474  12.840  64.892  1.00  0.00    -0.355 C  
HETATM    5  C   UNL     1      -9.502  16.578  66.322  1.00  0.00    -0.339 C  
HETATM    6  C   UNL     1     -12.498  13.094  65.995  1.00  0.00    -0.330 C  
HETATM    7  C   UNL     1     -11.653  13.545  67.173  1.00  0.00    -0.393 C  
HETATM    8  C   UNL     1     -11.179  15.529  64.638  1.00  0.00    -0.381 C  
HETATM    9  C   UNL     1     -10.562  14.140  65.026  1.00  0.00    -0.436 C  
HETATM   10  C   UNL     1     -10.346  14.201  66.606  1.00  0.00    -0.277 C  
HETATM   11  C   UNL     1      -9.367  14.004  64.053  1.00  0.00     4.217 C  
HETATM   12  C   UNL     1     -10.183  15.602  67.227  1.00  0.00    -0.266 C  
HETATM   13  C   UNL     1     -10.197  16.694  64.967  1.00  0.00     0.350 C  
HETATM   14  C   UNL     1     -10.694  15.921  68.439  1.00  0.00    -0.281 C  
ENDROOT
BRANCH   3  15
HETATM   15  C   UNL     1     -11.337   8.826  65.238  1.00  0.00     7.190 C  
BRANCH  15  16
HETATM   16  C   UNL     1     -10.888   8.479  66.663  1.00  0.00     0.294 C  
HETATM   17  O   UNL     1      -9.385   8.834  68.498  1.00  0.00    -0.141 OA 
HETATM   18  C   UNL     1      -9.967  10.778  67.275  1.00  0.00    -0.219 C  
HETATM   19  C   UNL     1      -8.435   9.031  66.312  1.00  0.00    -0.132 C  
HETATM   20  C   UNL     1      -9.674   9.281  67.170  1.00  0.00    -0.172 C  
HETATM   21  H   UNL     1      -8.636   9.329  68.810  1.00  0.00     0.000 HD 
ENDBRANCH  15  16
ENDBRANCH   3  15
BRANCH  14  22
HETATM   22  C   UNL     1     -11.112  17.239  68.890  1.00  0.00     0.177 C  
HETATM   23  C   UNL     1     -11.990  18.840  70.605  1.00  0.00    10.489 C  
HETATM   24  C   UNL     1     -12.951  18.477  71.756  1.00  0.00    18.115 C  
HETATM   25  C   UNL     1     -11.150  17.646  70.179  1.00  0.00     1.626 C  
HETATM   26  O   UNL     1     -13.998  17.613  71.306  1.00  0.00    11.690 OA 
HETATM   27  C   UNL     1     -12.217  17.824  72.926  1.00  0.00     3.156 C  
HETATM   28  H   UNL     1     -14.590  17.390  72.015  1.00  0.00     0.000 HD 
HETATM   29  C   UNL     1     -11.388  16.621  72.473  1.00  0.00     0.577 C  
HETATM   30  C   UNL     1     -10.487  16.975  71.294  1.00  0.00     2.278 C  
HETATM   31  O   UNL     1     -10.625  16.147  73.584  1.00  0.00     3.631 OA 
HETATM   32  C   UNL     1      -9.151  16.767  71.284  1.00  0.00     6.627 C  
HETATM   33  H   UNL     1     -10.110  15.400  73.304  1.00  0.00     0.000 HD 
ENDBRANCH  14  22
TORSDOF 3
ENDMDL
MODEL      137
REMARK 921   NORMALIZED FREE ENERGY PREDICTED BY IDOCK:   88.81 KCAL/MOL
REMARK 922        TOTAL FREE ENERGY PREDICTED BY IDOCK:  103.42 KCAL/MOL
REMARK 923 INTER-LIGAND FREE ENERGY PREDICTED BY IDOCK:  103.69 KCAL/MOL
REMARK 924 INTRA-LIGAND FREE ENERGY PREDICTED BY IDOCK:   -0.27 KCAL/MOL
REMARK 927      BINDING AFFINITY PREDICTED BY RF-SCORE:    0.00 PKD
ROOT
HETATM    1  C   UNL     1      -9.599  11.029  64.324  1.00  0.00    -0.303 C  
HETATM    2  C   UNL     1     -10.572  11.674  65.321  1.00  0.00    -0.333 C  
HETATM    3  C   UNL     1     -11.961  10.971  65.181  1.00  0.00     1.441 C  
HETATM    4  C   UNL     1     -10.734  13.274  65.264  1.00  0.00    -0.322 C  
HETATM    5  C   UNL     1      -7.573  15.911  66.985  1.00  0.00    -0.264 C  
HETATM    6  C   UNL     1     -11.580  13.700  66.461  1.00  0.00    -0.392 C  
HETATM    7  C   UNL     1     -10.600  13.679  67.620  1.00  0.00    -0.245 C  
HETATM    8  C   UNL     1      -9.553  15.721  65.313  1.00  0.00     0.098 C  
HETATM    9  C   UNL     1      -9.432  14.166  65.486  1.00  0.00     0.105 C  
HETATM   10  C   UNL     1      -9.164  13.935  67.042  1.00  0.00    -0.257 C  
HETATM   11  C   UNL     1      -8.382  13.775  64.420  1.00  0.00     8.075 C  
HETATM   12  C   UNL     1      -8.519  15.103  67.813  1.00  0.00    -0.156 C  
HETATM   13  C   UNL     1      -8.225  16.436  65.707  1.00  0.00     0.510 C  
HETATM   14  C   UNL     1      -8.858  15.403  69.088  1.00  0.00    -0.249 C  
ENDROOT
BRANCH   3  15
HETATM   15  C   UNL     1     -11.956   9.436  65.116  1.00  0.00     9.535 C  
BRANCH  15  16
HETATM   16  C   UNL     1     -12.532   8.768  66.371  1.00  0.00    11.697 C  
HETATM   17  O   UNL     1     -12.397   8.337  68.726  1.00  0.00     2.480 OA 
HETATM   18  C   UNL     1     -11.730  10.509  68.054  1.00  0.00     0.080 C  
HETATM   19  C   UNL     1     -10.311   8.490  67.568  1.00  0.00    -0.334 C  
HETATM   20  C   UNL     1     -11.736   9.030  67.664  1.00  0.00     2.483 C  
HETATM   21  H   UNL     1     -11.906   8.499  69.523  1.00  0.00     0.000 HD 
ENDBRANCH  15  16
ENDBRANCH   3  15
BRANCH  14  22
HETATM   22  C   UNL     1      -8.791  16.710  69.724  1.00  0.00     0.799 C  
HETATM   23  C   UNL     1      -8.486  18.224  71.696  1.00  0.00    10.688 C  
HETATM   24  C   UNL     1      -8.841  17.872  73.155  1.00  0.00    14.511 C  
HETATM   25  C   UNL     1      -8.154  16.982  70.884  1.00  0.00     5.590 C  
HETATM   26  O   UNL     1     -10.104  17.204  73.236  1.00  0.00     6.820 OA 
HETATM   27  C   UNL     1      -7.765  17.010  73.811  1.00  0.00    15.338 C  
HETATM   28  H   UNL     1     -10.323  16.988  74.135  1.00  0.00     0.000 HD 
HETATM   29  C   UNL     1      -7.455  15.762  72.981  1.00  0.00     9.920 C  
HETATM   30  C   UNL     1      -7.167  16.116  71.525  1.00  0.00     4.745 C  
HETATM   31  O   UNL     1      -6.351  15.079  73.576  1.00  0.00     1.209 OA 
HETATM   32  C   UNL     1      -6.047  15.737  70.871  1.00  0.00     0.427 C  
HETATM   33  H   UNL     1      -6.158  14.304  73.061  1.00  0.00     0.000 HD 
ENDBRANCH  14  22
TORSDOF 3
ENDMDL
