MODEL        1
REMARK 921   NORMALIZED FREE ENERGY PREDICTED BY IDOCK:   -6.67 KCAL/MOL
REMARK 922        TOTAL FREE ENERGY PREDICTED BY IDOCK:  -16.74 KCAL/MOL
REMARK 923 INTER-LIGAND FREE ENERGY PREDICTED BY IDOCK:  -13.30 KCAL/MOL
REMARK 924 INTRA-LIGAND FREE ENERGY PREDICTED BY IDOCK:   -3.44 KCAL/MOL
REMARK 927      BINDING AFFINITY PREDICTED BY RF-SCORE:    0.00 PKD
ROOT
HETATM    1  O   UNL     1     -14.141   8.843  73.362  1.00  0.00    -1.256 OA 
HETATM    2  C   UNL     1     -13.990   8.704  71.975  1.00  0.00    -0.446 C  
HETATM    3  H   UNL     1     -14.577   8.075  73.714  1.00  0.00     0.000 HD 
ENDROOT
BRANCH   2   4
HETATM    4  C   UNL     1     -13.285   9.946  71.404  1.00  0.00    -0.400 C  
HETATM    5  O   UNL     1     -13.455  11.025  72.290  1.00  0.00    -0.603 OA 
HETATM    6  H   UNL     1     -13.020  11.792  71.937  1.00  0.00     0.000 HD 
BRANCH   4   7
HETATM    7  C   UNL     1     -11.770   9.692  71.185  1.00  0.00    -0.372 C  
HETATM    8  H   UNL     1     -10.616   8.161  70.861  1.00  0.00     0.000 HD 
HETATM    9  O   UNL     1     -11.543   8.317  70.994  1.00  0.00    -0.274 OA 
BRANCH   7  10
HETATM   10  C   UNL     1     -11.223  10.469  69.959  1.00  0.00    -0.315 C  
HETATM   11  H   UNL     1     -11.979  11.405  68.448  1.00  0.00     0.000 HD 
HETATM   12  O   UNL     1     -12.315  10.929  69.199  1.00  0.00    -0.435 OA 
BRANCH  10  13
HETATM   13  C   UNL     1     -10.300   9.614  69.046  1.00  0.00    -0.205 C  
HETATM   14  H   UNL     1     -10.220   9.119  67.170  1.00  0.00     0.000 HD 
HETATM   15  O   UNL     1     -10.784   9.641  67.728  1.00  0.00    -0.258 OA 
BRANCH  13  16
HETATM   16  C   UNL     1      -8.868  10.093  69.024  1.00  0.00    -0.166 C  
HETATM   17  O   UNL     1      -8.128   9.830  69.960  1.00  0.00    -0.161 OA 
BRANCH  16  18
HETATM   18  O   UNL     1      -8.391  10.818  67.993  1.00  0.00    -0.115 OA 
BRANCH  18  19
HETATM   19 CA   UNL     1      -9.951  11.868  66.469  1.00  0.00    -0.188 Ca 
BRANCH  19  20
HETATM   20  O   UNL     1     -11.510  12.918  64.946  1.00  0.00    -0.299 OA 
BRANCH  20  21
HETATM   21  C   UNL     1     -12.287  13.767  65.641  1.00  0.00    -0.482 C  
HETATM   22  O   UNL     1     -13.483  13.773  65.400  1.00  0.00    -0.620 OA 
BRANCH  21  23
HETATM   23  C   UNL     1     -11.701  14.809  66.566  1.00  0.00    -0.271 C  
HETATM   24  H   UNL     1     -10.065  15.830  66.657  1.00  0.00     0.000 HD 
HETATM   25  O   UNL     1     -10.433  15.175  66.076  1.00  0.00    -0.290 OA 
BRANCH  23  26
HETATM   26  C   UNL     1     -11.560  14.356  68.051  1.00  0.00    -0.327 C  
HETATM   27  H   UNL     1     -10.429  13.149  69.062  1.00  0.00     0.000 HD 
HETATM   28  O   UNL     1     -10.514  13.425  68.157  1.00  0.00    -0.231 OA 
BRANCH  26  29
HETATM   29  C   UNL     1     -11.378  15.478  69.131  1.00  0.00    -0.328 C  
BRANCH  29  30
HETATM   30  O   UNL     1     -10.007  15.458  69.503  1.00  0.00    -0.239 OA 
BRANCH  30  31
HETATM   31  C   UNL     1      -9.244  16.576  69.096  1.00  0.00    -0.197 C  
HETATM   32  O   UNL     1     -10.046  17.464  68.336  1.00  0.00    -0.304 OA 
HETATM   33  C   UNL     1      -9.295  18.600  67.935  1.00  0.00    -0.298 C  
HETATM   34  H   UNL     1      -6.564  14.804  68.419  1.00  0.00     0.000 HD 
HETATM   35  C   UNL     1      -8.181  18.179  66.942  1.00  0.00    -0.243 C  
HETATM   36  O   UNL     1      -8.739  17.564  65.806  1.00  0.00    -0.514 OA 
HETATM   37  C   UNL     1      -7.240  17.189  67.661  1.00  0.00    -0.157 C  
HETATM   38  O   UNL     1      -7.276  15.137  68.952  1.00  0.00    -0.116 OA 
HETATM   39  H   UNL     1      -8.056  17.306  65.198  1.00  0.00     0.000 HD 
HETATM   40  O   UNL     1      -6.266  16.672  66.789  1.00  0.00    -0.221 OA 
HETATM   41  C   UNL     1      -8.082  16.033  68.226  1.00  0.00    -0.150 C  
HETATM   42  H   UNL     1      -5.687  16.063  67.232  1.00  0.00     0.000 HD 
BRANCH  33  43
HETATM   43  C   UNL     1     -10.268  19.617  67.317  1.00  0.00    -0.433 C  
HETATM   44  O   UNL     1      -9.647  20.857  67.113  1.00  0.00    -0.666 OA 
HETATM   45  H   UNL     1     -10.248  21.485  66.731  1.00  0.00     0.000 HD 
ENDBRANCH  33  43
ENDBRANCH  30  31
ENDBRANCH  29  30
BRANCH  29  46
HETATM   46  C   UNL     1     -12.328  15.392  70.377  1.00  0.00    -0.402 C  
HETATM   47  O   UNL     1     -11.981  16.355  71.344  1.00  0.00    -0.638 OA 
HETATM   48  H   UNL     1     -12.556  16.303  72.098  1.00  0.00     0.000 HD 
BRANCH  46  49
HETATM   49  C   UNL     1     -12.480  13.979  70.988  1.00  0.00    -0.371 C  
HETATM   50  H   UNL     1     -12.818  13.188  72.743  1.00  0.00     0.000 HD 
HETATM   51  O   UNL     1     -12.724  14.056  72.368  1.00  0.00    -0.309 OA 
ENDBRANCH  46  49
ENDBRANCH  29  46
ENDBRANCH  26  29
ENDBRANCH  23  26
ENDBRANCH  21  23
ENDBRANCH  20  21
ENDBRANCH  19  20
ENDBRANCH  18  19
ENDBRANCH  16  18
ENDBRANCH  13  16
ENDBRANCH  10  13
ENDBRANCH   7  10
ENDBRANCH   4   7
ENDBRANCH   2   4
TORSDOF 17
ENDMDL
MODEL        2
REMARK 921   NORMALIZED FREE ENERGY PREDICTED BY IDOCK:   -6.47 KCAL/MOL
REMARK 922        TOTAL FREE ENERGY PREDICTED BY IDOCK:  -16.35 KCAL/MOL
REMARK 923 INTER-LIGAND FREE ENERGY PREDICTED BY IDOCK:  -12.72 KCAL/MOL
REMARK 924 INTRA-LIGAND FREE ENERGY PREDICTED BY IDOCK:   -3.63 KCAL/MOL
REMARK 927      BINDING AFFINITY PREDICTED BY RF-SCORE:    0.00 PKD
ROOT
HETATM    1  O   UNL     1     -11.380  10.979  63.100  1.00  0.00    -0.731 OA 
HETATM    2  C   UNL     1     -12.461  11.850  63.298  1.00  0.00    -0.384 C  
HETATM    3  H   UNL     1     -11.693  10.157  62.743  1.00  0.00     0.000 HD 
ENDROOT
BRANCH   2   4
HETATM    4  C   UNL     1     -11.953  13.182  63.876  1.00  0.00    -0.488 C  
HETATM    5  O   UNL     1     -12.535  14.247  63.168  1.00  0.00    -1.102 OA 
HETATM    6  H   UNL     1     -12.222  15.070  63.525  1.00  0.00     0.000 HD 
BRANCH   4   7
HETATM    7  C   UNL     1     -12.296  13.315  65.384  1.00  0.00    -0.479 C  
HETATM    8  H   UNL     1     -12.231  12.185  66.964  1.00  0.00     0.000 HD 
HETATM    9  O   UNL     1     -12.021  12.102  66.041  1.00  0.00    -0.578 OA 
BRANCH   7  10
HETATM   10  C   UNL     1     -11.487  14.452  66.063  1.00  0.00    -0.349 C  
HETATM   11  H   UNL     1      -9.924  15.503  65.634  1.00  0.00     0.000 HD 
HETATM   12  O   UNL     1     -10.419  14.807  65.218  1.00  0.00    -0.346 OA 
BRANCH  10  13
HETATM   13  C   UNL     1     -10.918  14.060  67.455  1.00  0.00    -0.277 C  
HETATM   14  H   UNL     1      -9.246  13.375  68.166  1.00  0.00     0.000 HD 
HETATM   15  O   UNL     1      -9.594  13.614  67.315  1.00  0.00    -0.224 OA 
BRANCH  13  16
HETATM   16  C   UNL     1     -10.921  15.199  68.447  1.00  0.00    -0.271 C  
HETATM   17  O   UNL     1     -11.143  16.337  68.062  1.00  0.00    -0.340 OA 
BRANCH  16  18
HETATM   18  O   UNL     1     -10.672  14.985  69.754  1.00  0.00    -0.256 OA 
BRANCH  18  19
HETATM   19 CA   UNL     1     -11.720  13.106  70.862  1.00  0.00    -0.348 Ca 
BRANCH  19  20
HETATM   20  O   UNL     1     -12.769  11.227  71.969  1.00  0.00    -0.269 OA 
BRANCH  20  21
HETATM   21  C   UNL     1     -12.573  10.124  71.225  1.00  0.00    -0.404 C  
HETATM   22  O   UNL     1     -12.077  10.262  70.120  1.00  0.00    -0.254 OA 
BRANCH  21  23
HETATM   23  C   UNL     1     -13.102   8.773  71.650  1.00  0.00    -0.352 C  
HETATM   24  H   UNL     1     -14.519   8.125  72.791  1.00  0.00     0.000 HD 
HETATM   25  O   UNL     1     -14.186   8.974  72.524  1.00  0.00    -0.537 OA 
BRANCH  23  26
HETATM   26  C   UNL     1     -12.053   7.852  72.345  1.00  0.00    -0.286 C  
HETATM   27  H   UNL     1     -11.763   5.947  72.560  1.00  0.00     0.000 HD 
HETATM   28  O   UNL     1     -12.403   6.508  72.137  1.00  0.00    -0.297 OA 
BRANCH  26  29
HETATM   29  C   UNL     1     -10.546   8.068  71.970  1.00  0.00    -0.248 C  
BRANCH  29  30
HETATM   30  O   UNL     1     -10.170   6.959  71.166  1.00  0.00    -0.196 OA 
BRANCH  30  31
HETATM   31  C   UNL     1      -9.679   7.271  69.878  1.00  0.00    -0.174 C  
HETATM   32  O   UNL     1      -9.514   8.673  69.745  1.00  0.00    -0.163 OA 
HETATM   33  C   UNL     1      -9.007   8.999  68.460  1.00  0.00    -0.133 C  
HETATM   34  H   UNL     1     -11.572   5.061  68.358  1.00  0.00     0.000 HD 
HETATM   35  C   UNL     1     -10.054   8.653  67.370  1.00  0.00    -0.229 C  
HETATM   36  O   UNL     1     -11.250   9.360  67.592  1.00  0.00    -0.464 OA 
HETATM   37  C   UNL     1     -10.328   7.135  67.426  1.00  0.00    -0.254 C  
HETATM   38  O   UNL     1     -10.927   5.373  68.981  1.00  0.00    -0.107 OA 
HETATM   39  H   UNL     1     -11.891   9.147  66.924  1.00  0.00     0.000 HD 
HETATM   40  O   UNL     1     -11.354   6.760  66.541  1.00  0.00    -0.501 OA 
HETATM   41  C   UNL     1     -10.733   6.761  68.862  1.00  0.00    -0.240 C  
HETATM   42  H   UNL     1     -11.522   5.825  66.576  1.00  0.00     0.000 HD 
BRANCH  33  43
HETATM   43  C   UNL     1      -8.642  10.492  68.460  1.00  0.00    -0.135 C  
HETATM   44  O   UNL     1      -9.574  11.244  69.190  1.00  0.00    -0.394 OA 
HETATM   45  H   UNL     1      -9.348  12.166  69.190  1.00  0.00     0.000 HD 
ENDBRANCH  33  43
ENDBRANCH  30  31
ENDBRANCH  29  30
BRANCH  29  46
HETATM   46  C   UNL     1      -9.564   8.284  73.174  1.00  0.00    -0.170 C  
HETATM   47  O   UNL     1      -8.351   8.856  72.740  1.00  0.00    -0.385 OA 
HETATM   48  H   UNL     1      -7.757   8.987  73.468  1.00  0.00     0.000 HD 
BRANCH  46  49
HETATM   49  C   UNL     1      -9.338   7.042  74.067  1.00  0.00    -0.238 C  
HETATM   50  H   UNL     1      -7.848   5.902  74.613  1.00  0.00     0.000 HD 
HETATM   51  O   UNL     1      -7.986   6.666  74.065  1.00  0.00    -0.112 OA 
ENDBRANCH  46  49
ENDBRANCH  29  46
ENDBRANCH  26  29
ENDBRANCH  23  26
ENDBRANCH  21  23
ENDBRANCH  20  21
ENDBRANCH  19  20
ENDBRANCH  18  19
ENDBRANCH  16  18
ENDBRANCH  13  16
ENDBRANCH  10  13
ENDBRANCH   7  10
ENDBRANCH   4   7
ENDBRANCH   2   4
TORSDOF 17
ENDMDL
MODEL        3
REMARK 921   NORMALIZED FREE ENERGY PREDICTED BY IDOCK:   -6.33 KCAL/MOL
REMARK 922        TOTAL FREE ENERGY PREDICTED BY IDOCK:  -16.07 KCAL/MOL
REMARK 923 INTER-LIGAND FREE ENERGY PREDICTED BY IDOCK:  -13.15 KCAL/MOL
REMARK 924 INTRA-LIGAND FREE ENERGY PREDICTED BY IDOCK:   -2.91 KCAL/MOL
REMARK 927      BINDING AFFINITY PREDICTED BY RF-SCORE:    0.00 PKD
ROOT
HETATM    1  O   UNL     1     -12.168   6.829  69.907  1.00  0.00    -0.634 OA 
HETATM    2  C   UNL     1     -11.596   6.520  71.148  1.00  0.00    -0.335 C  
HETATM    3  H   UNL     1     -11.963   6.145  69.280  1.00  0.00     0.000 HD 
ENDROOT
BRANCH   2   4
HETATM    4  C   UNL     1     -11.929   7.628  72.162  1.00  0.00    -0.302 C  
HETATM    5  O   UNL     1     -10.741   8.264  72.562  1.00  0.00    -0.322 OA 
HETATM    6  H   UNL     1     -10.946   8.948  73.188  1.00  0.00     0.000 HD 
BRANCH   4   7
HETATM    7  C   UNL     1     -12.901   8.677  71.561  1.00  0.00    -0.319 C  
HETATM    8  H   UNL     1     -14.650   9.409  71.991  1.00  0.00     0.000 HD 
HETATM    9  O   UNL     1     -14.055   8.767  72.360  1.00  0.00    -0.447 OA 
BRANCH   7  10
HETATM   10  C   UNL     1     -12.247  10.081  71.459  1.00  0.00    -0.405 C  
HETATM   11  H   UNL     1     -12.748  11.891  71.913  1.00  0.00     0.000 HD 
HETATM   12  O   UNL     1     -13.148  11.031  71.975  1.00  0.00    -0.496 OA 
BRANCH  10  13
HETATM   13  C   UNL     1     -11.869  10.484  70.007  1.00  0.00    -0.308 C  
HETATM   14  H   UNL     1     -11.411  12.115  69.057  1.00  0.00     0.000 HD 
HETATM   15  O   UNL     1     -11.642  11.869  69.945  1.00  0.00    -0.296 OA 
BRANCH  13  16
HETATM   16  C   UNL     1     -10.631   9.787  69.494  1.00  0.00    -0.233 C  
HETATM   17  O   UNL     1      -9.580   9.892  70.106  1.00  0.00    -0.245 OA 
BRANCH  16  18
HETATM   18  O   UNL     1     -10.662   9.057  68.361  1.00  0.00    -0.186 OA 
BRANCH  18  19
HETATM   19 CA   UNL     1     -10.857  10.192  66.232  1.00  0.00    -0.235 Ca 
BRANCH  19  20
HETATM   20  O   UNL     1     -11.053  11.327  64.104  1.00  0.00    -0.354 OA 
BRANCH  20  21
HETATM   21  C   UNL     1     -12.026  12.250  64.195  1.00  0.00    -0.432 C  
HETATM   22  O   UNL     1     -12.830  12.323  63.281  1.00  0.00    -0.719 OA 
BRANCH  21  23
HETATM   23  C   UNL     1     -12.040  13.288  65.295  1.00  0.00    -0.418 C  
HETATM   24  H   UNL     1     -13.290  14.601  65.956  1.00  0.00     0.000 HD 
HETATM   25  O   UNL     1     -13.281  13.949  65.266  1.00  0.00    -0.774 OA 
BRANCH  23  26
HETATM   26  C   UNL     1     -10.898  14.345  65.206  1.00  0.00    -0.361 C  
HETATM   27  H   UNL     1     -10.692  16.154  64.538  1.00  0.00     0.000 HD 
HETATM   28  O   UNL     1     -11.388  15.509  64.591  1.00  0.00    -0.424 OA 
BRANCH  26  29
HETATM   29  C   UNL     1     -10.162  14.723  66.538  1.00  0.00    -0.276 C  
BRANCH  29  30
HETATM   30  O   UNL     1      -8.939  15.338  66.160  1.00  0.00    -0.301 OA 
BRANCH  30  31
HETATM   31  C   UNL     1      -8.637  16.558  66.808  1.00  0.00    -0.230 C  
HETATM   32  O   UNL     1      -9.466  17.593  66.306  1.00  0.00    -0.359 OA 
HETATM   33  C   UNL     1      -9.184  18.822  66.959  1.00  0.00    -0.294 C  
HETATM   34  H   UNL     1      -5.395  16.045  66.789  1.00  0.00     0.000 HD 
HETATM   35  C   UNL     1      -7.752  19.299  66.603  1.00  0.00    -0.255 C  
HETATM   36  O   UNL     1      -7.621  19.470  65.212  1.00  0.00    -0.342 OA 
HETATM   37  C   UNL     1      -6.751  18.233  67.094  1.00  0.00    -0.188 C  
HETATM   38  O   UNL     1      -6.306  15.852  66.976  1.00  0.00    -0.309 OA 
HETATM   39  H   UNL     1      -6.744  19.762  64.995  1.00  0.00     0.000 HD 
HETATM   40  O   UNL     1      -5.434  18.540  66.706  1.00  0.00    -0.141 OA 
HETATM   41  C   UNL     1      -7.151  16.872  66.502  1.00  0.00    -0.246 C  
HETATM   42  H   UNL     1      -4.817  17.884  67.009  1.00  0.00     0.000 HD 
BRANCH  33  43
HETATM   43  C   UNL     1     -10.256  19.839  66.538  1.00  0.00    -0.492 C  
HETATM   44  O   UNL     1      -9.865  21.150  66.848  1.00  0.00    -0.523 OA 
HETATM   45  H   UNL     1     -10.527  21.778  66.587  1.00  0.00     0.000 HD 
ENDBRANCH  33  43
ENDBRANCH  30  31
ENDBRANCH  29  30
BRANCH  29  46
HETATM   46  C   UNL     1      -9.944  13.551  67.558  1.00  0.00    -0.230 C  
HETATM   47  O   UNL     1     -10.074  14.006  68.885  1.00  0.00    -0.333 OA 
HETATM   48  H   UNL     1      -9.942  13.297  69.503  1.00  0.00     0.000 HD 
BRANCH  46  49
HETATM   49  C   UNL     1      -8.650  12.731  67.345  1.00  0.00    -0.194 C  
HETATM   50  H   UNL     1      -8.004  11.331  66.144  1.00  0.00     0.000 HD 
HETATM   51  O   UNL     1      -8.798  11.835  66.275  1.00  0.00    -0.195 OA 
ENDBRANCH  46  49
ENDBRANCH  29  46
ENDBRANCH  26  29
ENDBRANCH  23  26
ENDBRANCH  21  23
ENDBRANCH  20  21
ENDBRANCH  19  20
ENDBRANCH  18  19
ENDBRANCH  16  18
ENDBRANCH  13  16
ENDBRANCH  10  13
ENDBRANCH   7  10
ENDBRANCH   4   7
ENDBRANCH   2   4
TORSDOF 17
ENDMDL
MODEL        4
REMARK 921   NORMALIZED FREE ENERGY PREDICTED BY IDOCK:   -6.31 KCAL/MOL
REMARK 922        TOTAL FREE ENERGY PREDICTED BY IDOCK:  -16.02 KCAL/MOL
REMARK 923 INTER-LIGAND FREE ENERGY PREDICTED BY IDOCK:  -13.65 KCAL/MOL
REMARK 924 INTRA-LIGAND FREE ENERGY PREDICTED BY IDOCK:   -2.37 KCAL/MOL
REMARK 927      BINDING AFFINITY PREDICTED BY RF-SCORE:    0.00 PKD
ROOT
HETATM    1  O   UNL     1     -13.597   8.840  73.256  1.00  0.00    -0.983 OA 
HETATM    2  C   UNL     1     -13.595   8.486  71.900  1.00  0.00    -0.396 C  
HETATM    3  H   UNL     1     -14.198   9.562  73.397  1.00  0.00     0.000 HD 
ENDROOT
BRANCH   2   4
HETATM    4  C   UNL     1     -12.623   7.317  71.671  1.00  0.00    -0.368 C  
HETATM    5  O   UNL     1     -12.669   6.931  70.320  1.00  0.00    -0.539 OA 
HETATM    6  H   UNL     1     -12.068   6.209  70.179  1.00  0.00     0.000 HD 
BRANCH   4   7
HETATM    7  C   UNL     1     -11.168   7.703  72.049  1.00  0.00    -0.272 C  
HETATM    8  H   UNL     1     -10.072   7.721  73.655  1.00  0.00     0.000 HD 
HETATM    9  O   UNL     1     -10.962   7.484  73.424  1.00  0.00    -0.380 OA 
BRANCH   7  10
HETATM   10  C   UNL     1     -10.123   6.885  71.245  1.00  0.00    -0.190 C  
HETATM   11  H   UNL     1      -8.404   6.080  71.603  1.00  0.00     0.000 HD 
HETATM   12  O   UNL     1      -9.044   6.581  72.096  1.00  0.00    -0.140 OA 
BRANCH  10  13
HETATM   13  C   UNL     1      -9.583   7.631  69.994  1.00  0.00    -0.164 C  
HETATM   14  H   UNL     1     -10.080   7.823  68.127  1.00  0.00     0.000 HD 
HETATM   15  O   UNL     1     -10.411   7.367  68.891  1.00  0.00    -0.204 OA 
BRANCH  13  16
HETATM   16  C   UNL     1      -9.513   9.130  70.173  1.00  0.00    -0.208 C  
HETATM   17  O   UNL     1     -10.441   9.828  69.796  1.00  0.00    -0.215 OA 
BRANCH  16  18
HETATM   18  O   UNL     1      -8.436   9.715  70.734  1.00  0.00    -0.245 OA 
BRANCH  18  19
HETATM   19 CA   UNL     1      -7.679  11.851  69.884  1.00  0.00    -0.341 Ca 
BRANCH  19  20
HETATM   20  O   UNL     1      -6.921  13.986  69.035  1.00  0.00    -0.106 OA 
BRANCH  20  21
HETATM   21  C   UNL     1      -7.479  14.194  67.829  1.00  0.00    -0.165 C  
HETATM   22  O   UNL     1      -7.785  13.218  67.166  1.00  0.00    -0.120 OA 
BRANCH  21  23
HETATM   23  C   UNL     1      -7.572  15.576  67.222  1.00  0.00    -0.218 C  
HETATM   24  H   UNL     1      -6.332  16.872  66.510  1.00  0.00     0.000 HD 
HETATM   25  O   UNL     1      -6.274  16.005  66.892  1.00  0.00    -0.315 OA 
BRANCH  23  26
HETATM   26  C   UNL     1      -8.243  16.645  68.137  1.00  0.00    -0.192 C  
HETATM   27  H   UNL     1      -7.720  18.304  68.994  1.00  0.00     0.000 HD 
HETATM   28  O   UNL     1      -7.311  17.653  68.436  1.00  0.00    -0.223 OA 
BRANCH  26  29
HETATM   29  C   UNL     1      -9.575  17.295  67.627  1.00  0.00    -0.256 C  
BRANCH  29  30
HETATM   30  O   UNL     1      -9.870  16.681  66.381  1.00  0.00    -0.261 OA 
BRANCH  30  31
HETATM   31  C   UNL     1     -10.995  15.826  66.367  1.00  0.00    -0.159 C  
HETATM   32  O   UNL     1     -10.744  14.677  67.159  1.00  0.00    -0.282 OA 
HETATM   33  C   UNL     1     -11.872  13.816  67.166  1.00  0.00    -0.406 C  
HETATM   34  H   UNL     1     -11.609  16.285  63.175  1.00  0.00     0.000 HD 
HETATM   35  C   UNL     1     -12.109  13.234  65.749  1.00  0.00    -0.441 C  
HETATM   36  O   UNL     1     -10.980  12.517  65.314  1.00  0.00    -0.280 OA 
HETATM   37  C   UNL     1     -12.385  14.407  64.784  1.00  0.00    -0.414 C  
HETATM   38  O   UNL     1     -11.466  16.538  64.079  1.00  0.00    -1.137 OA 
HETATM   39  H   UNL     1     -11.125  12.161  64.445  1.00  0.00     0.000 HD 
HETATM   40  O   UNL     1     -12.498  13.969  63.453  1.00  0.00    -1.108 OA 
HETATM   41  C   UNL     1     -11.228  15.414  64.892  1.00  0.00    -0.403 C  
HETATM   42  H   UNL     1     -12.668  14.691  62.859  1.00  0.00     0.000 HD 
BRANCH  33  43
HETATM   43  C   UNL     1     -11.622  12.716  68.210  1.00  0.00    -0.332 C  
HETATM   44  O   UNL     1     -11.985  11.454  67.717  1.00  0.00    -0.637 OA 
HETATM   45  H   UNL     1     -11.829  10.774  68.361  1.00  0.00     0.000 HD 
ENDBRANCH  33  43
ENDBRANCH  30  31
ENDBRANCH  29  30
BRANCH  29  46
HETATM   46  C   UNL     1      -9.581  18.862  67.528  1.00  0.00    -0.305 C  
HETATM   47  O   UNL     1      -9.407  19.448  68.797  1.00  0.00    -0.373 OA 
HETATM   48  H   UNL     1      -9.410  20.395  68.738  1.00  0.00     0.000 HD 
BRANCH  46  49
HETATM   49  C   UNL     1     -10.782  19.465  66.765  1.00  0.00    -0.448 C  
HETATM   50  H   UNL     1     -11.187  20.082  64.954  1.00  0.00     0.000 HD 
HETATM   51  O   UNL     1     -10.448  19.711  65.424  1.00  0.00    -0.427 OA 
ENDBRANCH  46  49
ENDBRANCH  29  46
ENDBRANCH  26  29
ENDBRANCH  23  26
ENDBRANCH  21  23
ENDBRANCH  20  21
ENDBRANCH  19  20
ENDBRANCH  18  19
ENDBRANCH  16  18
ENDBRANCH  13  16
ENDBRANCH  10  13
ENDBRANCH   7  10
ENDBRANCH   4   7
ENDBRANCH   2   4
TORSDOF 17
ENDMDL
MODEL        5
REMARK 921   NORMALIZED FREE ENERGY PREDICTED BY IDOCK:   -6.27 KCAL/MOL
REMARK 922        TOTAL FREE ENERGY PREDICTED BY IDOCK:  -15.95 KCAL/MOL
REMARK 923 INTER-LIGAND FREE ENERGY PREDICTED BY IDOCK:  -13.34 KCAL/MOL
REMARK 924 INTRA-LIGAND FREE ENERGY PREDICTED BY IDOCK:   -2.61 KCAL/MOL
REMARK 927      BINDING AFFINITY PREDICTED BY RF-SCORE:    0.00 PKD
ROOT
HETATM    1  O   UNL     1     -11.497   6.613  67.201  1.00  0.00    -0.779 OA 
HETATM    2  C   UNL     1     -11.001   6.040  68.381  1.00  0.00    -0.251 C  
HETATM    3  H   UNL     1     -11.711   5.928  66.579  1.00  0.00     0.000 HD 
ENDROOT
BRANCH   2   4
HETATM    4  C   UNL     1     -10.655   7.149  69.389  1.00  0.00    -0.233 C  
HETATM    5  O   UNL     1     -10.705   8.396  68.742  1.00  0.00    -0.380 OA 
HETATM    6  H   UNL     1     -10.491   9.081  69.365  1.00  0.00     0.000 HD 
BRANCH   4   7
HETATM    7  C   UNL     1     -11.635   7.151  70.592  1.00  0.00    -0.314 C  
HETATM    8  H   UNL     1     -11.959   6.057  72.166  1.00  0.00     0.000 HD 
HETATM    9  O   UNL     1     -11.358   6.056  71.430  1.00  0.00    -0.285 OA 
BRANCH   7  10
HETATM   10  C   UNL     1     -11.533   8.460  71.421  1.00  0.00    -0.277 C  
HETATM   11  H   UNL     1     -11.196   8.921  73.266  1.00  0.00     0.000 HD 
HETATM   12  O   UNL     1     -11.259   8.120  72.758  1.00  0.00    -0.389 OA 
BRANCH  10  13
HETATM   13  C   UNL     1     -12.825   9.322  71.376  1.00  0.00    -0.328 C  
HETATM   14  H   UNL     1     -14.047  10.120  72.657  1.00  0.00     0.000 HD 
HETATM   15  O   UNL     1     -13.258   9.592  72.685  1.00  0.00    -0.344 OA 
BRANCH  13  16
HETATM   16  C   UNL     1     -12.640  10.643  70.667  1.00  0.00    -0.365 C  
HETATM   17  O   UNL     1     -12.271  10.659  69.503  1.00  0.00    -0.271 OA 
BRANCH  16  18
HETATM   18  O   UNL     1     -12.864  11.811  71.301  1.00  0.00    -0.386 OA 
BRANCH  18  19
HETATM   19 CA   UNL     1     -12.422  13.887  70.138  1.00  0.00    -0.268 Ca 
BRANCH  19  20
HETATM   20  O   UNL     1     -11.979  15.963  68.975  1.00  0.00    -0.378 OA 
BRANCH  20  21
HETATM   21  C   UNL     1     -10.931  16.569  69.558  1.00  0.00    -0.289 C  
HETATM   22  O   UNL     1     -10.799  16.447  70.764  1.00  0.00    -0.117 OA 
BRANCH  21  23
HETATM   23  C   UNL     1     -10.034  17.518  68.795  1.00  0.00    -0.342 C  
HETATM   24  H   UNL     1      -9.295  19.277  69.086  1.00  0.00     0.000 HD 
HETATM   25  O   UNL     1      -9.859  18.681  69.565  1.00  0.00    -0.047 OA 
BRANCH  23  26
HETATM   26  C   UNL     1     -10.560  17.917  67.383  1.00  0.00    -0.360 C  
HETATM   27  H   UNL     1     -11.647  19.333  66.626  1.00  0.00     0.000 HD 
HETATM   28  O   UNL     1     -11.326  19.090  67.486  1.00  0.00    -0.098 OA 
BRANCH  26  29
HETATM   29  C   UNL     1      -9.501  18.080  66.239  1.00  0.00    -0.220 C  
BRANCH  29  30
HETATM   30  O   UNL     1      -9.428  16.825  65.577  1.00  0.00    -0.490 OA 
BRANCH  30  31
HETATM   31  C   UNL     1     -10.450  15.902  65.895  1.00  0.00    -0.359 C  
HETATM   32  O   UNL     1      -9.904  14.790  66.586  1.00  0.00    -0.242 OA 
HETATM   33  C   UNL     1     -10.923  13.861  66.925  1.00  0.00    -0.295 C  
HETATM   34  H   UNL     1     -11.989  16.245  63.016  1.00  0.00     0.000 HD 
HETATM   35  C   UNL     1     -11.520  13.232  65.640  1.00  0.00    -0.318 C  
HETATM   36  O   UNL     1     -10.519  12.576  64.900  1.00  0.00    -0.285 OA 
HETATM   37  C   UNL     1     -12.140  14.361  64.791  1.00  0.00    -0.452 C  
HETATM   38  O   UNL     1     -11.608  16.527  63.838  1.00  0.00    -1.175 OA 
HETATM   39  H   UNL     1     -10.885  12.191  64.113  1.00  0.00     0.000 HD 
HETATM   40  O   UNL     1     -12.603  13.885  63.551  1.00  0.00    -0.944 OA 
HETATM   41  C   UNL     1     -11.071  15.441  64.553  1.00  0.00    -0.256 C  
HETATM   42  H   UNL     1     -12.985  14.580  63.029  1.00  0.00     0.000 HD 
BRANCH  33  43
HETATM   43  C   UNL     1     -10.308  12.804  67.857  1.00  0.00    -0.226 C  
HETATM   44  O   UNL     1     -10.558  13.106  69.203  1.00  0.00    -0.424 OA 
HETATM   45  H   UNL     1     -10.179  12.453  69.779  1.00  0.00     0.000 HD 
ENDBRANCH  33  43
ENDBRANCH  30  31
ENDBRANCH  29  30
BRANCH  29  46
HETATM   46  C   UNL     1      -8.086  18.596  66.682  1.00  0.00    -0.271 C  
HETATM   47  O   UNL     1      -8.167  19.900  67.209  1.00  0.00    -0.289 OA 
HETATM   48  H   UNL     1      -7.312  20.213  67.477  1.00  0.00     0.000 HD 
BRANCH  46  49
HETATM   49  C   UNL     1      -6.978  18.465  65.612  1.00  0.00    -0.206 C  
HETATM   50  H   UNL     1      -6.130  19.592  64.258  1.00  0.00     0.000 HD 
HETATM   51  O   UNL     1      -6.811  19.673  64.916  1.00  0.00    -0.384 OA 
ENDBRANCH  46  49
ENDBRANCH  29  46
ENDBRANCH  26  29
ENDBRANCH  23  26
ENDBRANCH  21  23
ENDBRANCH  20  21
ENDBRANCH  19  20
ENDBRANCH  18  19
ENDBRANCH  16  18
ENDBRANCH  13  16
ENDBRANCH  10  13
ENDBRANCH   7  10
ENDBRANCH   4   7
ENDBRANCH   2   4
TORSDOF 17
ENDMDL
MODEL        6
REMARK 921   NORMALIZED FREE ENERGY PREDICTED BY IDOCK:   -6.20 KCAL/MOL
REMARK 922        TOTAL FREE ENERGY PREDICTED BY IDOCK:  -15.80 KCAL/MOL
REMARK 923 INTER-LIGAND FREE ENERGY PREDICTED BY IDOCK:  -12.91 KCAL/MOL
REMARK 924 INTRA-LIGAND FREE ENERGY PREDICTED BY IDOCK:   -2.89 KCAL/MOL
REMARK 927      BINDING AFFINITY PREDICTED BY RF-SCORE:    0.00 PKD
ROOT
HETATM    1  O   UNL     1     -11.471   5.951  69.710  1.00  0.00    -0.307 OA 
HETATM    2  C   UNL     1     -10.911   6.180  70.975  1.00  0.00    -0.293 C  
HETATM    3  H   UNL     1     -10.789   5.696  69.100  1.00  0.00     0.000 HD 
ENDROOT
BRANCH   2   4
HETATM    4  C   UNL     1     -12.016   6.594  71.962  1.00  0.00    -0.319 C  
HETATM    5  O   UNL     1     -11.430   7.191  73.091  1.00  0.00    -0.547 OA 
HETATM    6  H   UNL     1     -12.112   7.447  73.701  1.00  0.00     0.000 HD 
BRANCH   4   7
HETATM    7  C   UNL     1     -13.018   7.585  71.314  1.00  0.00    -0.278 C  
HETATM    8  H   UNL     1     -14.943   7.860  71.303  1.00  0.00     0.000 HD 
HETATM    9  O   UNL     1     -14.330   7.253  71.701  1.00  0.00    -0.437 OA 
BRANCH   7  10
HETATM   10  C   UNL     1     -12.728   9.054  71.723  1.00  0.00    -0.366 C  
HETATM   11  H   UNL     1     -13.763  10.560  72.347  1.00  0.00     0.000 HD 
HETATM   12  O   UNL     1     -13.941   9.660  72.097  1.00  0.00    -0.308 OA 
BRANCH  10  13
HETATM   13  C   UNL     1     -12.074   9.893  70.591  1.00  0.00    -0.257 C  
HETATM   14  H   UNL     1     -11.990  11.764  70.075  1.00  0.00     0.000 HD 
HETATM   15  O   UNL     1     -12.390  11.250  70.767  1.00  0.00    -0.359 OA 
BRANCH  13  16
HETATM   16  C   UNL     1     -10.570   9.769  70.543  1.00  0.00    -0.312 C  
HETATM   17  O   UNL     1      -9.973   9.281  71.491  1.00  0.00    -0.307 OA 
BRANCH  16  18
HETATM   18  O   UNL     1      -9.868  10.198  69.475  1.00  0.00    -0.215 OA 
BRANCH  18  19
HETATM   19 CA   UNL     1     -11.047  11.219  67.624  1.00  0.00    -0.179 Ca 
BRANCH  19  20
HETATM   20  O   UNL     1     -12.225  12.241  65.774  1.00  0.00    -0.622 OA 
BRANCH  20  21
HETATM   21  C   UNL     1     -12.583  13.488  66.126  1.00  0.00    -0.295 C  
HETATM   22  O   UNL     1     -13.627  13.930  65.677  1.00  0.00    -0.478 OA 
BRANCH  21  23
HETATM   23  C   UNL     1     -11.656  14.393  66.906  1.00  0.00    -0.388 C  
HETATM   24  H   UNL     1      -9.785  14.863  66.840  1.00  0.00     0.000 HD 
HETATM   25  O   UNL     1     -10.368  14.295  66.350  1.00  0.00    -0.275 OA 
BRANCH  23  26
HETATM   26  C   UNL     1     -11.576  14.083  68.432  1.00  0.00    -0.331 C  
HETATM   27  H   UNL     1     -10.463  13.011  69.603  1.00  0.00     0.000 HD 
HETATM   28  O   UNL     1     -10.511  13.199  68.673  1.00  0.00    -0.253 OA 
BRANCH  26  29
HETATM   29  C   UNL     1     -11.479  15.304  69.410  1.00  0.00    -0.315 C  
BRANCH  29  30
HETATM   30  O   UNL     1     -10.113  15.411  69.784  1.00  0.00    -0.263 OA 
BRANCH  30  31
HETATM   31  C   UNL     1      -9.394  16.473  69.191  1.00  0.00    -0.207 C  
HETATM   32  O   UNL     1     -10.272  17.300  68.445  1.00  0.00    -0.313 OA 
HETATM   33  C   UNL     1      -9.566  18.381  67.857  1.00  0.00    -0.293 C  
HETATM   34  H   UNL     1      -6.819  14.603  68.386  1.00  0.00     0.000 HD 
HETATM   35  C   UNL     1      -8.574  17.851  66.789  1.00  0.00    -0.254 C  
HETATM   36  O   UNL     1      -9.260  17.142  65.786  1.00  0.00    -0.524 OA 
HETATM   37  C   UNL     1      -7.563  16.918  67.488  1.00  0.00    -0.165 C  
HETATM   38  O   UNL     1      -7.464  14.995  68.962  1.00  0.00    -0.132 OA 
HETATM   39  H   UNL     1      -8.652  16.818  65.132  1.00  0.00     0.000 HD 
HETATM   40  O   UNL     1      -6.697  16.306  66.564  1.00  0.00    -0.226 OA 
HETATM   41  C   UNL     1      -8.342  15.833  68.251  1.00  0.00    -0.163 C  
HETATM   42  H   UNL     1      -6.074  15.732  66.995  1.00  0.00     0.000 HD 
BRANCH  33  43
HETATM   43  C   UNL     1     -10.597  19.351  67.259  1.00  0.00    -0.486 C  
HETATM   44  O   UNL     1     -10.100  19.976  66.106  1.00  0.00    -0.454 OA 
HETATM   45  H   UNL     1     -10.737  20.575  65.737  1.00  0.00     0.000 HD 
ENDBRANCH  33  43
ENDBRANCH  30  31
ENDBRANCH  29  30
BRANCH  29  46
HETATM   46  C   UNL     1     -12.430  15.261  70.658  1.00  0.00    -0.406 C  
HETATM   47  O   UNL     1     -13.709  15.756  70.335  1.00  0.00    -0.682 OA 
HETATM   48  H   UNL     1     -14.284  15.731  71.090  1.00  0.00     0.000 HD 
BRANCH  46  49
HETATM   49  C   UNL     1     -11.857  15.911  71.939  1.00  0.00    -0.506 C  
HETATM   50  H   UNL     1     -12.423  16.217  73.785  1.00  0.00     0.000 HD 
HETATM   51  O   UNL     1     -12.774  15.818  72.998  1.00  0.00    -0.400 OA 
ENDBRANCH  46  49
ENDBRANCH  29  46
ENDBRANCH  26  29
ENDBRANCH  23  26
ENDBRANCH  21  23
ENDBRANCH  20  21
ENDBRANCH  19  20
ENDBRANCH  18  19
ENDBRANCH  16  18
ENDBRANCH  13  16
ENDBRANCH  10  13
ENDBRANCH   7  10
ENDBRANCH   4   7
ENDBRANCH   2   4
TORSDOF 17
ENDMDL
MODEL        7
REMARK 921   NORMALIZED FREE ENERGY PREDICTED BY IDOCK:   -6.15 KCAL/MOL
REMARK 922        TOTAL FREE ENERGY PREDICTED BY IDOCK:  -15.70 KCAL/MOL
REMARK 923 INTER-LIGAND FREE ENERGY PREDICTED BY IDOCK:  -12.14 KCAL/MOL
REMARK 924 INTRA-LIGAND FREE ENERGY PREDICTED BY IDOCK:   -3.56 KCAL/MOL
REMARK 927      BINDING AFFINITY PREDICTED BY RF-SCORE:    0.00 PKD
ROOT
HETATM    1  O   UNL     1     -13.086  11.793  72.233  1.00  0.00    -0.464 OA 
HETATM    2  C   UNL     1     -13.282  10.495  71.742  1.00  0.00    -0.417 C  
HETATM    3  H   UNL     1     -13.841  12.058  72.745  1.00  0.00     0.000 HD 
ENDROOT
BRANCH   2   4
HETATM    4  C   UNL     1     -12.059  10.065  70.913  1.00  0.00    -0.355 C  
HETATM    5  O   UNL     1     -11.303  11.202  70.578  1.00  0.00    -0.457 OA 
HETATM    6  H   UNL     1     -10.548  10.937  70.065  1.00  0.00     0.000 HD 
BRANCH   4   7
HETATM    7  C   UNL     1     -11.167   9.061  71.689  1.00  0.00    -0.361 C  
HETATM    8  H   UNL     1     -11.406   7.731  73.087  1.00  0.00     0.000 HD 
HETATM    9  O   UNL     1     -11.952   8.345  72.611  1.00  0.00    -0.396 OA 
BRANCH   7  10
HETATM   10  C   UNL     1     -10.462   8.057  70.739  1.00  0.00    -0.206 C  
HETATM   11  H   UNL     1     -10.221   7.873  68.832  1.00  0.00     0.000 HD 
HETATM   12  O   UNL     1     -10.653   8.488  69.414  1.00  0.00    -0.221 OA 
BRANCH  10  13
HETATM   13  C   UNL     1     -10.988   6.602  70.876  1.00  0.00    -0.268 C  
HETATM   14  H   UNL     1     -12.100   5.389  69.844  1.00  0.00     0.000 HD 
HETATM   15  O   UNL     1     -11.778   6.279  69.760  1.00  0.00    -0.403 OA 
BRANCH  13  16
HETATM   16  C   UNL     1      -9.888   5.573  70.980  1.00  0.00    -0.182 C  
HETATM   17  O   UNL     1     -10.099   4.517  71.556  1.00  0.00    -0.190 OA 
BRANCH  16  18
HETATM   18  O   UNL     1      -8.667   5.803  70.456  1.00  0.00    -0.134 OA 
BRANCH  18  19
HETATM   19 CA   UNL     1      -8.422   7.488  68.736  1.00  0.00    -0.116 Ca 
BRANCH  19  20
HETATM   20  O   UNL     1      -8.176   9.173  67.017  1.00  0.00    -0.114 OA 
BRANCH  20  21
HETATM   21  C   UNL     1      -9.381   9.711  66.763  1.00  0.00    -0.152 C  
HETATM   22  O   UNL     1     -10.186   9.039  66.140  1.00  0.00    -0.267 OA 
BRANCH  21  23
HETATM   23  C   UNL     1      -9.690  11.158  67.076  1.00  0.00    -0.186 C  
HETATM   24  H   UNL     1      -9.622  12.293  68.635  1.00  0.00     0.000 HD 
HETATM   25  O   UNL     1      -9.428  11.384  68.439  1.00  0.00    -0.183 OA 
BRANCH  23  26
HETATM   26  C   UNL     1     -11.154  11.593  66.760  1.00  0.00    -0.309 C  
HETATM   27  H   UNL     1     -12.876  11.517  67.648  1.00  0.00     0.000 HD 
HETATM   28  O   UNL     1     -11.984  11.252  67.840  1.00  0.00    -0.630 OA 
BRANCH  26  29
HETATM   29  C   UNL     1     -11.390  13.093  66.368  1.00  0.00    -0.315 C  
BRANCH  29  30
HETATM   30  O   UNL     1     -12.197  13.653  67.394  1.00  0.00    -0.350 OA 
BRANCH  30  31
HETATM   31  C   UNL     1     -11.669  14.794  68.039  1.00  0.00    -0.333 C  
HETATM   32  O   UNL     1     -10.445  15.174  67.433  1.00  0.00    -0.256 OA 
HETATM   33  C   UNL     1      -9.911  16.329  68.062  1.00  0.00    -0.236 C  
HETATM   34  H   UNL     1     -12.482  13.767  71.049  1.00  0.00     0.000 HD 
HETATM   35  C   UNL     1      -9.506  16.002  69.522  1.00  0.00    -0.173 C  
HETATM   36  O   UNL     1      -8.548  14.971  69.550  1.00  0.00    -0.384 OA 
HETATM   37  C   UNL     1     -10.770  15.559  70.287  1.00  0.00    -0.333 C  
HETATM   38  O   UNL     1     -12.628  14.007  70.142  1.00  0.00    -0.334 OA 
HETATM   39  H   UNL     1      -8.301  14.771  70.445  1.00  0.00     0.000 HD 
HETATM   40  O   UNL     1     -10.465  15.135  71.593  1.00  0.00    -0.212 OA 
HETATM   41  C   UNL     1     -11.430  14.402  69.519  1.00  0.00    -0.288 C  
HETATM   42  H   UNL     1     -11.244  14.862  72.064  1.00  0.00     0.000 HD 
BRANCH  33  43
HETATM   43  C   UNL     1      -8.717  16.815  67.224  1.00  0.00    -0.199 C  
HETATM   44  O   UNL     1      -8.885  16.501  65.868  1.00  0.00    -0.464 OA 
HETATM   45  H   UNL     1      -8.148  16.801  65.350  1.00  0.00     0.000 HD 
ENDBRANCH  33  43
ENDBRANCH  30  31
ENDBRANCH  29  30
BRANCH  29  46
HETATM   46  C   UNL     1     -11.991  13.343  64.941  1.00  0.00    -0.378 C  
HETATM   47  O   UNL     1     -13.281  13.903  65.027  1.00  0.00    -0.729 OA 
HETATM   48  H   UNL     1     -13.645  14.054  64.163  1.00  0.00     0.000 HD 
BRANCH  46  49
HETATM   49  C   UNL     1     -11.944  12.126  63.988  1.00  0.00    -0.440 C  
HETATM   50  H   UNL     1     -13.097  11.288  62.651  1.00  0.00     0.000 HD 
HETATM   51  O   UNL     1     -13.126  12.036  63.236  1.00  0.00    -0.701 OA 
ENDBRANCH  46  49
ENDBRANCH  29  46
ENDBRANCH  26  29
ENDBRANCH  23  26
ENDBRANCH  21  23
ENDBRANCH  20  21
ENDBRANCH  19  20
ENDBRANCH  18  19
ENDBRANCH  16  18
ENDBRANCH  13  16
ENDBRANCH  10  13
ENDBRANCH   7  10
ENDBRANCH   4   7
ENDBRANCH   2   4
TORSDOF 17
ENDMDL
MODEL        8
REMARK 921   NORMALIZED FREE ENERGY PREDICTED BY IDOCK:   -6.14 KCAL/MOL
REMARK 922        TOTAL FREE ENERGY PREDICTED BY IDOCK:  -15.69 KCAL/MOL
REMARK 923 INTER-LIGAND FREE ENERGY PREDICTED BY IDOCK:  -11.68 KCAL/MOL
REMARK 924 INTRA-LIGAND FREE ENERGY PREDICTED BY IDOCK:   -4.01 KCAL/MOL
REMARK 927      BINDING AFFINITY PREDICTED BY RF-SCORE:    0.00 PKD
ROOT
HETATM    1  O   UNL     1     -12.459  14.413  68.440  1.00  0.00    -0.583 OA 
HETATM    2  C   UNL     1     -11.903  13.707  69.515  1.00  0.00    -0.337 C  
HETATM    3  H   UNL     1     -12.378  15.347  68.596  1.00  0.00     0.000 HD 
ENDROOT
BRANCH   2   4
HETATM    4  C   UNL     1     -12.033  12.195  69.263  1.00  0.00    -0.262 C  
HETATM    5  O   UNL     1     -11.054  11.792  68.338  1.00  0.00    -0.204 OA 
HETATM    6  H   UNL     1     -11.134  10.858  68.182  1.00  0.00     0.000 HD 
BRANCH   4   7
HETATM    7  C   UNL     1     -11.870  11.382  70.575  1.00  0.00    -0.297 C  
HETATM    8  H   UNL     1     -12.741  11.292  72.311  1.00  0.00     0.000 HD 
HETATM    9  O   UNL     1     -12.841  11.789  71.508  1.00  0.00    -0.401 OA 
BRANCH   7  10
HETATM   10  C   UNL     1     -12.012   9.856  70.333  1.00  0.00    -0.195 C  
HETATM   11  H   UNL     1     -12.924   8.385  71.189  1.00  0.00     0.000 HD 
HETATM   12  O   UNL     1     -12.838   9.320  71.338  1.00  0.00    -0.321 OA 
BRANCH  10  13
HETATM   13  C   UNL     1     -10.654   9.100  70.341  1.00  0.00    -0.230 C  
HETATM   14  H   UNL     1      -9.947   7.455  71.095  1.00  0.00     0.000 HD 
HETATM   15  O   UNL     1     -10.777   7.918  71.090  1.00  0.00    -0.223 OA 
BRANCH  13  16
HETATM   16  C   UNL     1     -10.167   8.726  68.961  1.00  0.00    -0.207 C  
HETATM   17  O   UNL     1      -8.974   8.549  68.767  1.00  0.00    -0.139 OA 
BRANCH  16  18
HETATM   18  O   UNL     1     -11.026   8.594  67.931  1.00  0.00    -0.057 OA 
BRANCH  18  19
HETATM   19 CA   UNL     1     -10.930  10.180  66.105  1.00  0.00    -0.201 Ca 
BRANCH  19  20
HETATM   20  O   UNL     1     -10.835  11.766  64.280  1.00  0.00    -0.304 OA 
BRANCH  20  21
HETATM   21  C   UNL     1     -11.887  12.597  64.374  1.00  0.00    -0.387 C  
HETATM   22  O   UNL     1     -12.814  12.433  63.599  1.00  0.00    -0.743 OA 
BRANCH  21  23
HETATM   23  C   UNL     1     -11.869  13.806  65.281  1.00  0.00    -0.352 C  
HETATM   24  H   UNL     1     -13.186  14.946  66.112  1.00  0.00     0.000 HD 
HETATM   25  O   UNL     1     -13.198  14.187  65.542  1.00  0.00    -0.688 OA 
BRANCH  23  26
HETATM   26  C   UNL     1     -11.091  15.033  64.715  1.00  0.00    -0.376 C  
HETATM   27  H   UNL     1     -11.498  16.593  63.638  1.00  0.00     0.000 HD 
HETATM   28  O   UNL     1     -11.972  15.846  63.983  1.00  0.00    -0.660 OA 
BRANCH  26  29
HETATM   29  C   UNL     1     -10.290  15.912  65.737  1.00  0.00    -0.376 C  
BRANCH  29  30
HETATM   30  O   UNL     1     -10.177  15.143  66.925  1.00  0.00    -0.252 OA 
BRANCH  30  31
HETATM   31  C   UNL     1      -8.951  14.462  67.104  1.00  0.00    -0.232 C  
HETATM   32  O   UNL     1      -9.111  13.084  66.809  1.00  0.00    -0.230 OA 
HETATM   33  C   UNL     1      -7.883  12.391  66.970  1.00  0.00    -0.085 C  
HETATM   34  H   UNL     1      -8.150  16.117  69.823  1.00  0.00     0.000 HD 
HETATM   35  C   UNL     1      -7.458  12.396  68.461  1.00  0.00    -0.112 C  
HETATM   36  O   UNL     1      -8.445  11.786  69.257  1.00  0.00    -0.332 OA 
HETATM   37  C   UNL     1      -7.264  13.861  68.904  1.00  0.00    -0.103 C  
HETATM   38  O   UNL     1      -8.397  16.005  68.913  1.00  0.00    -0.202 OA 
HETATM   39  H   UNL     1      -8.185  11.789  70.171  1.00  0.00     0.000 HD 
HETATM   40  O   UNL     1      -6.988  13.955  70.280  1.00  0.00    -0.370 OA 
HETATM   41  C   UNL     1      -8.549  14.645  68.589  1.00  0.00    -0.172 C  
HETATM   42  H   UNL     1      -6.868  14.857  70.553  1.00  0.00     0.000 HD 
BRANCH  33  43
HETATM   43  C   UNL     1      -8.069  10.966  66.424  1.00  0.00    -0.164 C  
HETATM   44  O   UNL     1      -8.517  10.984  65.095  1.00  0.00    -0.352 OA 
HETATM   45  H   UNL     1      -8.631  10.104  64.759  1.00  0.00     0.000 HD 
ENDBRANCH  33  43
ENDBRANCH  30  31
ENDBRANCH  29  30
BRANCH  29  46
HETATM   46  C   UNL     1     -10.871  17.343  66.013  1.00  0.00     0.016 C  
HETATM   47  O   UNL     1     -11.018  18.068  64.814  1.00  0.00    -0.706 OA 
HETATM   48  H   UNL     1     -11.370  18.934  64.981  1.00  0.00     0.000 HD 
BRANCH  46  49
HETATM   49  C   UNL     1     -10.125  18.154  67.099  1.00  0.00    -0.351 C  
HETATM   50  H   UNL     1     -10.386  19.808  68.107  1.00  0.00     0.000 HD 
HETATM   51  O   UNL     1     -10.844  19.310  67.440  1.00  0.00    -0.486 OA 
ENDBRANCH  46  49
ENDBRANCH  29  46
ENDBRANCH  26  29
ENDBRANCH  23  26
ENDBRANCH  21  23
ENDBRANCH  20  21
ENDBRANCH  19  20
ENDBRANCH  18  19
ENDBRANCH  16  18
ENDBRANCH  13  16
ENDBRANCH  10  13
ENDBRANCH   7  10
ENDBRANCH   4   7
ENDBRANCH   2   4
TORSDOF 17
ENDMDL
MODEL        9
REMARK 921   NORMALIZED FREE ENERGY PREDICTED BY IDOCK:   -6.13 KCAL/MOL
REMARK 922        TOTAL FREE ENERGY PREDICTED BY IDOCK:  -15.66 KCAL/MOL
REMARK 923 INTER-LIGAND FREE ENERGY PREDICTED BY IDOCK:  -12.58 KCAL/MOL
REMARK 924 INTRA-LIGAND FREE ENERGY PREDICTED BY IDOCK:   -3.08 KCAL/MOL
REMARK 927      BINDING AFFINITY PREDICTED BY RF-SCORE:    0.00 PKD
ROOT
HETATM    1  O   UNL     1      -9.009  20.306  66.018  1.00  0.00    -0.587 OA 
HETATM    2  C   UNL     1     -10.343  19.917  66.197  1.00  0.00    -0.494 C  
HETATM    3  H   UNL     1      -8.977  21.196  65.684  1.00  0.00     0.000 HD 
ENDROOT
BRANCH   2   4
HETATM    4  C   UNL     1     -10.394  18.477  66.737  1.00  0.00    -0.401 C  
HETATM    5  O   UNL     1      -9.973  17.589  65.732  1.00  0.00    -0.546 OA 
HETATM    6  H   UNL     1     -10.005  16.700  66.065  1.00  0.00     0.000 HD 
BRANCH   4   7
HETATM    7  C   UNL     1      -9.494  18.306  67.989  1.00  0.00    -0.290 C  
HETATM    8  H   UNL     1      -9.213  19.228  69.677  1.00  0.00     0.000 HD 
HETATM    9  O   UNL     1      -9.764  19.333  68.911  1.00  0.00    -0.409 OA 
BRANCH   7  10
HETATM   10  C   UNL     1      -9.717  16.934  68.680  1.00  0.00    -0.267 C  
HETATM   11  H   UNL     1      -8.974  15.158  68.529  1.00  0.00     0.000 HD 
HETATM   12  O   UNL     1      -8.838  15.998  68.106  1.00  0.00    -0.174 OA 
BRANCH  10  13
HETATM   13  C   UNL     1     -11.172  16.405  68.549  1.00  0.00    -0.334 C  
HETATM   14  H   UNL     1     -12.154  15.224  67.360  1.00  0.00     0.000 HD 
HETATM   15  O   UNL     1     -11.264  15.548  67.440  1.00  0.00    -0.315 OA 
BRANCH  13  16
HETATM   16  C   UNL     1     -11.645  15.644  69.765  1.00  0.00    -0.352 C  
HETATM   17  O   UNL     1     -11.507  16.132  70.876  1.00  0.00    -0.403 OA 
BRANCH  16  18
HETATM   18  O   UNL     1     -12.209  14.425  69.647  1.00  0.00    -0.321 OA 
BRANCH  18  19
HETATM   19 CA   UNL     1     -12.319  13.382  67.467  1.00  0.00    -0.314 Ca 
BRANCH  19  20
HETATM   20  O   UNL     1     -12.429  12.338  65.286  1.00  0.00    -0.585 OA 
BRANCH  20  21
HETATM   21  C   UNL     1     -11.192  11.948  64.931  1.00  0.00    -0.292 C  
HETATM   22  O   UNL     1     -10.904  11.973  63.746  1.00  0.00    -0.340 OA 
BRANCH  21  23
HETATM   23  C   UNL     1     -10.235  11.331  65.926  1.00  0.00    -0.249 C  
HETATM   24  H   UNL     1      -8.781  10.063  65.859  1.00  0.00     0.000 HD 
HETATM   25  O   UNL     1      -9.382  10.451  65.234  1.00  0.00    -0.182 OA 
BRANCH  23  26
HETATM   26  C   UNL     1     -10.919  10.561  67.095  1.00  0.00    -0.228 C  
HETATM   27  H   UNL     1     -11.283   8.712  67.552  1.00  0.00     0.000 HD 
HETATM   28  O   UNL     1     -10.866   9.181  66.839  1.00  0.00    -0.147 OA 
BRANCH  26  29
HETATM   29  C   UNL     1     -10.399  10.846  68.547  1.00  0.00    -0.187 C  
BRANCH  29  30
HETATM   30  O   UNL     1     -11.543  10.854  69.389  1.00  0.00    -0.264 OA 
BRANCH  30  31
HETATM   31  C   UNL     1     -11.480  10.010  70.520  1.00  0.00    -0.330 C  
HETATM   32  O   UNL     1     -11.224   8.674  70.118  1.00  0.00    -0.237 OA 
HETATM   33  C   UNL     1     -11.143   7.817  71.246  1.00  0.00    -0.246 C  
HETATM   34  H   UNL     1     -13.989  11.470  72.051  1.00  0.00     0.000 HD 
HETATM   35  C   UNL     1     -12.523   7.726  71.947  1.00  0.00    -0.314 C  
HETATM   36  O   UNL     1     -13.497   7.235  71.058  1.00  0.00    -0.587 OA 
HETATM   37  C   UNL     1     -12.919   9.139  72.423  1.00  0.00    -0.398 C  
HETATM   38  O   UNL     1     -13.145  11.416  71.621  1.00  0.00    -0.455 OA 
HETATM   39  H   UNL     1     -14.342   7.179  71.488  1.00  0.00     0.000 HD 
HETATM   40  O   UNL     1     -14.214   9.160  72.970  1.00  0.00    -1.082 OA 
HETATM   41  C   UNL     1     -12.858  10.098  71.222  1.00  0.00    -0.410 C  
HETATM   42  H   UNL     1     -14.457  10.030  73.264  1.00  0.00     0.000 HD 
BRANCH  33  43
HETATM   43  C   UNL     1     -10.646   6.445  70.764  1.00  0.00    -0.238 C  
HETATM   44  O   UNL     1     -11.021   5.426  71.652  1.00  0.00    -0.209 OA 
HETATM   45  H   UNL     1     -10.715   4.579  71.353  1.00  0.00     0.000 HD 
ENDBRANCH  33  43
ENDBRANCH  30  31
ENDBRANCH  29  30
BRANCH  29  46
HETATM   46  C   UNL     1      -9.528  12.140  68.722  1.00  0.00     0.059 C  
HETATM   47  O   UNL     1     -10.050  13.206  67.963  1.00  0.00    -0.219 OA 
HETATM   48  H   UNL     1      -9.523  13.989  68.069  1.00  0.00     0.000 HD 
BRANCH  46  49
HETATM   49  C   UNL     1      -8.012  11.945  68.491  1.00  0.00    -0.137 C  
HETATM   50  H   UNL     1      -6.772  10.465  68.184  1.00  0.00     0.000 HD 
HETATM   51  O   UNL     1      -7.704  10.585  68.325  1.00  0.00    -0.096 OA 
ENDBRANCH  46  49
ENDBRANCH  29  46
ENDBRANCH  26  29
ENDBRANCH  23  26
ENDBRANCH  21  23
ENDBRANCH  20  21
ENDBRANCH  19  20
ENDBRANCH  18  19
ENDBRANCH  16  18
ENDBRANCH  13  16
ENDBRANCH  10  13
ENDBRANCH   7  10
ENDBRANCH   4   7
ENDBRANCH   2   4
TORSDOF 17
ENDMDL
MODEL       10
REMARK 921   NORMALIZED FREE ENERGY PREDICTED BY IDOCK:   -6.11 KCAL/MOL
REMARK 922        TOTAL FREE ENERGY PREDICTED BY IDOCK:  -15.61 KCAL/MOL
REMARK 923 INTER-LIGAND FREE ENERGY PREDICTED BY IDOCK:  -13.29 KCAL/MOL
REMARK 924 INTRA-LIGAND FREE ENERGY PREDICTED BY IDOCK:   -2.33 KCAL/MOL
REMARK 927      BINDING AFFINITY PREDICTED BY RF-SCORE:    0.00 PKD
ROOT
HETATM    1  O   UNL     1      -9.487   5.347  73.379  1.00  0.00    -0.134 OA 
HETATM    2  C   UNL     1     -10.880   5.505  73.385  1.00  0.00    -0.288 C  
HETATM    3  H   UNL     1      -9.235   4.709  74.037  1.00  0.00     0.000 HD 
ENDROOT
BRANCH   2   4
HETATM    4  C   UNL     1     -11.288   6.537  72.320  1.00  0.00    -0.282 C  
HETATM    5  O   UNL     1     -12.647   6.367  72.005  1.00  0.00    -0.459 OA 
HETATM    6  H   UNL     1     -12.899   7.004  71.347  1.00  0.00     0.000 HD 
BRANCH   4   7
HETATM    7  C   UNL     1     -11.049   7.989  72.812  1.00  0.00    -0.381 C  
HETATM    8  H   UNL     1      -9.666   8.955  73.778  1.00  0.00     0.000 HD 
HETATM    9  O   UNL     1      -9.812   8.066  73.477  1.00  0.00    -0.250 OA 
BRANCH   7  10
HETATM   10  C   UNL     1     -11.058   9.007  71.641  1.00  0.00    -0.363 C  
HETATM   11  H   UNL     1     -12.381   9.750  70.447  1.00  0.00     0.000 HD 
HETATM   12  O   UNL     1     -12.376   9.127  71.164  1.00  0.00    -0.299 OA 
BRANCH  10  13
HETATM   13  C   UNL     1     -10.131   8.601  70.461  1.00  0.00    -0.196 C  
HETATM   14  H   UNL     1     -10.282   8.416  68.534  1.00  0.00     0.000 HD 
HETATM   15  O   UNL     1     -10.848   8.664  69.255  1.00  0.00    -0.180 OA 
BRANCH  13  16
HETATM   16  C   UNL     1      -8.913   9.482  70.324  1.00  0.00    -0.248 C  
HETATM   17  O   UNL     1      -7.942   9.289  71.040  1.00  0.00    -0.250 OA 
BRANCH  16  18
HETATM   18  O   UNL     1      -8.880  10.491  69.430  1.00  0.00    -0.152 OA 
BRANCH  18  19
HETATM   19 CA   UNL     1     -10.268  12.439  69.797  1.00  0.00    -0.409 Ca 
BRANCH  19  20
HETATM   20  O   UNL     1     -11.657  14.386  70.164  1.00  0.00    -0.271 OA 
BRANCH  20  21
HETATM   21  C   UNL     1     -10.884  15.484  70.110  1.00  0.00    -0.331 C  
HETATM   22  O   UNL     1     -11.181  16.427  70.824  1.00  0.00    -0.350 OA 
BRANCH  21  23
HETATM   23  C   UNL     1      -9.785  15.635  69.082  1.00  0.00    -0.249 C  
HETATM   24  H   UNL     1      -7.866  15.435  69.052  1.00  0.00     0.000 HD 
HETATM   25  O   UNL     1      -8.556  15.340  69.698  1.00  0.00    -0.237 OA 
BRANCH  23  26
HETATM   26  C   UNL     1      -9.699  17.046  68.425  1.00  0.00    -0.279 C  
HETATM   27  H   UNL     1      -8.299  18.279  67.897  1.00  0.00     0.000 HD 
HETATM   28  O   UNL     1      -8.351  17.419  68.297  1.00  0.00    -0.231 OA 
BRANCH  26  29
HETATM   29  C   UNL     1     -10.433  17.248  67.054  1.00  0.00    -0.287 C  
BRANCH  29  30
HETATM   30  O   UNL     1     -10.033  16.169  66.222  1.00  0.00    -0.278 OA 
BRANCH  30  31
HETATM   31  C   UNL     1     -10.985  15.138  66.052  1.00  0.00    -0.332 C  
HETATM   32  O   UNL     1     -10.451  13.903  66.500  1.00  0.00    -0.276 OA 
HETATM   33  C   UNL     1     -11.402  12.861  66.350  1.00  0.00    -0.319 C  
HETATM   34  H   UNL     1     -12.010  16.234  63.133  1.00  0.00     0.000 HD 
HETATM   35  C   UNL     1     -11.684  12.609  64.846  1.00  0.00    -0.353 C  
HETATM   36  O   UNL     1     -10.499  12.258  64.173  1.00  0.00    -0.320 OA 
HETATM   37  C   UNL     1     -12.265  13.904  64.239  1.00  0.00    -0.408 C  
HETATM   38  O   UNL     1     -11.818  16.281  64.061  1.00  0.00    -0.958 OA 
HETATM   39  H   UNL     1     -10.673  12.105  63.252  1.00  0.00     0.000 HD 
HETATM   40  O   UNL     1     -12.441  13.791  62.848  1.00  0.00    -1.009 OA 
HETATM   41  C   UNL     1     -11.298  15.062  64.537  1.00  0.00    -0.287 C  
HETATM   42  H   UNL     1     -12.799  14.588  62.475  1.00  0.00     0.000 HD 
BRANCH  33  43
HETATM   43  C   UNL     1     -10.851  11.611  67.053  1.00  0.00    -0.266 C  
HETATM   44  O   UNL     1     -11.884  10.831  67.592  1.00  0.00    -0.647 OA 
HETATM   45  H   UNL     1     -11.543  10.059  68.026  1.00  0.00     0.000 HD 
ENDBRANCH  33  43
ENDBRANCH  30  31
ENDBRANCH  29  30
BRANCH  29  46
HETATM   46  C   UNL     1     -10.219  18.639  66.359  1.00  0.00    -0.425 C  
HETATM   47  O   UNL     1      -8.883  18.795  65.941  1.00  0.00    -0.465 OA 
HETATM   48  H   UNL     1      -8.753  19.636  65.521  1.00  0.00     0.000 HD 
BRANCH  46  49
HETATM   49  C   UNL     1     -10.725  19.858  67.165  1.00  0.00    -0.340 C  
HETATM   50  H   UNL     1     -10.032  21.580  67.777  1.00  0.00     0.000 HD 
HETATM   51  O   UNL     1      -9.721  20.831  67.281  1.00  0.00    -0.479 OA 
ENDBRANCH  46  49
ENDBRANCH  29  46
ENDBRANCH  26  29
ENDBRANCH  23  26
ENDBRANCH  21  23
ENDBRANCH  20  21
ENDBRANCH  19  20
ENDBRANCH  18  19
ENDBRANCH  16  18
ENDBRANCH  13  16
ENDBRANCH  10  13
ENDBRANCH   7  10
ENDBRANCH   4   7
ENDBRANCH   2   4
TORSDOF 17
ENDMDL
MODEL       11
REMARK 921   NORMALIZED FREE ENERGY PREDICTED BY IDOCK:   -6.04 KCAL/MOL
REMARK 922        TOTAL FREE ENERGY PREDICTED BY IDOCK:  -15.49 KCAL/MOL
REMARK 923 INTER-LIGAND FREE ENERGY PREDICTED BY IDOCK:  -12.86 KCAL/MOL
REMARK 924 INTRA-LIGAND FREE ENERGY PREDICTED BY IDOCK:   -2.63 KCAL/MOL
REMARK 927      BINDING AFFINITY PREDICTED BY RF-SCORE:    0.00 PKD
ROOT
HETATM    1  O   UNL     1     -11.197   6.301  73.516  1.00  0.00    -0.450 OA 
HETATM    2  C   UNL     1     -10.659   7.201  72.586  1.00  0.00    -0.256 C  
HETATM    3  H   UNL     1     -10.501   5.776  73.893  1.00  0.00     0.000 HD 
ENDROOT
BRANCH   2   4
HETATM    4  C   UNL     1     -11.787   8.050  71.975  1.00  0.00    -0.326 C  
HETATM    5  O   UNL     1     -12.701   8.403  72.983  1.00  0.00    -0.697 OA 
HETATM    6  H   UNL     1     -13.397   8.927  72.606  1.00  0.00     0.000 HD 
BRANCH   4   7
HETATM    7  C   UNL     1     -11.233   9.336  71.306  1.00  0.00    -0.355 C  
HETATM    8  H   UNL     1     -10.467   9.831  69.589  1.00  0.00     0.000 HD 
HETATM    9  O   UNL     1     -10.806   9.043  69.998  1.00  0.00    -0.229 OA 
BRANCH   7  10
HETATM   10  C   UNL     1     -12.297  10.464  71.249  1.00  0.00    -0.401 C  
HETATM   11  H   UNL     1     -14.172  10.594  70.804  1.00  0.00     0.000 HD 
HETATM   12  O   UNL     1     -13.521   9.903  70.839  1.00  0.00    -0.334 OA 
BRANCH  10  13
HETATM   13  C   UNL     1     -11.924  11.619  70.279  1.00  0.00    -0.358 C  
HETATM   14  H   UNL     1     -12.282  12.096  68.431  1.00  0.00     0.000 HD 
HETATM   15  O   UNL     1     -12.510  11.389  69.024  1.00  0.00    -0.364 OA 
BRANCH  13  16
HETATM   16  C   UNL     1     -12.376  12.977  70.761  1.00  0.00    -0.310 C  
HETATM   17  O   UNL     1     -12.938  13.081  71.840  1.00  0.00    -0.353 OA 
BRANCH  16  18
HETATM   18  O   UNL     1     -12.179  14.082  70.014  1.00  0.00    -0.320 OA 
BRANCH  18  19
HETATM   19 CA   UNL     1     -12.852  14.069  67.690  1.00  0.00    -0.475 Ca 
BRANCH  19  20
HETATM   20  O   UNL     1     -13.524  14.055  65.365  1.00  0.00    -0.679 OA 
BRANCH  20  21
HETATM   21  C   UNL     1     -12.452  14.335  64.604  1.00  0.00    -0.351 C  
HETATM   22  O   UNL     1     -12.538  15.260  63.815  1.00  0.00    -0.733 OA 
BRANCH  21  23
HETATM   23  C   UNL     1     -11.234  13.439  64.583  1.00  0.00    -0.359 C  
HETATM   24  H   UNL     1     -10.529  12.072  63.417  1.00  0.00     0.000 HD 
HETATM   25  O   UNL     1     -11.294  12.634  63.430  1.00  0.00    -0.482 OA 
BRANCH  23  26
HETATM   26  C   UNL     1     -11.078  12.523  65.834  1.00  0.00    -0.299 C  
HETATM   27  H   UNL     1     -10.680  10.657  66.183  1.00  0.00     0.000 HD 
HETATM   28  O   UNL     1     -10.775  11.215  65.420  1.00  0.00    -0.258 OA 
BRANCH  26  29
HETATM   29  C   UNL     1     -10.057  12.976  66.935  1.00  0.00    -0.243 C  
BRANCH  29  30
HETATM   30  O   UNL     1      -9.192  13.917  66.317  1.00  0.00    -0.206 OA 
BRANCH  30  31
HETATM   31  C   UNL     1      -9.129  15.189  66.929  1.00  0.00    -0.247 C  
HETATM   32  O   UNL     1      -9.730  16.163  66.093  1.00  0.00    -0.280 OA 
HETATM   33  C   UNL     1      -9.688  17.444  66.703  1.00  0.00    -0.290 C  
HETATM   34  H   UNL     1      -6.081  14.757  68.069  1.00  0.00     0.000 HD 
HETATM   35  C   UNL     1      -8.220  17.928  66.824  1.00  0.00    -0.250 C  
HETATM   36  O   UNL     1      -7.616  17.996  65.555  1.00  0.00    -0.530 OA 
HETATM   37  C   UNL     1      -7.452  16.928  67.713  1.00  0.00    -0.164 C  
HETATM   38  O   UNL     1      -7.000  14.557  67.946  1.00  0.00    -0.127 OA 
HETATM   39  H   UNL     1      -6.716  18.293  65.630  1.00  0.00     0.000 HD 
HETATM   40  O   UNL     1      -6.081  17.237  67.779  1.00  0.00    -0.134 OA 
HETATM   41  C   UNL     1      -7.627  15.516  67.130  1.00  0.00    -0.218 C  
HETATM   42  H   UNL     1      -5.609  16.621  68.327  1.00  0.00     0.000 HD 
BRANCH  33  43
HETATM   43  C   UNL     1     -10.545  18.399  65.858  1.00  0.00    -0.285 C  
HETATM   44  O   UNL     1     -10.970  17.787  64.670  1.00  0.00    -0.707 OA 
HETATM   45  H   UNL     1     -11.500  18.378  64.148  1.00  0.00     0.000 HD 
ENDBRANCH  33  43
ENDBRANCH  30  31
ENDBRANCH  29  30
BRANCH  29  46
HETATM   46  C   UNL     1      -9.264  11.826  67.651  1.00  0.00    -0.180 C  
HETATM   47  O   UNL     1      -8.801  12.242  68.914  1.00  0.00    -0.377 OA 
HETATM   48  H   UNL     1      -8.321  11.547  69.347  1.00  0.00     0.000 HD 
BRANCH  46  49
HETATM   49  C   UNL     1      -8.147  11.176  66.803  1.00  0.00    -0.155 C  
HETATM   50  H   UNL     1      -6.320  10.530  67.063  1.00  0.00     0.000 HD 
HETATM   51  O   UNL     1      -7.007  10.929  67.584  1.00  0.00    -0.079 OA 
ENDBRANCH  46  49
ENDBRANCH  29  46
ENDBRANCH  26  29
ENDBRANCH  23  26
ENDBRANCH  21  23
ENDBRANCH  20  21
ENDBRANCH  19  20
ENDBRANCH  18  19
ENDBRANCH  16  18
ENDBRANCH  13  16
ENDBRANCH  10  13
ENDBRANCH   7  10
ENDBRANCH   4   7
ENDBRANCH   2   4
TORSDOF 17
ENDMDL
MODEL       12
REMARK 921   NORMALIZED FREE ENERGY PREDICTED BY IDOCK:   -6.04 KCAL/MOL
REMARK 922        TOTAL FREE ENERGY PREDICTED BY IDOCK:  -15.49 KCAL/MOL
REMARK 923 INTER-LIGAND FREE ENERGY PREDICTED BY IDOCK:  -11.25 KCAL/MOL
REMARK 924 INTRA-LIGAND FREE ENERGY PREDICTED BY IDOCK:   -4.24 KCAL/MOL
REMARK 927      BINDING AFFINITY PREDICTED BY RF-SCORE:    0.00 PKD
ROOT
HETATM    1  O   UNL     1     -10.088  10.542  62.928  1.00  0.00    -0.626 OA 
HETATM    2  C   UNL     1     -10.137  11.849  63.432  1.00  0.00    -0.438 C  
HETATM    3  H   UNL     1      -9.207  10.198  63.019  1.00  0.00     0.000 HD 
ENDROOT
BRANCH   2   4
HETATM    4  C   UNL     1     -11.563  12.407  63.284  1.00  0.00    -0.371 C  
HETATM    5  O   UNL     1     -12.433  11.367  62.914  1.00  0.00    -0.949 OA 
HETATM    6  H   UNL     1     -13.313  11.711  62.823  1.00  0.00     0.000 HD 
BRANCH   4   7
HETATM    7  C   UNL     1     -12.061  13.053  64.604  1.00  0.00    -0.409 C  
HETATM    8  H   UNL     1     -13.705  13.083  65.642  1.00  0.00     0.000 HD 
HETATM    9  O   UNL     1     -13.400  12.687  64.834  1.00  0.00    -0.741 OA 
BRANCH   7  10
HETATM   10  C   UNL     1     -11.203  12.621  65.822  1.00  0.00    -0.312 C  
HETATM   11  H   UNL     1     -11.131  11.100  67.010  1.00  0.00     0.000 HD 
HETATM   12  O   UNL     1     -11.657  11.365  66.264  1.00  0.00    -0.331 OA 
BRANCH  10  13
HETATM   13  C   UNL     1     -11.263  13.623  67.008  1.00  0.00    -0.312 C  
HETATM   14  H   UNL     1     -12.129  13.722  68.743  1.00  0.00     0.000 HD 
HETATM   15  O   UNL     1     -12.093  13.110  68.018  1.00  0.00    -0.325 OA 
BRANCH  13  16
HETATM   16  C   UNL     1      -9.912  13.911  67.619  1.00  0.00    -0.237 C  
HETATM   17  O   UNL     1      -9.116  14.619  67.021  1.00  0.00    -0.213 OA 
BRANCH  16  18
HETATM   18  O   UNL     1      -9.562  13.391  68.812  1.00  0.00    -0.106 OA 
BRANCH  18  19
HETATM   19 CA   UNL     1     -11.275  12.439  70.232  1.00  0.00    -0.415 Ca 
BRANCH  19  20
HETATM   20  O   UNL     1     -12.988  11.487  71.651  1.00  0.00    -0.437 OA 
BRANCH  20  21
HETATM   21  C   UNL     1     -12.755  10.170  71.785  1.00  0.00    -0.434 C  
HETATM   22  O   UNL     1     -13.544   9.515  72.445  1.00  0.00    -0.452 OA 
BRANCH  21  23
HETATM   23  C   UNL     1     -11.475   9.533  71.293  1.00  0.00    -0.377 C  
HETATM   24  H   UNL     1     -10.414   9.601  69.682  1.00  0.00     0.000 HD 
HETATM   25  O   UNL     1     -11.218  10.001  69.991  1.00  0.00    -0.254 OA 
BRANCH  23  26
HETATM   26  C   UNL     1     -11.488   7.974  71.280  1.00  0.00    -0.269 C  
HETATM   27  H   UNL     1     -12.430   6.574  70.325  1.00  0.00     0.000 HD 
HETATM   28  O   UNL     1     -12.423   7.524  70.333  1.00  0.00     0.100 OA 
BRANCH  26  29
HETATM   29  C   UNL     1     -10.118   7.245  71.053  1.00  0.00    -0.191 C  
BRANCH  29  30
HETATM   30  O   UNL     1     -10.165   6.700  69.743  1.00  0.00    -0.178 OA 
BRANCH  30  31
HETATM   31  C   UNL     1      -9.284   7.280  68.803  1.00  0.00    -0.137 C  
HETATM   32  O   UNL     1      -8.597   8.373  69.388  1.00  0.00    -0.127 OA 
HETATM   33  C   UNL     1      -7.696   8.956  68.459  1.00  0.00    -0.098 C  
HETATM   34  H   UNL     1     -11.389   7.008  66.298  1.00  0.00     0.000 HD 
HETATM   35  C   UNL     1      -8.481   9.605  67.290  1.00  0.00    -0.132 C  
HETATM   36  O   UNL     1      -9.356  10.595  67.773  1.00  0.00    -0.145 OA 
HETATM   37  C   UNL     1      -9.287   8.500  66.576  1.00  0.00    -0.203 C  
HETATM   38  O   UNL     1     -10.857   6.707  67.025  1.00  0.00    -0.337 OA 
HETATM   39  H   UNL     1      -9.837  10.992  67.056  1.00  0.00     0.000 HD 
HETATM   40  O   UNL     1     -10.117   9.030  65.571  1.00  0.00    -0.369 OA 
HETATM   41  C   UNL     1     -10.152   7.771  67.617  1.00  0.00    -0.196 C  
HETATM   42  H   UNL     1     -10.613   8.350  65.131  1.00  0.00     0.000 HD 
BRANCH  33  43
HETATM   43  C   UNL     1      -6.831   9.977  69.214  1.00  0.00    -0.059 C  
HETATM   44  O   UNL     1      -7.616  11.001  69.765  1.00  0.00    -0.365 OA 
HETATM   45  H   UNL     1      -7.081  11.631  70.232  1.00  0.00     0.000 HD 
ENDBRANCH  33  43
ENDBRANCH  30  31
ENDBRANCH  29  30
BRANCH  29  46
HETATM   46  C   UNL     1      -9.728   6.169  72.126  1.00  0.00    -0.154 C  
HETATM   47  O   UNL     1      -8.534   5.511  71.770  1.00  0.00    -0.124 OA 
HETATM   48  H   UNL     1      -8.298   4.860  72.419  1.00  0.00     0.000 HD 
BRANCH  46  49
HETATM   49  C   UNL     1     -10.854   5.177  72.499  1.00  0.00    -0.223 C  
HETATM   50  H   UNL     1     -11.652   4.434  74.121  1.00  0.00     0.000 HD 
HETATM   51  O   UNL     1     -10.960   5.043  73.892  1.00  0.00    -0.302 OA 
ENDBRANCH  46  49
ENDBRANCH  29  46
ENDBRANCH  26  29
ENDBRANCH  23  26
ENDBRANCH  21  23
ENDBRANCH  20  21
ENDBRANCH  19  20
ENDBRANCH  18  19
ENDBRANCH  16  18
ENDBRANCH  13  16
ENDBRANCH  10  13
ENDBRANCH   7  10
ENDBRANCH   4   7
ENDBRANCH   2   4
TORSDOF 17
ENDMDL
MODEL       13
REMARK 921   NORMALIZED FREE ENERGY PREDICTED BY IDOCK:   -6.04 KCAL/MOL
REMARK 922        TOTAL FREE ENERGY PREDICTED BY IDOCK:  -15.49 KCAL/MOL
REMARK 923 INTER-LIGAND FREE ENERGY PREDICTED BY IDOCK:  -11.92 KCAL/MOL
REMARK 924 INTRA-LIGAND FREE ENERGY PREDICTED BY IDOCK:   -3.57 KCAL/MOL
REMARK 927      BINDING AFFINITY PREDICTED BY RF-SCORE:    0.00 PKD
ROOT
HETATM    1  O   UNL     1      -9.900   7.329  66.619  1.00  0.00    -0.241 OA 
HETATM    2  C   UNL     1     -10.828   6.762  67.503  1.00  0.00    -0.318 C  
HETATM    3  H   UNL     1     -10.357   7.727  65.887  1.00  0.00     0.000 HD 
ENDROOT
BRANCH   2   4
HETATM    4  C   UNL     1     -10.088   6.118  68.688  1.00  0.00    -0.162 C  
HETATM    5  O   UNL     1      -8.820   6.709  68.820  1.00  0.00    -0.127 OA 
HETATM    6  H   UNL     1      -8.363   6.311  69.552  1.00  0.00     0.000 HD 
BRANCH   4   7
HETATM    7  C   UNL     1     -10.878   6.287  70.013  1.00  0.00    -0.324 C  
HETATM    8  H   UNL     1     -10.632   5.824  71.885  1.00  0.00     0.000 HD 
HETATM    9  O   UNL     1     -10.148   5.721  71.074  1.00  0.00    -0.189 OA 
BRANCH   7  10
HETATM   10  C   UNL     1     -11.160   7.779  70.334  1.00  0.00    -0.251 C  
HETATM   11  H   UNL     1     -10.108   9.332  70.791  1.00  0.00     0.000 HD 
HETATM   12  O   UNL     1      -9.934   8.418  70.595  1.00  0.00    -0.181 OA 
BRANCH  10  13
HETATM   13  C   UNL     1     -12.103   7.982  71.552  1.00  0.00    -0.298 C  
HETATM   14  H   UNL     1     -11.918   8.399  73.440  1.00  0.00     0.000 HD 
HETATM   15  O   UNL     1     -11.341   8.275  72.695  1.00  0.00    -0.390 OA 
BRANCH  13  16
HETATM   16  C   UNL     1     -13.100   9.100  71.359  1.00  0.00    -0.304 C  
HETATM   17  O   UNL     1     -14.294   8.876  71.488  1.00  0.00    -0.325 OA 
BRANCH  16  18
HETATM   18  O   UNL     1     -12.697  10.345  71.035  1.00  0.00    -0.337 OA 
BRANCH  18  19
HETATM   19 CA   UNL     1     -10.509  10.655  70.047  1.00  0.00    -0.211 Ca 
BRANCH  19  20
HETATM   20  O   UNL     1      -8.322  10.965  69.059  1.00  0.00    -0.152 OA 
BRANCH  20  21
HETATM   21  C   UNL     1      -8.242  10.217  67.945  1.00  0.00    -0.109 C  
HETATM   22  O   UNL     1      -7.719   9.119  68.031  1.00  0.00    -0.091 OA 
BRANCH  21  23
HETATM   23  C   UNL     1      -8.620  10.767  66.587  1.00  0.00    -0.143 C  
HETATM   24  H   UNL     1      -8.563  12.488  65.714  1.00  0.00     0.000 HD 
HETATM   25  O   UNL     1      -8.326  12.142  66.567  1.00  0.00    -0.110 OA 
BRANCH  23  26
HETATM   26  C   UNL     1     -10.114  10.561  66.195  1.00  0.00    -0.246 C  
HETATM   27  H   UNL     1     -11.767  10.109  67.103  1.00  0.00     0.000 HD 
HETATM   28  O   UNL     1     -10.856  10.234  67.342  1.00  0.00    -0.279 OA 
BRANCH  26  29
HETATM   29  C   UNL     1     -10.824  11.728  65.425  1.00  0.00    -0.295 C  
BRANCH  29  30
HETATM   30  O   UNL     1     -11.915  12.139  66.235  1.00  0.00    -0.605 OA 
BRANCH  30  31
HETATM   31  C   UNL     1     -11.871  13.474  66.697  1.00  0.00    -0.407 C  
HETATM   32  O   UNL     1     -11.167  14.286  65.772  1.00  0.00    -0.307 OA 
HETATM   33  C   UNL     1     -11.129  15.634  66.216  1.00  0.00    -0.127 C  
HETATM   34  H   UNL     1     -11.344  12.629  69.825  1.00  0.00     0.000 HD 
HETATM   35  C   UNL     1     -10.283  15.744  67.511  1.00  0.00    -0.265 C  
HETATM   36  O   UNL     1      -8.971  15.291  67.284  1.00  0.00    -0.179 OA 
HETATM   37  C   UNL     1     -10.952  14.880  68.601  1.00  0.00    -0.257 C  
HETATM   38  O   UNL     1     -11.798  12.642  68.991  1.00  0.00    -0.296 OA 
HETATM   39  H   UNL     1      -8.453  15.358  68.078  1.00  0.00     0.000 HD 
HETATM   40  O   UNL     1     -10.180  14.838  69.776  1.00  0.00    -0.423 OA 
HETATM   41  C   UNL     1     -11.129  13.453  68.057  1.00  0.00    -0.255 C  
HETATM   42  H   UNL     1     -10.592  14.306  70.447  1.00  0.00     0.000 HD 
BRANCH  33  43
HETATM   43  C   UNL     1     -10.558  16.492  65.076  1.00  0.00    -0.144 C  
HETATM   44  O   UNL     1     -11.512  16.704  64.070  1.00  0.00    -1.523 OA 
HETATM   45  H   UNL     1     -11.159  17.234  63.367  1.00  0.00     0.000 HD 
ENDBRANCH  33  43
ENDBRANCH  30  31
ENDBRANCH  29  30
BRANCH  29  46
HETATM   46  C   UNL     1     -11.268  11.409  63.954  1.00  0.00    -0.280 C  
HETATM   47  O   UNL     1     -10.214  11.635  63.047  1.00  0.00    -0.590 OA 
HETATM   48  H   UNL     1     -10.482  11.442  62.158  1.00  0.00     0.000 HD 
BRANCH  46  49
HETATM   49  C   UNL     1     -12.581  12.090  63.504  1.00  0.00    -0.507 C  
HETATM   50  H   UNL     1     -13.169  13.861  62.922  1.00  0.00     0.000 HD 
HETATM   51  O   UNL     1     -12.362  13.442  63.198  1.00  0.00    -0.668 OA 
ENDBRANCH  46  49
ENDBRANCH  29  46
ENDBRANCH  26  29
ENDBRANCH  23  26
ENDBRANCH  21  23
ENDBRANCH  20  21
ENDBRANCH  19  20
ENDBRANCH  18  19
ENDBRANCH  16  18
ENDBRANCH  13  16
ENDBRANCH  10  13
ENDBRANCH   7  10
ENDBRANCH   4   7
ENDBRANCH   2   4
TORSDOF 17
ENDMDL
MODEL       14
REMARK 921   NORMALIZED FREE ENERGY PREDICTED BY IDOCK:   -6.04 KCAL/MOL
REMARK 922        TOTAL FREE ENERGY PREDICTED BY IDOCK:  -15.48 KCAL/MOL
REMARK 923 INTER-LIGAND FREE ENERGY PREDICTED BY IDOCK:  -11.97 KCAL/MOL
REMARK 924 INTRA-LIGAND FREE ENERGY PREDICTED BY IDOCK:   -3.51 KCAL/MOL
REMARK 927      BINDING AFFINITY PREDICTED BY RF-SCORE:    0.00 PKD
ROOT
HETATM    1  O   UNL     1      -9.605  20.769  66.567  1.00  0.00    -0.639 OA 
HETATM    2  C   UNL     1     -10.378  19.638  66.269  1.00  0.00    -0.518 C  
HETATM    3  H   UNL     1     -10.107  21.555  66.387  1.00  0.00     0.000 HD 
ENDROOT
BRANCH   2   4
HETATM    4  C   UNL     1      -9.566  18.365  66.559  1.00  0.00    -0.327 C  
HETATM    5  O   UNL     1      -8.330  18.441  65.895  1.00  0.00    -0.502 OA 
HETATM    6  H   UNL     1      -7.828  17.654  66.074  1.00  0.00     0.000 HD 
BRANCH   4   7
HETATM    7  C   UNL     1      -9.325  18.177  68.080  1.00  0.00    -0.288 C  
HETATM    8  H   UNL     1     -10.045  18.899  69.736  1.00  0.00     0.000 HD 
HETATM    9  O   UNL     1     -10.193  19.014  68.804  1.00  0.00    -0.384 OA 
BRANCH   7  10
HETATM   10  C   UNL     1      -9.551  16.708  68.527  1.00  0.00    -0.241 C  
HETATM   11  H   UNL     1      -8.975  14.963  67.930  1.00  0.00     0.000 HD 
HETATM   12  O   UNL     1      -8.836  15.863  67.657  1.00  0.00    -0.172 OA 
BRANCH  10  13
HETATM   13  C   UNL     1     -11.046  16.284  68.525  1.00  0.00    -0.368 C  
HETATM   14  H   UNL     1     -12.255  15.340  67.333  1.00  0.00     0.000 HD 
HETATM   15  O   UNL     1     -11.341  15.600  67.334  1.00  0.00    -0.281 OA 
BRANCH  13  16
HETATM   16  C   UNL     1     -11.416  15.384  69.681  1.00  0.00    -0.320 C  
HETATM   17  O   UNL     1     -10.850  15.516  70.755  1.00  0.00    -0.329 OA 
BRANCH  16  18
HETATM   18  O   UNL     1     -12.355  14.427  69.546  1.00  0.00    -0.305 OA 
BRANCH  18  19
HETATM   19 CA   UNL     1     -12.931  13.645  67.329  1.00  0.00    -0.244 Ca 
BRANCH  19  20
HETATM   20  O   UNL     1     -13.507  12.864  65.112  1.00  0.00    -0.461 OA 
BRANCH  20  21
HETATM   21  C   UNL     1     -12.397  12.857  64.355  1.00  0.00    -0.398 C  
HETATM   22  O   UNL     1     -12.526  13.019  63.153  1.00  0.00    -0.660 OA 
BRANCH  21  23
HETATM   23  C   UNL     1     -11.046  12.489  64.924  1.00  0.00    -0.299 C  
HETATM   24  H   UNL     1      -9.303  13.314  65.024  1.00  0.00     0.000 HD 
HETATM   25  O   UNL     1     -10.152  13.545  64.666  1.00  0.00    -0.344 OA 
BRANCH  23  26
HETATM   26  C   UNL     1     -10.442  11.165  64.365  1.00  0.00    -0.353 C  
HETATM   27  H   UNL     1      -9.075  10.662  63.085  1.00  0.00     0.000 HD 
HETATM   28  O   UNL     1      -9.442  11.469  63.426  1.00  0.00    -0.287 OA 
BRANCH  26  29
HETATM   29  C   UNL     1      -9.891  10.130  65.405  1.00  0.00    -0.307 C  
BRANCH  29  30
HETATM   30  O   UNL     1     -10.929   9.919  66.351  1.00  0.00     0.069 OA 
BRANCH  30  31
HETATM   31  C   UNL     1     -10.528   9.875  67.705  1.00  0.00    -0.242 C  
HETATM   32  O   UNL     1     -10.854   8.616  68.270  1.00  0.00    -0.098 OA 
HETATM   33  C   UNL     1     -10.443   8.553  69.627  1.00  0.00    -0.221 C  
HETATM   34  H   UNL     1     -11.477  12.954  68.337  1.00  0.00     0.000 HD 
HETATM   35  C   UNL     1     -11.261   9.556  70.480  1.00  0.00    -0.287 C  
HETATM   36  O   UNL     1     -12.636   9.268  70.397  1.00  0.00    -0.458 OA 
HETATM   37  C   UNL     1     -10.994  10.978  69.945  1.00  0.00    -0.150 C  
HETATM   38  O   UNL     1     -11.004  12.263  67.888  1.00  0.00    -0.206 OA 
HETATM   39  H   UNL     1     -13.137   9.883  70.919  1.00  0.00     0.000 HD 
HETATM   40  O   UNL     1     -11.791  11.937  70.596  1.00  0.00    -0.479 OA 
HETATM   41  C   UNL     1     -11.299  11.002  68.438  1.00  0.00    -0.295 C  
HETATM   42  H   UNL     1     -11.626  12.812  70.266  1.00  0.00     0.000 HD 
BRANCH  33  43
HETATM   43  C   UNL     1     -10.618   7.104  70.108  1.00  0.00    -0.230 C  
HETATM   44  O   UNL     1     -11.809   6.546  69.620  1.00  0.00    -0.645 OA 
HETATM   45  H   UNL     1     -11.917   5.651  69.917  1.00  0.00     0.000 HD 
ENDBRANCH  33  43
ENDBRANCH  30  31
ENDBRANCH  29  30
BRANCH  29  46
HETATM   46  C   UNL     1      -8.532  10.506  66.094  1.00  0.00    -0.153 C  
HETATM   47  O   UNL     1      -8.164  11.833  65.794  1.00  0.00    -0.354 OA 
HETATM   48  H   UNL     1      -7.343  12.061  66.211  1.00  0.00     0.000 HD 
BRANCH  46  49
HETATM   49  C   UNL     1      -7.376   9.509  65.850  1.00  0.00    -0.097 C  
HETATM   50  H   UNL     1      -5.543   9.554  65.170  1.00  0.00     0.000 HD 
HETATM   51  O   UNL     1      -6.254  10.167  65.321  1.00  0.00    -0.100 OA 
ENDBRANCH  46  49
ENDBRANCH  29  46
ENDBRANCH  26  29
ENDBRANCH  23  26
ENDBRANCH  21  23
ENDBRANCH  20  21
ENDBRANCH  19  20
ENDBRANCH  18  19
ENDBRANCH  16  18
ENDBRANCH  13  16
ENDBRANCH  10  13
ENDBRANCH   7  10
ENDBRANCH   4   7
ENDBRANCH   2   4
TORSDOF 17
ENDMDL
MODEL       15
REMARK 921   NORMALIZED FREE ENERGY PREDICTED BY IDOCK:   -6.02 KCAL/MOL
REMARK 922        TOTAL FREE ENERGY PREDICTED BY IDOCK:  -15.45 KCAL/MOL
REMARK 923 INTER-LIGAND FREE ENERGY PREDICTED BY IDOCK:  -12.90 KCAL/MOL
REMARK 924 INTRA-LIGAND FREE ENERGY PREDICTED BY IDOCK:   -2.55 KCAL/MOL
REMARK 927      BINDING AFFINITY PREDICTED BY RF-SCORE:    0.00 PKD
ROOT
HETATM    1  O   UNL     1     -10.708   6.258  72.656  1.00  0.00    -0.211 OA 
HETATM    2  C   UNL     1     -10.967   6.689  71.348  1.00  0.00    -0.250 C  
HETATM    3  H   UNL     1     -10.004   5.619  72.649  1.00  0.00     0.000 HD 
ENDROOT
BRANCH   2   4
HETATM    4  C   UNL     1     -12.107   7.723  71.360  1.00  0.00    -0.311 C  
HETATM    5  O   UNL     1     -13.115   7.292  72.240  1.00  0.00    -0.507 OA 
HETATM    6  H   UNL     1     -13.818   7.931  72.248  1.00  0.00     0.000 HD 
BRANCH   4   7
HETATM    7  C   UNL     1     -11.601   9.123  71.799  1.00  0.00    -0.387 C  
HETATM    8  H   UNL     1     -10.132  10.312  71.344  1.00  0.00     0.000 HD 
HETATM    9  O   UNL     1     -10.441   9.455  71.076  1.00  0.00    -0.283 OA 
BRANCH   7  10
HETATM   10  C   UNL     1     -12.671  10.223  71.570  1.00  0.00    -0.452 C  
HETATM   11  H   UNL     1     -14.476  10.295  70.886  1.00  0.00     0.000 HD 
HETATM   12  O   UNL     1     -13.821   9.621  71.026  1.00  0.00    -0.219 OA 
BRANCH  10  13
HETATM   13  C   UNL     1     -12.199  11.357  70.618  1.00  0.00    -0.389 C  
HETATM   14  H   UNL     1     -12.325  11.768  68.724  1.00  0.00     0.000 HD 
HETATM   15  O   UNL     1     -12.614  11.075  69.306  1.00  0.00    -0.361 OA 
BRANCH  13  16
HETATM   16  C   UNL     1     -12.738  12.718  70.992  1.00  0.00    -0.243 C  
HETATM   17  O   UNL     1     -13.457  12.836  71.972  1.00  0.00    -0.495 OA 
BRANCH  16  18
HETATM   18  O   UNL     1     -12.447  13.808  70.255  1.00  0.00    -0.326 OA 
BRANCH  18  19
HETATM   19 CA   UNL     1     -12.884  13.773  67.875  1.00  0.00    -0.376 Ca 
BRANCH  19  20
HETATM   20  O   UNL     1     -13.321  13.737  65.495  1.00  0.00    -0.613 OA 
BRANCH  20  21
HETATM   21  C   UNL     1     -12.291  14.321  64.859  1.00  0.00    -0.425 C  
HETATM   22  O   UNL     1     -12.524  14.907  63.815  1.00  0.00    -0.768 OA 
BRANCH  21  23
HETATM   23  C   UNL     1     -10.861  14.121  65.307  1.00  0.00    -0.349 C  
HETATM   24  H   UNL     1      -9.505  12.765  65.081  1.00  0.00     0.000 HD 
HETATM   25  O   UNL     1     -10.404  12.891  64.800  1.00  0.00    -0.313 OA 
BRANCH  23  26
HETATM   26  C   UNL     1     -10.654  14.142  66.852  1.00  0.00    -0.280 C  
HETATM   27  H   UNL     1     -10.475  12.837  68.275  1.00  0.00     0.000 HD 
HETATM   28  O   UNL     1     -10.601  12.824  67.333  1.00  0.00    -0.226 OA 
BRANCH  26  29
HETATM   29  C   UNL     1      -9.431  14.953  67.403  1.00  0.00    -0.206 C  
BRANCH  29  30
HETATM   30  O   UNL     1      -8.803  15.548  66.276  1.00  0.00    -0.306 OA 
BRANCH  30  31
HETATM   31  C   UNL     1      -8.505  16.925  66.393  1.00  0.00    -0.290 C  
HETATM   32  O   UNL     1      -7.849  17.179  67.624  1.00  0.00    -0.173 OA 
HETATM   33  C   UNL     1      -7.530  18.557  67.747  1.00  0.00    -0.230 C  
HETATM   34  H   UNL     1     -11.366  17.898  65.110  1.00  0.00     0.000 HD 
HETATM   35  C   UNL     1      -8.829  19.398  67.849  1.00  0.00    -0.316 C  
HETATM   36  O   UNL     1      -9.592  18.995  68.960  1.00  0.00    -0.364 OA 
HETATM   37  C   UNL     1      -9.643  19.189  66.555  1.00  0.00    -0.355 C  
HETATM   38  O   UNL     1     -10.538  17.435  65.139  1.00  0.00    -0.681 OA 
HETATM   39  H   UNL     1     -10.388  19.510  69.022  1.00  0.00     0.000 HD 
HETATM   40  O   UNL     1     -10.893  19.831  66.618  1.00  0.00    -0.467 OA 
HETATM   41  C   UNL     1      -9.857  17.681  66.346  1.00  0.00    -0.309 C  
HETATM   42  H   UNL     1     -11.394  19.703  65.821  1.00  0.00     0.000 HD 
BRANCH  33  43
HETATM   43  C   UNL     1      -6.632  18.726  68.982  1.00  0.00    -0.283 C  
HETATM   44  O   UNL     1      -6.979  19.873  69.711  1.00  0.00    -0.308 OA 
HETATM   45  H   UNL     1      -6.424  19.978  70.475  1.00  0.00     0.000 HD 
ENDBRANCH  33  43
ENDBRANCH  30  31
ENDBRANCH  29  30
BRANCH  29  46
HETATM   46  C   UNL     1      -8.415  14.148  68.288  1.00  0.00    -0.169 C  
HETATM   47  O   UNL     1      -8.131  14.836  69.484  1.00  0.00    -0.372 OA 
HETATM   48  H   UNL     1      -7.517  14.348  70.019  1.00  0.00     0.000 HD 
BRANCH  46  49
HETATM   49  C   UNL     1      -7.132  13.688  67.557  1.00  0.00    -0.152 C  
HETATM   50  H   UNL     1      -6.479  12.089  66.643  1.00  0.00     0.000 HD 
HETATM   51  O   UNL     1      -7.268  12.371  67.092  1.00  0.00    -0.141 OA 
ENDBRANCH  46  49
ENDBRANCH  29  46
ENDBRANCH  26  29
ENDBRANCH  23  26
ENDBRANCH  21  23
ENDBRANCH  20  21
ENDBRANCH  19  20
ENDBRANCH  18  19
ENDBRANCH  16  18
ENDBRANCH  13  16
ENDBRANCH  10  13
ENDBRANCH   7  10
ENDBRANCH   4   7
ENDBRANCH   2   4
TORSDOF 17
ENDMDL
MODEL       16
REMARK 921   NORMALIZED FREE ENERGY PREDICTED BY IDOCK:   -6.02 KCAL/MOL
REMARK 922        TOTAL FREE ENERGY PREDICTED BY IDOCK:  -15.44 KCAL/MOL
REMARK 923 INTER-LIGAND FREE ENERGY PREDICTED BY IDOCK:  -12.07 KCAL/MOL
REMARK 924 INTRA-LIGAND FREE ENERGY PREDICTED BY IDOCK:   -3.37 KCAL/MOL
REMARK 927      BINDING AFFINITY PREDICTED BY RF-SCORE:    0.00 PKD
ROOT
HETATM    1  O   UNL     1     -14.214   8.768  73.064  1.00  0.00    -1.075 OA 
HETATM    2  C   UNL     1     -14.095   8.429  71.709  1.00  0.00    -0.438 C  
HETATM    3  H   UNL     1     -14.970   8.330  73.438  1.00  0.00     0.000 HD 
ENDROOT
BRANCH   2   4
HETATM    4  C   UNL     1     -12.872   9.137  71.103  1.00  0.00    -0.195 C  
HETATM    5  O   UNL     1     -12.597  10.301  71.842  1.00  0.00    -0.400 OA 
HETATM    6  H   UNL     1     -11.841  10.739  71.467  1.00  0.00     0.000 HD 
BRANCH   4   7
HETATM    7  C   UNL     1     -11.623   8.218  71.103  1.00  0.00    -0.279 C  
HETATM    8  H   UNL     1     -10.095   7.892  69.945  1.00  0.00     0.000 HD 
HETATM    9  O   UNL     1     -10.860   8.455  69.945  1.00  0.00    -0.240 OA 
BRANCH   7  10
HETATM   10  C   UNL     1     -10.731   8.450  72.351  1.00  0.00    -0.335 C  
HETATM   11  H   UNL     1      -8.977   9.180  72.698  1.00  0.00     0.000 HD 
HETATM   12  O   UNL     1      -9.523   9.038  71.933  1.00  0.00    -0.313 OA 
BRANCH  10  13
HETATM   13  C   UNL     1     -10.411   7.147  73.135  1.00  0.00    -0.321 C  
HETATM   14  H   UNL     1     -11.320   5.484  73.561  1.00  0.00     0.000 HD 
HETATM   15  O   UNL     1     -11.516   6.281  73.082  1.00  0.00    -0.098 OA 
BRANCH  13  16
HETATM   16  C   UNL     1      -9.212   6.402  72.596  1.00  0.00    -0.138 C  
HETATM   17  O   UNL     1      -8.166   6.404  73.226  1.00  0.00    -0.114 OA 
BRANCH  16  18
HETATM   18  O   UNL     1      -9.272   5.741  71.423  1.00  0.00    -0.142 OA 
BRANCH  18  19
HETATM   19 CA   UNL     1      -8.840   6.946  69.369  1.00  0.00    -0.125 Ca 
BRANCH  19  20
HETATM   20  O   UNL     1      -8.408   8.150  67.315  1.00  0.00    -0.119 OA 
BRANCH  20  21
HETATM   21  C   UNL     1      -9.571   8.325  66.664  1.00  0.00    -0.233 C  
HETATM   22  O   UNL     1     -10.460   7.513  66.857  1.00  0.00    -0.309 OA 
BRANCH  21  23
HETATM   23  C   UNL     1      -9.734   9.380  65.593  1.00  0.00    -0.266 C  
HETATM   24  H   UNL     1      -8.933   9.761  63.878  1.00  0.00     0.000 HD 
HETATM   25  O   UNL     1      -8.831   9.099  64.551  1.00  0.00    -0.189 OA 
BRANCH  23  26
HETATM   26  C   UNL     1      -9.508  10.843  66.081  1.00  0.00    -0.200 C  
HETATM   27  H   UNL     1      -8.033  12.099  66.155  1.00  0.00     0.000 HD 
HETATM   28  O   UNL     1      -8.170  11.207  65.857  1.00  0.00    -0.141 OA 
BRANCH  26  29
HETATM   29  C   UNL     1     -10.458  11.949  65.504  1.00  0.00    -0.268 C  
BRANCH  29  30
HETATM   30  O   UNL     1     -11.683  11.836  66.214  1.00  0.00    -0.482 OA 
BRANCH  30  31
HETATM   31  C   UNL     1     -11.991  12.908  67.083  1.00  0.00    -0.310 C  
HETATM   32  O   UNL     1     -11.115  13.997  66.843  1.00  0.00    -0.294 OA 
HETATM   33  C   UNL     1     -11.423  15.086  67.700  1.00  0.00    -0.333 C  
HETATM   34  H   UNL     1     -12.532  10.967  69.675  1.00  0.00     0.000 HD 
HETATM   35  C   UNL     1     -11.131  14.704  69.174  1.00  0.00    -0.268 C  
HETATM   36  O   UNL     1      -9.778  14.354  69.335  1.00  0.00    -0.416 OA 
HETATM   37  C   UNL     1     -12.028  13.507  69.551  1.00  0.00    -0.334 C  
HETATM   38  O   UNL     1     -12.648  11.289  68.789  1.00  0.00    -0.312 OA 
HETATM   39  H   UNL     1      -9.600  14.120  70.238  1.00  0.00     0.000 HD 
HETATM   40  O   UNL     1     -11.740  13.028  70.841  1.00  0.00    -0.376 OA 
HETATM   41  C   UNL     1     -11.800  12.381  68.528  1.00  0.00    -0.304 C  
HETATM   42  H   UNL     1     -12.292  12.291  71.073  1.00  0.00     0.000 HD 
BRANCH  33  43
HETATM   43  C   UNL     1     -10.597  16.298  67.240  1.00  0.00    -0.298 C  
HETATM   44  O   UNL     1      -9.225  16.007  67.237  1.00  0.00    -0.202 OA 
HETATM   45  H   UNL     1      -8.715  16.756  66.952  1.00  0.00     0.000 HD 
ENDBRANCH  33  43
ENDBRANCH  30  31
ENDBRANCH  29  30
BRANCH  29  46
HETATM   46  C   UNL     1     -10.674  11.926  63.949  1.00  0.00    -0.395 C  
HETATM   47  O   UNL     1      -9.443  11.997  63.268  1.00  0.00    -0.628 OA 
HETATM   48  H   UNL     1      -9.573  11.983  62.327  1.00  0.00     0.000 HD 
BRANCH  46  49
HETATM   49  C   UNL     1     -11.699  12.953  63.415  1.00  0.00    -0.461 C  
HETATM   50  H   UNL     1     -13.615  13.023  63.033  1.00  0.00     0.000 HD 
HETATM   51  O   UNL     1     -12.984  12.392  63.361  1.00  0.00    -0.723 OA 
ENDBRANCH  46  49
ENDBRANCH  29  46
ENDBRANCH  26  29
ENDBRANCH  23  26
ENDBRANCH  21  23
ENDBRANCH  20  21
ENDBRANCH  19  20
ENDBRANCH  18  19
ENDBRANCH  16  18
ENDBRANCH  13  16
ENDBRANCH  10  13
ENDBRANCH   7  10
ENDBRANCH   4   7
ENDBRANCH   2   4
TORSDOF 17
ENDMDL
MODEL       17
REMARK 921   NORMALIZED FREE ENERGY PREDICTED BY IDOCK:   -6.02 KCAL/MOL
REMARK 922        TOTAL FREE ENERGY PREDICTED BY IDOCK:  -15.44 KCAL/MOL
REMARK 923 INTER-LIGAND FREE ENERGY PREDICTED BY IDOCK:  -11.52 KCAL/MOL
REMARK 924 INTRA-LIGAND FREE ENERGY PREDICTED BY IDOCK:   -3.92 KCAL/MOL
REMARK 927      BINDING AFFINITY PREDICTED BY RF-SCORE:    0.00 PKD
ROOT
HETATM    1  O   UNL     1     -13.626   7.421  70.779  1.00  0.00    -0.603 OA 
HETATM    2  C   UNL     1     -12.563   7.610  71.673  1.00  0.00    -0.339 C  
HETATM    3  H   UNL     1     -14.379   7.077  71.245  1.00  0.00     0.000 HD 
ENDROOT
BRANCH   2   4
HETATM    4  C   UNL     1     -11.345   8.168  70.917  1.00  0.00    -0.268 C  
HETATM    5  O   UNL     1     -10.464   8.766  71.835  1.00  0.00    -0.307 OA 
HETATM    6  H   UNL     1      -9.711   9.111  71.368  1.00  0.00     0.000 HD 
BRANCH   4   7
HETATM    7  C   UNL     1     -10.599   7.053  70.137  1.00  0.00    -0.228 C  
HETATM    8  H   UNL     1     -11.076   5.491  69.082  1.00  0.00     0.000 HD 
HETATM    9  O   UNL     1     -11.533   6.173  69.560  1.00  0.00    -0.429 OA 
BRANCH   7  10
HETATM   10  C   UNL     1      -9.695   7.635  69.017  1.00  0.00    -0.160 C  
HETATM   11  H   UNL     1      -8.685   9.258  68.740  1.00  0.00     0.000 HD 
HETATM   12  O   UNL     1      -9.239   8.902  69.426  1.00  0.00    -0.143 OA 
BRANCH  10  13
HETATM   13  C   UNL     1     -10.418   7.778  67.650  1.00  0.00    -0.239 C  
HETATM   14  H   UNL     1     -11.382   9.163  66.688  1.00  0.00     0.000 HD 
HETATM   15  O   UNL     1     -10.940   9.076  67.525  1.00  0.00    -0.152 OA 
BRANCH  13  16
HETATM   16  C   UNL     1      -9.517   7.523  66.465  1.00  0.00    -0.179 C  
HETATM   17  O   UNL     1      -9.025   6.417  66.304  1.00  0.00    -0.150 OA 
BRANCH  16  18
HETATM   18  O   UNL     1      -9.234   8.502  65.582  1.00  0.00    -0.178 OA 
BRANCH  18  19
HETATM   19 CA   UNL     1     -10.667  10.449  65.481  1.00  0.00    -0.257 Ca 
BRANCH  19  20
HETATM   20  O   UNL     1     -12.101  12.396  65.381  1.00  0.00    -0.448 OA 
BRANCH  20  21
HETATM   21  C   UNL     1     -11.402  13.421  64.864  1.00  0.00    -0.328 C  
HETATM   22  O   UNL     1     -10.273  13.197  64.462  1.00  0.00    -0.368 OA 
BRANCH  21  23
HETATM   23  C   UNL     1     -11.909  14.844  64.929  1.00  0.00    -0.337 C  
HETATM   24  H   UNL     1     -13.085  15.955  63.876  1.00  0.00     0.000 HD 
HETATM   25  O   UNL     1     -12.767  15.061  63.835  1.00  0.00    -0.775 OA 
BRANCH  23  26
HETATM   26  C   UNL     1     -10.793  15.933  64.923  1.00  0.00    -0.400 C  
HETATM   27  H   UNL     1     -10.625  17.786  64.376  1.00  0.00     0.000 HD 
HETATM   28  O   UNL     1     -11.305  17.122  64.379  1.00  0.00    -1.115 OA 
BRANCH  26  29
HETATM   29  C   UNL     1     -10.082  16.242  66.286  1.00  0.00    -0.324 C  
BRANCH  29  30
HETATM   30  O   UNL     1     -10.839  15.585  67.292  1.00  0.00    -0.309 OA 
BRANCH  30  31
HETATM   31  C   UNL     1     -10.145  14.615  68.051  1.00  0.00    -0.227 C  
HETATM   32  O   UNL     1      -8.993  14.179  67.348  1.00  0.00    -0.183 OA 
HETATM   33  C   UNL     1      -8.277  13.216  68.105  1.00  0.00    -0.160 C  
HETATM   34  H   UNL     1     -12.876  13.109  69.075  1.00  0.00     0.000 HD 
HETATM   35  C   UNL     1      -9.120  11.923  68.257  1.00  0.00    -0.183 C  
HETATM   36  O   UNL     1      -9.431  11.385  66.994  1.00  0.00    -0.171 OA 
HETATM   37  C   UNL     1     -10.421  12.279  69.006  1.00  0.00    -0.015 C  
HETATM   38  O   UNL     1     -12.279  13.836  68.945  1.00  0.00    -0.344 OA 
HETATM   39  H   UNL     1      -9.947  10.594  67.088  1.00  0.00     0.000 HD 
HETATM   40  O   UNL     1     -11.294  11.178  69.083  1.00  0.00    -0.223 OA 
HETATM   41  C   UNL     1     -11.119  13.429  68.261  1.00  0.00    -0.262 C  
HETATM   42  H   UNL     1     -12.094  11.397  69.545  1.00  0.00     0.000 HD 
BRANCH  33  43
HETATM   43  C   UNL     1      -6.939  12.956  67.397  1.00  0.00    -0.124 C  
HETATM   44  O   UNL     1      -6.259  14.154  67.135  1.00  0.00    -0.351 OA 
HETATM   45  H   UNL     1      -5.432  13.993  66.698  1.00  0.00     0.000 HD 
ENDBRANCH  33  43
ENDBRANCH  30  31
ENDBRANCH  29  30
BRANCH  29  46
HETATM   46  C   UNL     1      -9.856  17.760  66.614  1.00  0.00    -0.322 C  
HETATM   47  O   UNL     1      -9.081  18.382  65.616  1.00  0.00    -0.272 OA 
HETATM   48  H   UNL     1      -8.945  19.301  65.815  1.00  0.00     0.000 HD 
BRANCH  46  49
HETATM   49  C   UNL     1      -9.322  18.050  68.036  1.00  0.00    -0.272 C  
HETATM   50  H   UNL     1      -9.927  18.970  69.651  1.00  0.00     0.000 HD 
HETATM   51  O   UNL     1     -10.255  18.791  68.778  1.00  0.00    -0.374 OA 
ENDBRANCH  46  49
ENDBRANCH  29  46
ENDBRANCH  26  29
ENDBRANCH  23  26
ENDBRANCH  21  23
ENDBRANCH  20  21
ENDBRANCH  19  20
ENDBRANCH  18  19
ENDBRANCH  16  18
ENDBRANCH  13  16
ENDBRANCH  10  13
ENDBRANCH   7  10
ENDBRANCH   4   7
ENDBRANCH   2   4
TORSDOF 17
ENDMDL
MODEL       18
REMARK 921   NORMALIZED FREE ENERGY PREDICTED BY IDOCK:   -6.01 KCAL/MOL
REMARK 922        TOTAL FREE ENERGY PREDICTED BY IDOCK:  -15.43 KCAL/MOL
REMARK 923 INTER-LIGAND FREE ENERGY PREDICTED BY IDOCK:  -11.08 KCAL/MOL
REMARK 924 INTRA-LIGAND FREE ENERGY PREDICTED BY IDOCK:   -4.36 KCAL/MOL
REMARK 927      BINDING AFFINITY PREDICTED BY RF-SCORE:    0.00 PKD
ROOT
HETATM    1  O   UNL     1     -14.176  15.514  70.765  1.00  0.00    -0.863 OA 
HETATM    2  C   UNL     1     -13.164  15.025  71.602  1.00  0.00    -0.377 C  
HETATM    3  H   UNL     1     -14.857  15.918  71.289  1.00  0.00     0.000 HD 
ENDROOT
BRANCH   2   4
HETATM    4  C   UNL     1     -12.061  14.370  70.753  1.00  0.00    -0.338 C  
HETATM    5  O   UNL     1     -12.160  12.972  70.860  1.00  0.00    -0.463 OA 
HETATM    6  H   UNL     1     -11.478  12.568  70.336  1.00  0.00     0.000 HD 
BRANCH   4   7
HETATM    7  C   UNL     1     -12.169  14.783  69.261  1.00  0.00    -0.199 C  
HETATM    8  H   UNL     1     -11.480  16.201  68.123  1.00  0.00     0.000 HD 
HETATM    9  O   UNL     1     -11.413  15.948  69.036  1.00  0.00    -0.341 OA 
BRANCH   7  10
HETATM   10  C   UNL     1     -11.667  13.663  68.311  1.00  0.00    -0.363 C  
HETATM   11  H   UNL     1     -10.000  12.739  68.002  1.00  0.00     0.000 HD 
HETATM   12  O   UNL     1     -10.307  13.425  68.584  1.00  0.00    -0.240 OA 
BRANCH  10  13
HETATM   13  C   UNL     1     -11.825  14.012  66.806  1.00  0.00    -0.424 C  
HETATM   14  H   UNL     1     -10.708  14.726  65.386  1.00  0.00     0.000 HD 
HETATM   15  O   UNL     1     -10.611  14.513  66.307  1.00  0.00    -0.292 OA 
BRANCH  13  16
HETATM   16  C   UNL     1     -12.224  12.830  65.954  1.00  0.00    -0.359 C  
HETATM   17  O   UNL     1     -12.989  12.990  65.016  1.00  0.00    -0.723 OA 
BRANCH  16  18
HETATM   18  O   UNL     1     -11.758  11.593  66.219  1.00  0.00    -0.443 OA 
BRANCH  18  19
HETATM   19 CA   UNL     1     -11.361  10.949  68.518  1.00  0.00    -0.182 Ca 
BRANCH  19  20
HETATM   20  O   UNL     1     -10.965  10.306  70.816  1.00  0.00    -0.306 OA 
BRANCH  20  21
HETATM   21  C   UNL     1     -12.044   9.648  71.273  1.00  0.00    -0.371 C  
HETATM   22  O   UNL     1     -12.891  10.288  71.873  1.00  0.00    -0.425 OA 
BRANCH  21  23
HETATM   23  C   UNL     1     -12.143   8.140  71.212  1.00  0.00    -0.288 C  
HETATM   24  H   UNL     1     -13.347   6.793  71.892  1.00  0.00     0.000 HD 
HETATM   25  O   UNL     1     -13.285   7.740  71.930  1.00  0.00    -0.314 OA 
BRANCH  23  26
HETATM   26  C   UNL     1     -10.900   7.383  71.770  1.00  0.00    -0.223 C  
HETATM   27  H   UNL     1     -10.533   6.124  73.199  1.00  0.00     0.000 HD 
HETATM   28  O   UNL     1     -11.291   6.585  72.858  1.00  0.00    -0.230 OA 
BRANCH  26  29
HETATM   29  C   UNL     1     -10.068   6.522  70.759  1.00  0.00    -0.185 C  
BRANCH  29  30
HETATM   30  O   UNL     1     -10.519   6.879  69.460  1.00  0.00    -0.205 OA 
BRANCH  30  31
HETATM   31  C   UNL     1      -9.537   7.403  68.590  1.00  0.00    -0.146 C  
HETATM   32  O   UNL     1      -8.794   8.416  69.246  1.00  0.00    -0.140 OA 
HETATM   33  C   UNL     1      -7.793   8.941  68.387  1.00  0.00    -0.104 C  
HETATM   34  H   UNL     1     -11.508   7.384  65.964  1.00  0.00     0.000 HD 
HETATM   35  C   UNL     1      -8.449   9.687  67.197  1.00  0.00    -0.131 C  
HETATM   36  O   UNL     1      -9.262  10.738  67.661  1.00  0.00    -0.146 OA 
HETATM   37  C   UNL     1      -9.305   8.677  66.405  1.00  0.00    -0.211 C  
HETATM   38  O   UNL     1     -11.048   7.018  66.710  1.00  0.00    -0.289 OA 
HETATM   39  H   UNL     1      -9.664  11.194  66.932  1.00  0.00     0.000 HD 
HETATM   40  O   UNL     1     -10.026   9.304  65.372  1.00  0.00    -0.438 OA 
HETATM   41  C   UNL     1     -10.289   8.000  67.373  1.00  0.00    -0.284 C  
HETATM   42  H   UNL     1     -10.552   8.681  64.885  1.00  0.00     0.000 HD 
BRANCH  33  43
HETATM   43  C   UNL     1      -6.889   9.862  69.222  1.00  0.00    -0.057 C  
HETATM   44  O   UNL     1      -7.637  10.843  69.888  1.00  0.00    -0.359 OA 
HETATM   45  H   UNL     1      -7.078  11.412  70.403  1.00  0.00     0.000 HD 
ENDBRANCH  33  43
ENDBRANCH  30  31
ENDBRANCH  29  30
BRANCH  29  46
HETATM   46  C   UNL     1     -10.101   4.970  70.989  1.00  0.00    -0.227 C  
HETATM   47  O   UNL     1      -9.348   4.611  72.124  1.00  0.00    -0.131 OA 
HETATM   48  H   UNL     1      -9.369   3.672  72.263  1.00  0.00     0.000 HD 
BRANCH  46  49
HETATM   49  C   UNL     1      -9.736   4.117  69.751  1.00  0.00    -0.208 C  
HETATM   50  H   UNL     1      -8.138   3.304  68.972  1.00  0.00     0.000 HD 
HETATM   51  O   UNL     1      -8.363   3.828  69.733  1.00  0.00    -0.053 OA 
ENDBRANCH  46  49
ENDBRANCH  29  46
ENDBRANCH  26  29
ENDBRANCH  23  26
ENDBRANCH  21  23
ENDBRANCH  20  21
ENDBRANCH  19  20
ENDBRANCH  18  19
ENDBRANCH  16  18
ENDBRANCH  13  16
ENDBRANCH  10  13
ENDBRANCH   7  10
ENDBRANCH   4   7
ENDBRANCH   2   4
TORSDOF 17
ENDMDL
MODEL       19
REMARK 921   NORMALIZED FREE ENERGY PREDICTED BY IDOCK:   -6.01 KCAL/MOL
REMARK 922        TOTAL FREE ENERGY PREDICTED BY IDOCK:  -15.41 KCAL/MOL
REMARK 923 INTER-LIGAND FREE ENERGY PREDICTED BY IDOCK:  -13.49 KCAL/MOL
REMARK 924 INTRA-LIGAND FREE ENERGY PREDICTED BY IDOCK:   -1.93 KCAL/MOL
REMARK 927      BINDING AFFINITY PREDICTED BY RF-SCORE:    0.00 PKD
ROOT
HETATM    1  O   UNL     1     -11.618   4.688  65.313  1.00  0.00    -1.093 OA 
HETATM    2  C   UNL     1     -10.497   4.667  66.155  1.00  0.00    -0.241 C  
HETATM    3  H   UNL     1     -11.644   3.891  64.796  1.00  0.00     0.000 HD 
ENDROOT
BRANCH   2   4
HETATM    4  C   UNL     1     -10.455   5.956  66.993  1.00  0.00    -0.278 C  
HETATM    5  O   UNL     1     -11.511   6.798  66.603  1.00  0.00    -0.649 OA 
HETATM    6  H   UNL     1     -11.485   7.595  67.120  1.00  0.00     0.000 HD 
BRANCH   4   7
HETATM    7  C   UNL     1     -10.568   5.654  68.510  1.00  0.00    -0.189 C  
HETATM    8  H   UNL     1      -9.443   4.885  69.897  1.00  0.00     0.000 HD 
HETATM    9  O   UNL     1      -9.373   5.070  68.967  1.00  0.00    -0.112 OA 
BRANCH   7  10
HETATM   10  C   UNL     1     -10.852   6.937  69.337  1.00  0.00    -0.249 C  
HETATM   11  H   UNL     1     -10.394   8.809  69.211  1.00  0.00     0.000 HD 
HETATM   12  O   UNL     1     -10.220   8.023  68.705  1.00  0.00    -0.198 OA 
BRANCH  10  13
HETATM   13  C   UNL     1     -10.352   6.849  70.806  1.00  0.00    -0.203 C  
HETATM   14  H   UNL     1      -9.147   7.844  71.959  1.00  0.00     0.000 HD 
HETATM   15  O   UNL     1      -9.453   7.897  71.061  1.00  0.00    -0.154 OA 
BRANCH  13  16
HETATM   16  C   UNL     1     -11.464   6.932  71.825  1.00  0.00    -0.275 C  
HETATM   17  O   UNL     1     -11.435   6.214  72.812  1.00  0.00    -0.254 OA 
BRANCH  16  18
HETATM   18  O   UNL     1     -12.498   7.781  71.659  1.00  0.00    -0.306 OA 
BRANCH  18  19
HETATM   19 CA   UNL     1     -12.100   9.940  70.642  1.00  0.00    -0.239 Ca 
BRANCH  19  20
HETATM   20  O   UNL     1     -11.702  12.100  69.626  1.00  0.00    -0.303 OA 
BRANCH  20  21
HETATM   21  C   UNL     1     -11.840  11.983  68.294  1.00  0.00    -0.287 C  
HETATM   22  O   UNL     1     -12.092  10.879  67.841  1.00  0.00    -0.527 OA 
BRANCH  21  23
HETATM   23  C   UNL     1     -11.525  13.126  67.356  1.00  0.00    -0.332 C  
HETATM   24  H   UNL     1     -11.989  14.996  67.232  1.00  0.00     0.000 HD 
HETATM   25  O   UNL     1     -12.186  14.277  67.821  1.00  0.00    -0.325 OA 
BRANCH  23  26
HETATM   26  C   UNL     1     -11.923  12.877  65.869  1.00  0.00    -0.448 C  
HETATM   27  H   UNL     1     -13.288  13.507  64.644  1.00  0.00     0.000 HD 
HETATM   28  O   UNL     1     -13.045  13.659  65.550  1.00  0.00    -0.639 OA 
BRANCH  26  29
HETATM   29  C   UNL     1     -10.812  13.083  64.783  1.00  0.00    -0.337 C  
BRANCH  29  30
HETATM   30  O   UNL     1     -10.883  14.446  64.390  1.00  0.00    -0.310 OA 
BRANCH  30  31
HETATM   31  C   UNL     1      -9.937  15.309  64.989  1.00  0.00    -0.124 C  
HETATM   32  O   UNL     1      -9.325  14.668  66.096  1.00  0.00    -0.285 OA 
HETATM   33  C   UNL     1      -8.361  15.518  66.698  1.00  0.00    -0.251 C  
HETATM   34  H   UNL     1     -11.818  17.981  64.679  1.00  0.00     0.000 HD 
HETATM   35  C   UNL     1      -9.058  16.749  67.333  1.00  0.00    -0.216 C  
HETATM   36  O   UNL     1      -9.991  16.341  68.304  1.00  0.00    -0.227 OA 
HETATM   37  C   UNL     1      -9.779  17.528  66.214  1.00  0.00    -0.258 C  
HETATM   38  O   UNL     1     -11.343  17.213  64.388  1.00  0.00    -1.115 OA 
HETATM   39  H   UNL     1     -10.418  17.095  68.693  1.00  0.00     0.000 HD 
HETATM   40  O   UNL     1     -10.532  18.599  66.728  1.00  0.00    -0.382 OA 
HETATM   41  C   UNL     1     -10.713  16.563  65.465  1.00  0.00    -0.256 C  
HETATM   42  H   UNL     1     -10.975  19.079  66.038  1.00  0.00     0.000 HD 
BRANCH  33  43
HETATM   43  C   UNL     1      -7.584  14.692  67.735  1.00  0.00    -0.160 C  
HETATM   44  O   UNL     1      -6.464  14.074  67.160  1.00  0.00    -0.403 OA 
HETATM   45  H   UNL     1      -5.984  13.564  67.801  1.00  0.00     0.000 HD 
ENDBRANCH  33  43
ENDBRANCH  30  31
ENDBRANCH  29  30
BRANCH  29  46
HETATM   46  C   UNL     1     -10.867  12.111  63.551  1.00  0.00    -0.458 C  
HETATM   47  O   UNL     1     -12.196  11.904  63.131  1.00  0.00    -0.792 OA 
HETATM   48  H   UNL     1     -12.229  11.317  62.386  1.00  0.00     0.000 HD 
BRANCH  46  49
HETATM   49  C   UNL     1     -10.097  10.783  63.732  1.00  0.00    -0.327 C  
HETATM   50  H   UNL     1      -9.862   9.420  65.113  1.00  0.00     0.000 HD 
HETATM   51  O   UNL     1     -10.336  10.236  65.002  1.00  0.00    -0.288 OA 
ENDBRANCH  46  49
ENDBRANCH  29  46
ENDBRANCH  26  29
ENDBRANCH  23  26
ENDBRANCH  21  23
ENDBRANCH  20  21
ENDBRANCH  19  20
ENDBRANCH  18  19
ENDBRANCH  16  18
ENDBRANCH  13  16
ENDBRANCH  10  13
ENDBRANCH   7  10
ENDBRANCH   4   7
ENDBRANCH   2   4
TORSDOF 17
ENDMDL
MODEL       20
REMARK 921   NORMALIZED FREE ENERGY PREDICTED BY IDOCK:   -5.99 KCAL/MOL
REMARK 922        TOTAL FREE ENERGY PREDICTED BY IDOCK:  -15.39 KCAL/MOL
REMARK 923 INTER-LIGAND FREE ENERGY PREDICTED BY IDOCK:  -12.86 KCAL/MOL
REMARK 924 INTRA-LIGAND FREE ENERGY PREDICTED BY IDOCK:   -2.53 KCAL/MOL
REMARK 927      BINDING AFFINITY PREDICTED BY RF-SCORE:    0.00 PKD
ROOT
HETATM    1  O   UNL     1     -13.536   8.947  70.878  1.00  0.00    -0.529 OA 
HETATM    2  C   UNL     1     -13.246   8.011  71.881  1.00  0.00    -0.301 C  
HETATM    3  H   UNL     1     -14.472   8.964  70.719  1.00  0.00     0.000 HD 
ENDROOT
BRANCH   2   4
HETATM    4  C   UNL     1     -11.730   7.983  72.139  1.00  0.00    -0.344 C  
HETATM    5  O   UNL     1     -11.493   7.620  73.476  1.00  0.00    -0.597 OA 
HETATM    6  H   UNL     1     -10.556   7.602  73.636  1.00  0.00     0.000 HD 
BRANCH   4   7
HETATM    7  C   UNL     1     -11.009   6.983  71.196  1.00  0.00    -0.247 C  
HETATM    8  H   UNL     1     -11.476   5.888  69.659  1.00  0.00     0.000 HD 
HETATM    9  O   UNL     1     -11.917   6.500  70.236  1.00  0.00    -0.394 OA 
BRANCH   7  10
HETATM   10  C   UNL     1      -9.805   7.637  70.469  1.00  0.00    -0.183 C  
HETATM   11  H   UNL     1      -7.880   7.509  70.564  1.00  0.00     0.000 HD 
HETATM   12  O   UNL     1      -8.617   7.109  71.009  1.00  0.00    -0.131 OA 
BRANCH  10  13
HETATM   13  C   UNL     1      -9.770   9.185  70.597  1.00  0.00    -0.256 C  
HETATM   14  H   UNL     1      -8.416  10.573  70.711  1.00  0.00     0.000 HD 
HETATM   15  O   UNL     1      -8.437   9.627  70.633  1.00  0.00    -0.212 OA 
BRANCH  13  16
HETATM   16  C   UNL     1     -10.465   9.897  69.461  1.00  0.00    -0.241 C  
HETATM   17  O   UNL     1     -11.392  10.656  69.699  1.00  0.00    -0.249 OA 
BRANCH  16  18
HETATM   18  O   UNL     1     -10.086   9.703  68.182  1.00  0.00    -0.161 OA 
BRANCH  18  19
HETATM   19 CA   UNL     1     -11.170  10.968  66.426  1.00  0.00    -0.259 Ca 
BRANCH  19  20
HETATM   20  O   UNL     1     -12.254  12.232  64.670  1.00  0.00    -0.411 OA 
BRANCH  20  21
HETATM   21  C   UNL     1     -11.527  13.334  64.421  1.00  0.00    -0.379 C  
HETATM   22  O   UNL     1     -10.408  13.188  63.960  1.00  0.00    -0.396 OA 
BRANCH  21  23
HETATM   23  C   UNL     1     -11.990  14.708  64.851  1.00  0.00    -0.400 C  
HETATM   24  H   UNL     1     -13.176  16.062  64.154  1.00  0.00     0.000 HD 
HETATM   25  O   UNL     1     -12.885  15.199  63.883  1.00  0.00    -0.671 OA 
BRANCH  23  26
HETATM   26  C   UNL     1     -10.844  15.746  65.056  1.00  0.00    -0.443 C  
HETATM   27  H   UNL     1     -10.361  17.482  64.340  1.00  0.00     0.000 HD 
HETATM   28  O   UNL     1     -11.059  16.850  64.215  1.00  0.00    -1.135 OA 
BRANCH  26  29
HETATM   29  C   UNL     1     -10.577  16.243  66.519  1.00  0.00    -0.256 C  
BRANCH  29  30
HETATM   30  O   UNL     1      -9.167  16.343  66.658  1.00  0.00    -0.222 OA 
BRANCH  30  31
HETATM   31  C   UNL     1      -8.689  17.540  67.236  1.00  0.00    -0.230 C  
HETATM   32  O   UNL     1      -9.766  18.280  67.788  1.00  0.00    -0.282 OA 
HETATM   33  C   UNL     1      -9.298  19.479  68.386  1.00  0.00    -0.367 C  
HETATM   34  H   UNL     1      -6.539  18.130  64.826  1.00  0.00     0.000 HD 
HETATM   35  C   UNL     1      -8.726  20.427  67.301  1.00  0.00    -0.333 C  
HETATM   36  O   UNL     1      -9.711  20.738  66.346  1.00  0.00    -0.615 OA 
HETATM   37  C   UNL     1      -7.540  19.718  66.614  1.00  0.00    -0.263 C  
HETATM   38  O   UNL     1      -6.952  17.634  65.523  1.00  0.00    -0.351 OA 
HETATM   39  H   UNL     1      -9.360  21.319  65.682  1.00  0.00     0.000 HD 
HETATM   40  O   UNL     1      -7.037  20.471  65.538  1.00  0.00    -0.469 OA 
HETATM   41  C   UNL     1      -8.017  18.350  66.099  1.00  0.00    -0.185 C  
HETATM   42  H   UNL     1      -6.307  20.034  65.116  1.00  0.00     0.000 HD 
BRANCH  33  43
HETATM   43  C   UNL     1     -10.469  20.114  69.152  1.00  0.00     0.182 C  
HETATM   44  O   UNL     1     -10.256  20.066  70.538  1.00  0.00    -0.426 OA 
HETATM   45  H   UNL     1     -10.979  20.459  71.011  1.00  0.00     0.000 HD 
ENDBRANCH  33  43
ENDBRANCH  30  31
ENDBRANCH  29  30
BRANCH  29  46
HETATM   46  C   UNL     1     -11.224  15.387  67.664  1.00  0.00    -0.311 C  
HETATM   47  O   UNL     1     -11.973  16.198  68.540  1.00  0.00    -0.328 OA 
HETATM   48  H   UNL     1     -12.364  15.680  69.232  1.00  0.00     0.000 HD 
BRANCH  46  49
HETATM   49  C   UNL     1     -10.245  14.458  68.420  1.00  0.00    -0.243 C  
HETATM   50  H   UNL     1      -9.610  12.614  68.296  1.00  0.00     0.000 HD 
HETATM   51  O   UNL     1     -10.211  13.185  67.831  1.00  0.00    -0.222 OA 
ENDBRANCH  46  49
ENDBRANCH  29  46
ENDBRANCH  26  29
ENDBRANCH  23  26
ENDBRANCH  21  23
ENDBRANCH  20  21
ENDBRANCH  19  20
ENDBRANCH  18  19
ENDBRANCH  16  18
ENDBRANCH  13  16
ENDBRANCH  10  13
ENDBRANCH   7  10
ENDBRANCH   4   7
ENDBRANCH   2   4
TORSDOF 17
ENDMDL
MODEL       21
REMARK 921   NORMALIZED FREE ENERGY PREDICTED BY IDOCK:   -5.97 KCAL/MOL
REMARK 922        TOTAL FREE ENERGY PREDICTED BY IDOCK:  -15.35 KCAL/MOL
REMARK 923 INTER-LIGAND FREE ENERGY PREDICTED BY IDOCK:  -12.60 KCAL/MOL
REMARK 924 INTRA-LIGAND FREE ENERGY PREDICTED BY IDOCK:   -2.75 KCAL/MOL
REMARK 927      BINDING AFFINITY PREDICTED BY RF-SCORE:    0.00 PKD
ROOT
HETATM    1  O   UNL     1      -9.912   5.917  66.130  1.00  0.00    -0.344 OA 
HETATM    2  C   UNL     1     -11.042   6.331  66.848  1.00  0.00    -0.253 C  
HETATM    3  H   UNL     1     -10.177   5.351  65.414  1.00  0.00     0.000 HD 
ENDROOT
BRANCH   2   4
HETATM    4  C   UNL     1     -10.612   7.248  68.006  1.00  0.00    -0.189 C  
HETATM    5  O   UNL     1     -11.151   8.531  67.807  1.00  0.00    -0.485 OA 
HETATM    6  H   UNL     1     -10.886   9.098  68.522  1.00  0.00     0.000 HD 
BRANCH   4   7
HETATM    7  C   UNL     1     -11.085   6.696  69.376  1.00  0.00    -0.310 C  
HETATM    8  H   UNL     1     -10.725   5.140  70.485  1.00  0.00     0.000 HD 
HETATM    9  O   UNL     1     -10.435   5.478  69.646  1.00  0.00    -0.264 OA 
BRANCH   7  10
HETATM   10  C   UNL     1     -10.796   7.689  70.533  1.00  0.00    -0.241 C  
HETATM   11  H   UNL     1      -9.763   7.669  72.165  1.00  0.00     0.000 HD 
HETATM   12  O   UNL     1      -9.940   7.061  71.456  1.00  0.00    -0.181 OA 
BRANCH  10  13
HETATM   13  C   UNL     1     -12.076   8.163  71.276  1.00  0.00    -0.288 C  
HETATM   14  H   UNL     1     -12.721   8.213  73.107  1.00  0.00     0.000 HD 
HETATM   15  O   UNL     1     -11.939   7.923  72.653  1.00  0.00    -0.327 OA 
BRANCH  13  16
HETATM   16  C   UNL     1     -12.369   9.633  71.088  1.00  0.00    -0.339 C  
HETATM   17  O   UNL     1     -11.887  10.230  70.137  1.00  0.00    -0.264 OA 
BRANCH  16  18
HETATM   18  O   UNL     1     -13.148  10.305  71.959  1.00  0.00    -0.447 OA 
BRANCH  18  19
HETATM   19 CA   UNL     1     -13.445  12.690  71.677  1.00  0.00    -0.350 Ca 
BRANCH  19  20
HETATM   20  O   UNL     1     -13.744  15.075  71.395  1.00  0.00    -0.409 OA 
BRANCH  20  21
HETATM   21  C   UNL     1     -12.592  15.604  70.949  1.00  0.00    -0.449 C  
HETATM   22  O   UNL     1     -11.924  16.259  71.731  1.00  0.00    -0.478 OA 
BRANCH  21  23
HETATM   23  C   UNL     1     -12.204  15.552  69.488  1.00  0.00    -0.236 C  
HETATM   24  H   UNL     1     -11.887  14.169  68.178  1.00  0.00     0.000 HD 
HETATM   25  O   UNL     1     -12.131  14.202  69.095  1.00  0.00    -0.341 OA 
BRANCH  23  26
HETATM   26  C   UNL     1     -10.854  16.253  69.147  1.00  0.00    -0.314 C  
HETATM   27  H   UNL     1      -8.991  16.058  69.648  1.00  0.00     0.000 HD 
HETATM   28  O   UNL     1      -9.813  15.630  69.856  1.00  0.00    -0.290 OA 
BRANCH  26  29
HETATM   29  C   UNL     1     -10.465  16.369  67.633  1.00  0.00    -0.302 C  
BRANCH  29  30
HETATM   30  O   UNL     1      -9.280  15.604  67.464  1.00  0.00    -0.198 OA 
BRANCH  30  31
HETATM   31  C   UNL     1      -9.405  14.443  66.667  1.00  0.00    -0.278 C  
HETATM   32  O   UNL     1     -10.632  14.470  65.956  1.00  0.00    -0.290 OA 
HETATM   33  C   UNL     1     -10.764  13.317  65.139  1.00  0.00    -0.322 C  
HETATM   34  H   UNL     1      -8.161  12.445  68.955  1.00  0.00     0.000 HD 
HETATM   35  C   UNL     1     -10.886  12.049  66.023  1.00  0.00    -0.289 C  
HETATM   36  O   UNL     1     -12.002  12.147  66.875  1.00  0.00    -0.603 OA 
HETATM   37  C   UNL     1      -9.599  11.919  66.864  1.00  0.00    -0.200 C  
HETATM   38  O   UNL     1      -8.177  13.187  68.364  1.00  0.00    -0.154 OA 
HETATM   39  H   UNL     1     -12.076  11.370  67.416  1.00  0.00     0.000 HD 
HETATM   40  O   UNL     1      -9.681  10.852  67.777  1.00  0.00    -0.164 OA 
HETATM   41  C   UNL     1      -9.379  13.232  67.633  1.00  0.00    -0.212 C  
HETATM   42  H   UNL     1      -8.888  10.772  68.294  1.00  0.00     0.000 HD 
BRANCH  33  43
HETATM   43  C   UNL     1     -11.991  13.514  64.236  1.00  0.00    -0.432 C  
HETATM   44  O   UNL     1     -12.924  12.482  64.411  1.00  0.00    -0.748 OA 
HETATM   45  H   UNL     1     -13.683  12.605  63.853  1.00  0.00     0.000 HD 
ENDBRANCH  33  43
ENDBRANCH  30  31
ENDBRANCH  29  30
BRANCH  29  46
HETATM   46  C   UNL     1     -10.310  17.827  67.073  1.00  0.00    -0.344 C  
HETATM   47  O   UNL     1      -9.596  17.828  65.859  1.00  0.00    -0.517 OA 
HETATM   48  H   UNL     1      -9.503  18.710  65.520  1.00  0.00     0.000 HD 
BRANCH  46  49
HETATM   49  C   UNL     1      -9.753  18.859  68.080  1.00  0.00    -0.347 C  
HETATM   50  H   UNL     1      -9.740  20.801  68.307  1.00  0.00     0.000 HD 
HETATM   51  O   UNL     1     -10.083  20.166  67.688  1.00  0.00    -0.400 OA 
ENDBRANCH  46  49
ENDBRANCH  29  46
ENDBRANCH  26  29
ENDBRANCH  23  26
ENDBRANCH  21  23
ENDBRANCH  20  21
ENDBRANCH  19  20
ENDBRANCH  18  19
ENDBRANCH  16  18
ENDBRANCH  13  16
ENDBRANCH  10  13
ENDBRANCH   7  10
ENDBRANCH   4   7
ENDBRANCH   2   4
TORSDOF 17
ENDMDL
MODEL       22
REMARK 921   NORMALIZED FREE ENERGY PREDICTED BY IDOCK:   -5.96 KCAL/MOL
REMARK 922        TOTAL FREE ENERGY PREDICTED BY IDOCK:  -15.32 KCAL/MOL
REMARK 923 INTER-LIGAND FREE ENERGY PREDICTED BY IDOCK:  -13.14 KCAL/MOL
REMARK 924 INTRA-LIGAND FREE ENERGY PREDICTED BY IDOCK:   -2.17 KCAL/MOL
REMARK 927      BINDING AFFINITY PREDICTED BY RF-SCORE:    0.00 PKD
ROOT
HETATM    1  O   UNL     1     -10.200   8.589  72.363  1.00  0.00    -0.312 OA 
HETATM    2  C   UNL     1     -10.890   7.668  73.163  1.00  0.00    -0.382 C  
HETATM    3  H   UNL     1     -10.113   9.414  72.827  1.00  0.00     0.000 HD 
ENDROOT
BRANCH   2   4
HETATM    4  C   UNL     1     -11.030   6.333  72.413  1.00  0.00    -0.254 C  
HETATM    5  O   UNL     1     -11.519   5.353  73.294  1.00  0.00    -0.480 OA 
HETATM    6  H   UNL     1     -11.605   4.528  72.830  1.00  0.00     0.000 HD 
BRANCH   4   7
HETATM    7  C   UNL     1     -11.986   6.459  71.198  1.00  0.00    -0.210 C  
HETATM    8  H   UNL     1     -13.347   7.704  70.581  1.00  0.00     0.000 HD 
HETATM    9  O   UNL     1     -12.761   7.627  71.324  1.00  0.00    -0.321 OA 
BRANCH   7  10
HETATM   10  C   UNL     1     -11.213   6.509  69.853  1.00  0.00    -0.395 C  
HETATM   11  H   UNL     1      -9.961   5.373  68.920  1.00  0.00     0.000 HD 
HETATM   12  O   UNL     1     -10.434   5.342  69.744  1.00  0.00    -0.284 OA 
BRANCH  10  13
HETATM   13  C   UNL     1     -10.285   7.748  69.718  1.00  0.00    -0.211 C  
HETATM   14  H   UNL     1      -8.375   8.093  69.645  1.00  0.00     0.000 HD 
HETATM   15  O   UNL     1      -8.943   7.336  69.727  1.00  0.00    -0.142 OA 
BRANCH  13  16
HETATM   16  C   UNL     1     -10.520   8.539  68.453  1.00  0.00    -0.171 C  
HETATM   17  O   UNL     1     -10.716   9.742  68.519  1.00  0.00    -0.217 OA 
BRANCH  16  18
HETATM   18  O   UNL     1     -10.527   7.937  67.247  1.00  0.00    -0.275 OA 
BRANCH  18  19
HETATM   19 CA   UNL     1     -10.423   9.298  65.249  1.00  0.00    -0.355 Ca 
BRANCH  19  20
HETATM   20  O   UNL     1     -10.318  10.659  63.251  1.00  0.00    -0.210 OA 
BRANCH  20  21
HETATM   21  C   UNL     1     -10.604  11.931  63.579  1.00  0.00    -0.453 C  
HETATM   22  O   UNL     1      -9.769  12.785  63.334  1.00  0.00    -0.031 OA 
BRANCH  21  23
HETATM   23  C   UNL     1     -11.834  12.289  64.383  1.00  0.00    -0.388 C  
HETATM   24  H   UNL     1     -13.744  12.227  64.112  1.00  0.00     0.000 HD 
HETATM   25  O   UNL     1     -12.972  12.002  63.607  1.00  0.00    -0.747 OA 
BRANCH  23  26
HETATM   26  C   UNL     1     -11.897  13.776  64.847  1.00  0.00    -0.375 C  
HETATM   27  H   UNL     1     -13.274  15.044  65.353  1.00  0.00     0.000 HD 
HETATM   28  O   UNL     1     -13.236  14.138  65.070  1.00  0.00    -0.691 OA 
BRANCH  26  29
HETATM   29  C   UNL     1     -11.029  14.180  66.089  1.00  0.00    -0.309 C  
BRANCH  29  30
HETATM   30  O   UNL     1     -11.941  14.573  67.105  1.00  0.00    -0.406 OA 
BRANCH  30  31
HETATM   31  C   UNL     1     -11.562  14.255  68.429  1.00  0.00    -0.320 C  
HETATM   32  O   UNL     1     -12.328  13.161  68.906  1.00  0.00    -0.147 OA 
HETATM   33  C   UNL     1     -11.946  12.821  70.230  1.00  0.00    -0.280 C  
HETATM   34  H   UNL     1     -11.271  17.390  69.356  1.00  0.00     0.000 HD 
HETATM   35  C   UNL     1     -12.312  13.972  71.203  1.00  0.00    -0.365 C  
HETATM   36  O   UNL     1     -13.695  14.227  71.168  1.00  0.00    -0.315 OA 
HETATM   37  C   UNL     1     -11.539  15.235  70.771  1.00  0.00    -0.333 C  
HETATM   38  O   UNL     1     -11.102  16.619  68.828  1.00  0.00    -0.325 OA 
HETATM   39  H   UNL     1     -13.919  14.932  71.764  1.00  0.00     0.000 HD 
HETATM   40  O   UNL     1     -11.905  16.356  71.538  1.00  0.00    -0.639 OA 
HETATM   41  C   UNL     1     -11.839  15.513  69.289  1.00  0.00    -0.353 C  
HETATM   42  H   UNL     1     -11.428  17.134  71.272  1.00  0.00     0.000 HD 
BRANCH  33  43
HETATM   43  C   UNL     1     -12.645  11.504  70.601  1.00  0.00    -0.248 C  
HETATM   44  O   UNL     1     -11.755  10.608  71.210  1.00  0.00    -0.261 OA 
HETATM   45  H   UNL     1     -12.187   9.795  71.440  1.00  0.00     0.000 HD 
ENDBRANCH  33  43
ENDBRANCH  30  31
ENDBRANCH  29  30
BRANCH  29  46
HETATM   46  C   UNL     1      -9.928  15.268  65.832  1.00  0.00    -0.340 C  
HETATM   47  O   UNL     1      -8.932  15.223  66.828  1.00  0.00    -0.224 OA 
HETATM   48  H   UNL     1      -8.266  15.881  66.673  1.00  0.00     0.000 HD 
BRANCH  46  49
HETATM   49  C   UNL     1     -10.463  16.700  65.605  1.00  0.00    -0.297 C  
HETATM   50  H   UNL     1     -11.417  17.687  64.212  1.00  0.00     0.000 HD 
HETATM   51  O   UNL     1     -11.088  16.806  64.352  1.00  0.00    -1.072 OA 
ENDBRANCH  46  49
ENDBRANCH  29  46
ENDBRANCH  26  29
ENDBRANCH  23  26
ENDBRANCH  21  23
ENDBRANCH  20  21
ENDBRANCH  19  20
ENDBRANCH  18  19
ENDBRANCH  16  18
ENDBRANCH  13  16
ENDBRANCH  10  13
ENDBRANCH   7  10
ENDBRANCH   4   7
ENDBRANCH   2   4
TORSDOF 17
ENDMDL
MODEL       23
REMARK 921   NORMALIZED FREE ENERGY PREDICTED BY IDOCK:   -5.95 KCAL/MOL
REMARK 922        TOTAL FREE ENERGY PREDICTED BY IDOCK:  -15.31 KCAL/MOL
REMARK 923 INTER-LIGAND FREE ENERGY PREDICTED BY IDOCK:  -12.51 KCAL/MOL
REMARK 924 INTRA-LIGAND FREE ENERGY PREDICTED BY IDOCK:   -2.81 KCAL/MOL
REMARK 927      BINDING AFFINITY PREDICTED BY RF-SCORE:    0.00 PKD
ROOT
HETATM    1  O   UNL     1     -14.411   8.151  70.855  1.00  0.00    -0.654 OA 
HETATM    2  C   UNL     1     -13.760   9.220  71.486  1.00  0.00    -0.316 C  
HETATM    3  H   UNL     1     -15.172   8.472  70.386  1.00  0.00     0.000 HD 
ENDROOT
BRANCH   2   4
HETATM    4  C   UNL     1     -12.528   8.701  72.246  1.00  0.00    -0.395 C  
HETATM    5  O   UNL     1     -12.519   7.296  72.210  1.00  0.00    -0.484 OA 
HETATM    6  H   UNL     1     -11.758   6.975  72.680  1.00  0.00     0.000 HD 
BRANCH   4   7
HETATM    7  C   UNL     1     -11.209   9.242  71.631  1.00  0.00    -0.379 C  
HETATM    8  H   UNL     1      -9.302   8.989  71.908  1.00  0.00     0.000 HD 
HETATM    9  O   UNL     1     -10.109   8.657  72.284  1.00  0.00    -0.311 OA 
BRANCH   7  10
HETATM   10  C   UNL     1     -11.112   8.943  70.112  1.00  0.00    -0.201 C  
HETATM   11  H   UNL     1     -10.568   7.450  69.014  1.00  0.00     0.000 HD 
HETATM   12  O   UNL     1     -10.628   7.633  69.945  1.00  0.00    -0.227 OA 
BRANCH  10  13
HETATM   13  C   UNL     1     -10.182   9.925  69.347  1.00  0.00    -0.216 C  
HETATM   14  H   UNL     1      -8.419   9.872  68.534  1.00  0.00     0.000 HD 
HETATM   15  O   UNL     1      -8.988   9.272  69.002  1.00  0.00    -0.135 OA 
BRANCH  13  16
HETATM   16  C   UNL     1     -10.797  10.469  68.078  1.00  0.00    -0.263 C  
HETATM   17  O   UNL     1     -10.223  10.311  67.012  1.00  0.00    -0.207 OA 
BRANCH  16  18
HETATM   18  O   UNL     1     -11.967  11.137  68.102  1.00  0.00    -0.615 OA 
BRANCH  18  19
HETATM   19 CA   UNL     1     -12.446  12.739  66.352  1.00  0.00    -0.377 Ca 
BRANCH  19  20
HETATM   20  O   UNL     1     -12.925  14.340  64.603  1.00  0.00    -0.621 OA 
BRANCH  20  21
HETATM   21  C   UNL     1     -11.888  15.189  64.499  1.00  0.00    -0.330 C  
HETATM   22  O   UNL     1     -12.026  16.175  63.795  1.00  0.00    -0.926 OA 
BRANCH  21  23
HETATM   23  C   UNL     1     -10.531  14.865  65.081  1.00  0.00    -0.417 C  
HETATM   24  H   UNL     1      -9.457  13.278  65.316  1.00  0.00     0.000 HD 
HETATM   25  O   UNL     1     -10.310  13.482  64.950  1.00  0.00    -0.366 OA 
BRANCH  23  26
HETATM   26  C   UNL     1     -10.351  15.269  66.576  1.00  0.00    -0.286 C  
HETATM   27  H   UNL     1     -10.880  14.569  68.305  1.00  0.00     0.000 HD 
HETATM   28  O   UNL     1     -10.990  14.323  67.394  1.00  0.00    -0.284 OA 
BRANCH  26  29
HETATM   29  C   UNL     1      -8.888  15.504  67.087  1.00  0.00    -0.212 C  
BRANCH  29  30
HETATM   30  O   UNL     1      -8.333  16.520  66.264  1.00  0.00    -0.295 OA 
BRANCH  30  31
HETATM   31  C   UNL     1      -7.937  17.702  66.929  1.00  0.00    -0.226 C  
HETATM   32  O   UNL     1      -9.010  18.208  67.706  1.00  0.00    -0.257 OA 
HETATM   33  C   UNL     1      -8.620  19.388  68.392  1.00  0.00    -0.360 C  
HETATM   34  H   UNL     1      -6.253  18.869  64.364  1.00  0.00     0.000 HD 
HETATM   35  C   UNL     1      -8.339  20.527  67.377  1.00  0.00    -0.283 C  
HETATM   36  O   UNL     1      -9.484  20.794  66.605  1.00  0.00    -0.647 OA 
HETATM   37  C   UNL     1      -7.183  20.081  66.458  1.00  0.00    -0.257 C  
HETATM   38  O   UNL     1      -6.492  18.242  65.036  1.00  0.00    -0.392 OA 
HETATM   39  H   UNL     1      -9.311  21.492  65.983  1.00  0.00     0.000 HD 
HETATM   40  O   UNL     1      -6.943  21.016  65.435  1.00  0.00    -0.509 OA 
HETATM   41  C   UNL     1      -7.547  18.725  65.832  1.00  0.00    -0.158 C  
HETATM   42  H   UNL     1      -6.231  20.742  64.869  1.00  0.00     0.000 HD 
BRANCH  33  43
HETATM   43  C   UNL     1      -9.741  19.755  69.378  1.00  0.00    -0.092 C  
HETATM   44  O   UNL     1     -10.995  19.746  68.750  1.00  0.00    -0.128 OA 
HETATM   45  H   UNL     1     -11.687  19.971  69.360  1.00  0.00     0.000 HD 
ENDBRANCH  33  43
ENDBRANCH  30  31
ENDBRANCH  29  30
BRANCH  29  46
HETATM   46  C   UNL     1      -7.971  14.232  67.152  1.00  0.00    -0.101 C  
HETATM   47  O   UNL     1      -8.725  13.080  67.448  1.00  0.00    -0.184 OA 
HETATM   48  H   UNL     1      -8.171  12.310  67.488  1.00  0.00     0.000 HD 
BRANCH  46  49
HETATM   49  C   UNL     1      -6.728  14.367  68.062  1.00  0.00    -0.147 C  
HETATM   50  H   UNL     1      -4.948  13.573  68.210  1.00  0.00     0.000 HD 
HETATM   51  O   UNL     1      -5.711  13.491  67.651  1.00  0.00    -0.249 OA 
ENDBRANCH  46  49
ENDBRANCH  29  46
ENDBRANCH  26  29
ENDBRANCH  23  26
ENDBRANCH  21  23
ENDBRANCH  20  21
ENDBRANCH  19  20
ENDBRANCH  18  19
ENDBRANCH  16  18
ENDBRANCH  13  16
ENDBRANCH  10  13
ENDBRANCH   7  10
ENDBRANCH   4   7
ENDBRANCH   2   4
TORSDOF 17
ENDMDL
MODEL       24
REMARK 921   NORMALIZED FREE ENERGY PREDICTED BY IDOCK:   -5.95 KCAL/MOL
REMARK 922        TOTAL FREE ENERGY PREDICTED BY IDOCK:  -15.30 KCAL/MOL
REMARK 923 INTER-LIGAND FREE ENERGY PREDICTED BY IDOCK:  -12.15 KCAL/MOL
REMARK 924 INTRA-LIGAND FREE ENERGY PREDICTED BY IDOCK:   -3.15 KCAL/MOL
REMARK 927      BINDING AFFINITY PREDICTED BY RF-SCORE:    0.00 PKD
ROOT
HETATM    1  O   UNL     1      -9.414  16.178  68.853  1.00  0.00    -0.220 OA 
HETATM    2  C   UNL     1      -8.155  16.528  68.345  1.00  0.00    -0.196 C  
HETATM    3  H   UNL     1      -9.660  15.318  68.532  1.00  0.00     0.000 HD 
ENDROOT
BRANCH   2   4
HETATM    4  C   UNL     1      -7.756  17.920  68.866  1.00  0.00    -0.201 C  
HETATM    5  O   UNL     1      -6.355  17.998  68.955  1.00  0.00    -0.217 OA 
HETATM    6  H   UNL     1      -6.109  18.858  69.276  1.00  0.00     0.000 HD 
BRANCH   4   7
HETATM    7  C   UNL     1      -8.279  19.047  67.936  1.00  0.00    -0.280 C  
HETATM    8  H   UNL     1      -7.585  20.691  67.164  1.00  0.00     0.000 HD 
HETATM    9  O   UNL     1      -7.265  20.001  67.733  1.00  0.00    -0.273 OA 
BRANCH   7  10
HETATM   10  C   UNL     1      -8.739  18.497  66.560  1.00  0.00    -0.286 C  
HETATM   11  H   UNL     1      -8.359  18.881  64.706  1.00  0.00     0.000 HD 
HETATM   12  O   UNL     1      -8.077  19.217  65.548  1.00  0.00    -0.338 OA 
BRANCH  10  13
HETATM   13  C   UNL     1     -10.272  18.605  66.333  1.00  0.00    -0.425 C  
HETATM   14  H   UNL     1     -11.483  19.726  65.308  1.00  0.00     0.000 HD 
HETATM   15  O   UNL     1     -10.545  19.661  65.448  1.00  0.00    -0.443 OA 
BRANCH  13  16
HETATM   16  C   UNL     1     -10.883  17.348  65.759  1.00  0.00     0.000 C  
HETATM   17  O   UNL     1     -11.097  17.273  64.559  1.00  0.00    -1.082 OA 
BRANCH  16  18
HETATM   18  O   UNL     1     -11.210  16.308  66.551  1.00  0.00     0.028 OA 
BRANCH  18  19
HETATM   19 CA   UNL     1      -9.626  14.499  66.834  1.00  0.00    -0.202 Ca 
BRANCH  19  20
HETATM   20  O   UNL     1      -8.043  12.691  67.116  1.00  0.00    -0.177 OA 
BRANCH  20  21
HETATM   21  C   UNL     1      -8.672  11.527  66.879  1.00  0.00    -0.181 C  
HETATM   22  O   UNL     1      -8.292  10.855  65.935  1.00  0.00    -0.163 OA 
BRANCH  21  23
HETATM   23  C   UNL     1      -9.920  11.126  67.633  1.00  0.00    -0.174 C  
HETATM   24  H   UNL     1     -11.340   9.841  67.396  1.00  0.00     0.000 HD 
HETATM   25  O   UNL     1     -10.556  10.092  66.923  1.00  0.00    -0.238 OA 
BRANCH  23  26
HETATM   26  C   UNL     1     -10.938  12.284  67.867  1.00  0.00    -0.224 C  
HETATM   27  H   UNL     1     -12.610  12.878  67.085  1.00  0.00     0.000 HD 
HETATM   28  O   UNL     1     -11.990  12.173  66.942  1.00  0.00    -0.603 OA 
BRANCH  26  29
HETATM   29  C   UNL     1     -11.523  12.447  69.312  1.00  0.00    -0.288 C  
BRANCH  29  30
HETATM   30  O   UNL     1     -12.392  11.342  69.521  1.00  0.00    -0.252 OA 
BRANCH  30  31
HETATM   31  C   UNL     1     -11.978  10.410  70.499  1.00  0.00    -0.334 C  
HETATM   32  O   UNL     1     -11.655   9.172  69.887  1.00  0.00    -0.049 OA 
HETATM   33  C   UNL     1     -11.223   8.230  70.857  1.00  0.00    -0.265 C  
HETATM   34  H   UNL     1     -14.248  11.330  72.684  1.00  0.00     0.000 HD 
HETATM   35  C   UNL     1     -12.393   7.870  71.809  1.00  0.00    -0.320 C  
HETATM   36  O   UNL     1     -13.471   7.330  71.083  1.00  0.00    -0.560 OA 
HETATM   37  C   UNL     1     -12.844   9.157  72.531  1.00  0.00    -0.317 C  
HETATM   38  O   UNL     1     -13.519  11.443  72.086  1.00  0.00    -0.397 OA 
HETATM   39  H   UNL     1     -14.188   7.109  71.667  1.00  0.00     0.000 HD 
HETATM   40  O   UNL     1     -13.979   8.933  73.330  1.00  0.00    -1.203 OA 
HETATM   41  C   UNL     1     -13.168  10.226  71.474  1.00  0.00    -0.386 C  
HETATM   42  H   UNL     1     -14.256   9.726  73.775  1.00  0.00     0.000 HD 
BRANCH  33  43
HETATM   43  C   UNL     1     -10.680   7.000  70.113  1.00  0.00    -0.240 C  
HETATM   44  O   UNL     1     -10.112   6.076  71.003  1.00  0.00    -0.182 OA 
HETATM   45  H   UNL     1      -9.777   5.316  70.543  1.00  0.00     0.000 HD 
ENDBRANCH  33  43
ENDBRANCH  30  31
ENDBRANCH  29  30
BRANCH  29  46
HETATM   46  C   UNL     1     -12.226  13.816  69.618  1.00  0.00    -0.305 C  
HETATM   47  O   UNL     1     -12.078  14.711  68.540  1.00  0.00    -0.525 OA 
HETATM   48  H   UNL     1     -12.503  15.540  68.725  1.00  0.00     0.000 HD 
BRANCH  46  49
HETATM   49  C   UNL     1     -11.845  14.460  70.971  1.00  0.00    -0.270 C  
HETATM   50  H   UNL     1     -11.513  16.251  71.680  1.00  0.00     0.000 HD 
HETATM   51  O   UNL     1     -11.748  15.855  70.849  1.00  0.00    -0.362 OA 
ENDBRANCH  46  49
ENDBRANCH  29  46
ENDBRANCH  26  29
ENDBRANCH  23  26
ENDBRANCH  21  23
ENDBRANCH  20  21
ENDBRANCH  19  20
ENDBRANCH  18  19
ENDBRANCH  16  18
ENDBRANCH  13  16
ENDBRANCH  10  13
ENDBRANCH   7  10
ENDBRANCH   4   7
ENDBRANCH   2   4
TORSDOF 17
ENDMDL
MODEL       25
REMARK 921   NORMALIZED FREE ENERGY PREDICTED BY IDOCK:   -5.94 KCAL/MOL
REMARK 922        TOTAL FREE ENERGY PREDICTED BY IDOCK:  -15.29 KCAL/MOL
REMARK 923 INTER-LIGAND FREE ENERGY PREDICTED BY IDOCK:  -11.61 KCAL/MOL
REMARK 924 INTRA-LIGAND FREE ENERGY PREDICTED BY IDOCK:   -3.69 KCAL/MOL
REMARK 927      BINDING AFFINITY PREDICTED BY RF-SCORE:    0.00 PKD
ROOT
HETATM    1  O   UNL     1     -14.153   9.260  70.649  1.00  0.00    -0.453 OA 
HETATM    2  C   UNL     1     -12.834   9.592  70.985  1.00  0.00    -0.262 C  
HETATM    3  H   UNL     1     -14.394   9.692  69.837  1.00  0.00     0.000 HD 
ENDROOT
BRANCH   2   4
HETATM    4  C   UNL     1     -12.443   8.894  72.299  1.00  0.00    -0.369 C  
HETATM    5  O   UNL     1     -13.519   8.967  73.201  1.00  0.00    -0.968 OA 
HETATM    6  H   UNL     1     -13.278   8.535  74.013  1.00  0.00     0.000 HD 
BRANCH   4   7
HETATM    7  C   UNL     1     -12.066   7.407  72.064  1.00  0.00    -0.289 C  
HETATM    8  H   UNL     1     -12.212   6.113  70.620  1.00  0.00     0.000 HD 
HETATM    9  O   UNL     1     -12.442   7.023  70.764  1.00  0.00    -0.338 OA 
BRANCH   7  10
HETATM   10  C   UNL     1     -10.545   7.159  72.244  1.00  0.00    -0.215 C  
HETATM   11  H   UNL     1      -9.436   6.025  73.346  1.00  0.00     0.000 HD 
HETATM   12  O   UNL     1     -10.368   6.177  73.236  1.00  0.00    -0.199 OA 
BRANCH  10  13
HETATM   13  C   UNL     1      -9.754   8.433  72.651  1.00  0.00    -0.262 C  
HETATM   14  H   UNL     1      -8.508   8.947  74.048  1.00  0.00     0.000 HD 
HETATM   15  O   UNL     1      -8.991   8.168  73.800  1.00  0.00    -0.258 OA 
BRANCH  13  16
HETATM   16  C   UNL     1      -8.816   8.927  71.574  1.00  0.00    -0.183 C  
HETATM   17  O   UNL     1      -7.615   8.968  71.791  1.00  0.00    -0.321 OA 
BRANCH  16  18
HETATM   18  O   UNL     1      -9.283   9.334  70.377  1.00  0.00    -0.208 OA 
BRANCH  18  19
HETATM   19 CA   UNL     1      -8.815  11.590  69.636  1.00  0.00    -0.365 Ca 
BRANCH  19  20
HETATM   20  O   UNL     1      -8.348  13.846  68.894  1.00  0.00    -0.065 OA 
BRANCH  20  21
HETATM   21  C   UNL     1      -8.298  13.857  67.551  1.00  0.00    -0.196 C  
HETATM   22  O   UNL     1      -7.598  13.025  66.999  1.00  0.00    -0.064 OA 
BRANCH  21  23
HETATM   23  C   UNL     1      -8.939  14.960  66.739  1.00  0.00    -0.268 C  
HETATM   24  H   UNL     1      -8.612  16.838  66.436  1.00  0.00     0.000 HD 
HETATM   25  O   UNL     1      -8.209  16.145  66.946  1.00  0.00    -0.189 OA 
BRANCH  23  26
HETATM   26  C   UNL     1     -10.440  15.223  67.069  1.00  0.00    -0.292 C  
HETATM   27  H   UNL     1     -11.970  16.006  66.172  1.00  0.00     0.000 HD 
HETATM   28  O   UNL     1     -11.056  15.846  65.971  1.00  0.00    -0.195 OA 
BRANCH  26  29
HETATM   29  C   UNL     1     -11.301  13.996  67.528  1.00  0.00    -0.321 C  
BRANCH  29  30
HETATM   30  O   UNL     1     -12.089  13.617  66.409  1.00  0.00    -0.403 OA 
BRANCH  30  31
HETATM   31  C   UNL     1     -11.794  12.355  65.848  1.00  0.00    -0.405 C  
HETATM   32  O   UNL     1     -10.814  11.691  66.629  1.00  0.00    -0.258 OA 
HETATM   33  C   UNL     1     -10.519  10.414  66.084  1.00  0.00    -0.154 C  
HETATM   34  H   UNL     1     -11.863  13.446  62.752  1.00  0.00     0.000 HD 
HETATM   35  C   UNL     1      -9.835  10.569  64.701  1.00  0.00    -0.340 C  
HETATM   36  O   UNL     1      -8.646  11.311  64.818  1.00  0.00    -0.375 OA 
HETATM   37  C   UNL     1     -10.814  11.298  63.756  1.00  0.00    -0.350 C  
HETATM   38  O   UNL     1     -12.197  13.287  63.627  1.00  0.00    -0.601 OA 
HETATM   39  H   UNL     1      -8.228  11.406  63.971  1.00  0.00     0.000 HD 
HETATM   40  O   UNL     1     -10.222  11.579  62.512  1.00  0.00    -0.501 OA 
HETATM   41  C   UNL     1     -11.249  12.615  64.421  1.00  0.00    -0.346 C  
HETATM   42  H   UNL     1     -10.825  12.028  61.930  1.00  0.00     0.000 HD 
BRANCH  33  43
HETATM   43  C   UNL     1      -9.630   9.664  67.089  1.00  0.00    -0.166 C  
HETATM   44  O   UNL     1      -8.645  10.506  67.625  1.00  0.00    -0.118 OA 
HETATM   45  H   UNL     1      -8.097  10.044  68.246  1.00  0.00     0.000 HD 
ENDBRANCH  33  43
ENDBRANCH  30  31
ENDBRANCH  29  30
BRANCH  29  46
HETATM   46  C   UNL     1     -12.171  14.212  68.817  1.00  0.00    -0.199 C  
HETATM   47  O   UNL     1     -12.044  15.531  69.296  1.00  0.00    -0.483 OA 
HETATM   48  H   UNL     1     -12.570  15.662  70.075  1.00  0.00     0.000 HD 
BRANCH  46  49
HETATM   49  C   UNL     1     -11.961  13.162  69.932  1.00  0.00    -0.317 C  
HETATM   50  H   UNL     1     -12.761  12.698  71.654  1.00  0.00     0.000 HD 
HETATM   51  O   UNL     1     -12.890  13.343  70.969  1.00  0.00    -0.312 OA 
ENDBRANCH  46  49
ENDBRANCH  29  46
ENDBRANCH  26  29
ENDBRANCH  23  26
ENDBRANCH  21  23
ENDBRANCH  20  21
ENDBRANCH  19  20
ENDBRANCH  18  19
ENDBRANCH  16  18
ENDBRANCH  13  16
ENDBRANCH  10  13
ENDBRANCH   7  10
ENDBRANCH   4   7
ENDBRANCH   2   4
TORSDOF 17
ENDMDL
MODEL       26
REMARK 921   NORMALIZED FREE ENERGY PREDICTED BY IDOCK:   -5.93 KCAL/MOL
REMARK 922        TOTAL FREE ENERGY PREDICTED BY IDOCK:  -15.27 KCAL/MOL
REMARK 923 INTER-LIGAND FREE ENERGY PREDICTED BY IDOCK:  -11.98 KCAL/MOL
REMARK 924 INTRA-LIGAND FREE ENERGY PREDICTED BY IDOCK:   -3.29 KCAL/MOL
REMARK 927      BINDING AFFINITY PREDICTED BY RF-SCORE:    0.00 PKD
ROOT
HETATM    1  O   UNL     1     -10.868  17.979  65.073  1.00  0.00    -0.738 OA 
HETATM    2  C   UNL     1     -10.235  17.004  65.857  1.00  0.00    -0.296 C  
HETATM    3  H   UNL     1     -10.835  18.817  65.519  1.00  0.00     0.000 HD 
ENDROOT
BRANCH   2   4
HETATM    4  C   UNL     1     -10.288  15.646  65.136  1.00  0.00    -0.334 C  
HETATM    5  O   UNL     1      -9.751  14.654  65.975  1.00  0.00    -0.295 OA 
HETATM    6  H   UNL     1      -9.783  13.815  65.529  1.00  0.00     0.000 HD 
BRANCH   4   7
HETATM    7  C   UNL     1     -11.740  15.263  64.747  1.00  0.00    -0.276 C  
HETATM    8  H   UNL     1     -13.077  15.864  63.469  1.00  0.00     0.000 HD 
HETATM    9  O   UNL     1     -12.187  16.099  63.707  1.00  0.00    -0.934 OA 
BRANCH   7  10
HETATM   10  C   UNL     1     -11.846  13.785  64.287  1.00  0.00    -0.417 C  
HETATM   11  H   UNL     1     -12.531  12.848  62.743  1.00  0.00     0.000 HD 
HETATM   12  O   UNL     1     -12.465  13.754  63.024  1.00  0.00    -0.712 OA 
BRANCH  10  13
HETATM   13  C   UNL     1     -12.656  12.890  65.266  1.00  0.00    -0.439 C  
HETATM   14  H   UNL     1     -13.761  11.296  65.153  1.00  0.00     0.000 HD 
HETATM   15  O   UNL     1     -13.266  11.844  64.554  1.00  0.00    -0.443 OA 
BRANCH  13  16
HETATM   16  C   UNL     1     -11.811  12.277  66.358  1.00  0.00    -0.311 C  
HETATM   17  O   UNL     1     -11.096  11.320  66.105  1.00  0.00    -0.248 OA 
BRANCH  16  18
HETATM   18  O   UNL     1     -11.839  12.762  67.615  1.00  0.00    -0.356 OA 
BRANCH  18  19
HETATM   19 CA   UNL     1     -11.503  11.246  69.472  1.00  0.00    -0.187 Ca 
BRANCH  19  20
HETATM   20  O   UNL     1     -11.167   9.731  71.328  1.00  0.00    -0.361 OA 
BRANCH  20  21
HETATM   21  C   UNL     1     -12.260   8.960  71.459  1.00  0.00    -0.327 C  
HETATM   22  O   UNL     1     -13.302   9.499  71.793  1.00  0.00    -0.375 OA 
BRANCH  21  23
HETATM   23  C   UNL     1     -12.187   7.452  71.374  1.00  0.00    -0.342 C  
HETATM   24  H   UNL     1     -13.398   5.978  71.669  1.00  0.00     0.000 HD 
HETATM   25  O   UNL     1     -13.444   6.925  71.722  1.00  0.00    -0.325 OA 
BRANCH  23  26
HETATM   26  C   UNL     1     -11.096   6.801  72.277  1.00  0.00    -0.251 C  
HETATM   27  H   UNL     1     -10.595   5.010  72.826  1.00  0.00     0.000 HD 
HETATM   28  O   UNL     1     -11.260   5.406  72.276  1.00  0.00    -0.236 OA 
BRANCH  26  29
HETATM   29  C   UNL     1      -9.600   7.155  71.967  1.00  0.00    -0.143 C  
BRANCH  29  30
HETATM   30  O   UNL     1      -9.177   6.255  70.953  1.00  0.00    -0.156 OA 
BRANCH  30  31
HETATM   31  C   UNL     1      -9.005   6.813  69.666  1.00  0.00    -0.143 C  
HETATM   32  O   UNL     1      -8.953   8.228  69.752  1.00  0.00    -0.144 OA 
HETATM   33  C   UNL     1      -8.766   8.801  68.467  1.00  0.00    -0.135 C  
HETATM   34  H   UNL     1     -11.063   4.707  68.214  1.00  0.00     0.000 HD 
HETATM   35  C   UNL     1     -10.009   8.537  67.578  1.00  0.00    -0.200 C  
HETATM   36  O   UNL     1     -11.163   9.084  68.169  1.00  0.00    -0.469 OA 
HETATM   37  C   UNL     1     -10.177   7.012  67.422  1.00  0.00    -0.215 C  
HETATM   38  O   UNL     1     -10.313   4.975  68.732  1.00  0.00    -0.139 OA 
HETATM   39  H   UNL     1     -11.924   8.922  67.624  1.00  0.00     0.000 HD 
HETATM   40  O   UNL     1     -11.353   6.688  66.721  1.00  0.00    -0.745 OA 
HETATM   41  C   UNL     1     -10.229   6.377  68.822  1.00  0.00    -0.177 C  
HETATM   42  H   UNL     1     -11.456   5.748  66.625  1.00  0.00     0.000 HD 
BRANCH  33  43
HETATM   43  C   UNL     1      -8.495  10.302  68.654  1.00  0.00    -0.127 C  
HETATM   44  O   UNL     1      -9.285  10.839  69.681  1.00  0.00    -0.403 OA 
HETATM   45  H   UNL     1      -9.117  11.766  69.796  1.00  0.00     0.000 HD 
ENDBRANCH  33  43
ENDBRANCH  30  31
ENDBRANCH  29  30
BRANCH  29  46
HETATM   46  C   UNL     1      -8.626   7.159  73.197  1.00  0.00    -0.122 C  
HETATM   47  O   UNL     1      -9.266   6.662  74.350  1.00  0.00    -0.178 OA 
HETATM   48  H   UNL     1      -8.677   6.664  75.094  1.00  0.00     0.000 HD 
BRANCH  46  49
HETATM   49  C   UNL     1      -7.909   8.503  73.460  1.00  0.00    -0.001 C  
HETATM   50  H   UNL     1      -6.602   9.648  72.564  1.00  0.00     0.000 HD 
HETATM   51  O   UNL     1      -7.043   8.822  72.402  1.00  0.00    -0.284 OA 
ENDBRANCH  46  49
ENDBRANCH  29  46
ENDBRANCH  26  29
ENDBRANCH  23  26
ENDBRANCH  21  23
ENDBRANCH  20  21
ENDBRANCH  19  20
ENDBRANCH  18  19
ENDBRANCH  16  18
ENDBRANCH  13  16
ENDBRANCH  10  13
ENDBRANCH   7  10
ENDBRANCH   4   7
ENDBRANCH   2   4
TORSDOF 17
ENDMDL
MODEL       27
REMARK 921   NORMALIZED FREE ENERGY PREDICTED BY IDOCK:   -5.92 KCAL/MOL
REMARK 922        TOTAL FREE ENERGY PREDICTED BY IDOCK:  -15.25 KCAL/MOL
REMARK 923 INTER-LIGAND FREE ENERGY PREDICTED BY IDOCK:  -12.76 KCAL/MOL
REMARK 924 INTRA-LIGAND FREE ENERGY PREDICTED BY IDOCK:   -2.49 KCAL/MOL
REMARK 927      BINDING AFFINITY PREDICTED BY RF-SCORE:    0.00 PKD
ROOT
HETATM    1  O   UNL     1      -9.474  20.244  66.100  1.00  0.00    -0.596 OA 
HETATM    2  C   UNL     1     -10.377  19.965  67.135  1.00  0.00    -0.446 C  
HETATM    3  H   UNL     1      -9.946  20.581  65.347  1.00  0.00     0.000 HD 
ENDROOT
BRANCH   2   4
HETATM    4  C   UNL     1      -9.614  19.419  68.354  1.00  0.00    -0.388 C  
HETATM    5  O   UNL     1     -10.324  19.735  69.526  1.00  0.00    -0.635 OA 
HETATM    6  H   UNL     1      -9.852  19.397  70.279  1.00  0.00     0.000 HD 
BRANCH   4   7
HETATM    7  C   UNL     1      -9.421  17.882  68.265  1.00  0.00    -0.300 C  
HETATM    8  H   UNL     1      -9.970  16.445  67.075  1.00  0.00     0.000 HD 
HETATM    9  O   UNL     1     -10.088  17.386  67.130  1.00  0.00    -0.288 OA 
BRANCH   7  10
HETATM   10  C   UNL     1      -7.922  17.490  68.182  1.00  0.00    -0.250 C  
HETATM   11  H   UNL     1      -6.534  17.006  69.435  1.00  0.00     0.000 HD 
HETATM   12  O   UNL     1      -7.452  17.247  69.486  1.00  0.00    -0.020 OA 
BRANCH  10  13
HETATM   13  C   UNL     1      -7.033  18.579  67.521  1.00  0.00    -0.205 C  
HETATM   14  H   UNL     1      -5.454  19.607  67.995  1.00  0.00     0.000 HD 
HETATM   15  O   UNL     1      -5.998  18.940  68.399  1.00  0.00    -0.210 OA 
BRANCH  13  16
HETATM   16  C   UNL     1      -6.404  18.135  66.222  1.00  0.00    -0.214 C  
HETATM   17  O   UNL     1      -6.671  18.726  65.187  1.00  0.00    -0.496 OA 
BRANCH  16  18
HETATM   18  O   UNL     1      -5.560  17.085  66.179  1.00  0.00    -0.321 OA 
BRANCH  18  19
HETATM   19 CA   UNL     1      -6.028  15.141  67.543  1.00  0.00    -0.106 Ca 
BRANCH  19  20
HETATM   20  O   UNL     1      -6.496  13.197  68.906  1.00  0.00    -0.085 OA 
BRANCH  20  21
HETATM   21  C   UNL     1      -7.476  12.486  68.323  1.00  0.00    -0.122 C  
HETATM   22  O   UNL     1      -7.317  11.283  68.205  1.00  0.00    -0.085 OA 
BRANCH  21  23
HETATM   23  C   UNL     1      -8.665  13.155  67.669  1.00  0.00    -0.192 C  
HETATM   24  H   UNL     1      -9.043  14.884  66.899  1.00  0.00     0.000 HD 
HETATM   25  O   UNL     1      -8.296  14.464  67.310  1.00  0.00    -0.191 OA 
BRANCH  23  26
HETATM   26  C   UNL     1      -9.947  13.213  68.554  1.00  0.00    -0.180 C  
HETATM   27  H   UNL     1     -11.314  14.520  68.983  1.00  0.00     0.000 HD 
HETATM   28  O   UNL     1     -10.533  14.485  68.443  1.00  0.00    -0.234 OA 
BRANCH  26  29
HETATM   29  C   UNL     1     -11.035  12.110  68.317  1.00  0.00    -0.234 C  
BRANCH  29  30
HETATM   30  O   UNL     1     -11.992  12.674  67.432  1.00  0.00    -0.398 OA 
BRANCH  30  31
HETATM   31  C   UNL     1     -11.993  12.158  66.117  1.00  0.00    -0.147 C  
HETATM   32  O   UNL     1     -10.728  11.593  65.814  1.00  0.00    -0.266 OA 
HETATM   33  C   UNL     1     -10.719  11.057  64.500  1.00  0.00    -0.264 C  
HETATM   34  H   UNL     1     -13.706  14.667  64.874  1.00  0.00     0.000 HD 
HETATM   35  C   UNL     1     -10.866  12.196  63.458  1.00  0.00    -0.458 C  
HETATM   36  O   UNL     1      -9.816  13.123  63.589  1.00  0.00    -0.628 OA 
HETATM   37  C   UNL     1     -12.217  12.901  63.699  1.00  0.00    -0.499 C  
HETATM   38  O   UNL     1     -13.528  13.938  65.455  1.00  0.00    -0.657 OA 
HETATM   39  H   UNL     1      -9.906  13.821  62.951  1.00  0.00     0.000 HD 
HETATM   40  O   UNL     1     -12.373  14.022  62.864  1.00  0.00    -1.011 OA 
HETATM   41  C   UNL     1     -12.283  13.348  65.168  1.00  0.00    -0.434 C  
HETATM   42  H   UNL     1     -13.205  14.456  63.012  1.00  0.00     0.000 HD 
BRANCH  33  43
HETATM   43  C   UNL     1      -9.412  10.270  64.318  1.00  0.00    -0.307 C  
HETATM   44  O   UNL     1      -9.492   9.004  64.916  1.00  0.00    -0.435 OA 
HETATM   45  H   UNL     1      -8.684   8.518  64.804  1.00  0.00     0.000 HD 
ENDBRANCH  33  43
ENDBRANCH  30  31
ENDBRANCH  29  30
BRANCH  29  46
HETATM   46  C   UNL     1     -11.703  11.516  69.608  1.00  0.00    -0.351 C  
HETATM   47  O   UNL     1     -11.884  12.513  70.587  1.00  0.00    -0.511 OA 
HETATM   48  H   UNL     1     -12.289  12.154  71.367  1.00  0.00     0.000 HD 
BRANCH  46  49
HETATM   49  C   UNL     1     -11.017  10.253  70.178  1.00  0.00    -0.314 C  
HETATM   50  H   UNL     1     -11.529   8.649  71.170  1.00  0.00     0.000 HD 
HETATM   51  O   UNL     1     -11.951   9.425  70.819  1.00  0.00    -0.279 OA 
ENDBRANCH  46  49
ENDBRANCH  29  46
ENDBRANCH  26  29
ENDBRANCH  23  26
ENDBRANCH  21  23
ENDBRANCH  20  21
ENDBRANCH  19  20
ENDBRANCH  18  19
ENDBRANCH  16  18
ENDBRANCH  13  16
ENDBRANCH  10  13
ENDBRANCH   7  10
ENDBRANCH   4   7
ENDBRANCH   2   4
TORSDOF 17
ENDMDL
MODEL       28
REMARK 921   NORMALIZED FREE ENERGY PREDICTED BY IDOCK:   -5.92 KCAL/MOL
REMARK 922        TOTAL FREE ENERGY PREDICTED BY IDOCK:  -15.25 KCAL/MOL
REMARK 923 INTER-LIGAND FREE ENERGY PREDICTED BY IDOCK:  -11.01 KCAL/MOL
REMARK 924 INTRA-LIGAND FREE ENERGY PREDICTED BY IDOCK:   -4.24 KCAL/MOL
REMARK 927      BINDING AFFINITY PREDICTED BY RF-SCORE:    0.00 PKD
ROOT
HETATM    1  O   UNL     1     -12.515  13.915  62.870  1.00  0.00    -1.034 OA 
HETATM    2  C   UNL     1     -11.750  12.954  63.546  1.00  0.00    -0.512 C  
HETATM    3  H   UNL     1     -12.891  13.531  62.086  1.00  0.00     0.000 HD 
ENDROOT
BRANCH   2   4
HETATM    4  C   UNL     1     -11.142  13.576  64.814  1.00  0.00    -0.359 C  
HETATM    5  O   UNL     1     -10.064  14.404  64.454  1.00  0.00    -0.610 OA 
HETATM    6  H   UNL     1      -9.688  14.789  65.238  1.00  0.00     0.000 HD 
BRANCH   4   7
HETATM    7  C   UNL     1     -12.190  14.406  65.602  1.00  0.00    -0.344 C  
HETATM    8  H   UNL     1     -14.114  14.372  65.880  1.00  0.00     0.000 HD 
HETATM    9  O   UNL     1     -13.472  13.864  65.398  1.00  0.00    -0.672 OA 
BRANCH   7  10
HETATM   10  C   UNL     1     -11.887  14.428  67.124  1.00  0.00    -0.410 C  
HETATM   11  H   UNL     1     -11.093  15.671  68.371  1.00  0.00     0.000 HD 
HETATM   12  O   UNL     1     -11.279  15.658  67.439  1.00  0.00    -0.306 OA 
BRANCH  10  13
HETATM   13  C   UNL     1     -10.957  13.273  67.587  1.00  0.00    -0.262 C  
HETATM   14  H   UNL     1      -9.601  12.999  68.950  1.00  0.00     0.000 HD 
HETATM   15  O   UNL     1     -10.170  13.705  68.667  1.00  0.00    -0.232 OA 
BRANCH  13  16
HETATM   16  C   UNL     1     -11.707  12.037  68.024  1.00  0.00    -0.331 C  
HETATM   17  O   UNL     1     -11.933  11.149  67.217  1.00  0.00    -0.452 OA 
BRANCH  16  18
HETATM   18  O   UNL     1     -12.143  11.900  69.292  1.00  0.00    -0.282 OA 
BRANCH  18  19
HETATM   19 CA   UNL     1     -12.124   9.706  70.314  1.00  0.00    -0.260 Ca 
BRANCH  19  20
HETATM   20  O   UNL     1     -12.106   7.513  71.336  1.00  0.00    -0.303 OA 
BRANCH  20  21
HETATM   21  C   UNL     1     -11.271   7.534  72.388  1.00  0.00    -0.308 C  
HETATM   22  O   UNL     1     -10.716   8.586  72.655  1.00  0.00    -0.302 OA 
BRANCH  21  23
HETATM   23  C   UNL     1     -10.882   6.271  73.123  1.00  0.00    -0.254 C  
HETATM   24  H   UNL     1     -10.172   5.832  74.864  1.00  0.00     0.000 HD 
HETATM   25  O   UNL     1     -10.416   6.625  74.402  1.00  0.00    -0.309 OA 
BRANCH  23  26
HETATM   26  C   UNL     1      -9.796   5.410  72.407  1.00  0.00    -0.163 C  
HETATM   27  H   UNL     1      -9.735   4.137  70.946  1.00  0.00     0.000 HD 
HETATM   28  O   UNL     1     -10.397   4.661  71.382  1.00  0.00    -0.176 OA 
BRANCH  26  29
HETATM   29  C   UNL     1      -8.539   6.160  71.845  1.00  0.00    -0.132 C  
BRANCH  29  30
HETATM   30  O   UNL     1      -8.319   5.649  70.538  1.00  0.00    -0.113 OA 
BRANCH  30  31
HETATM   31  C   UNL     1      -8.296   6.606  69.499  1.00  0.00    -0.131 C  
HETATM   32  O   UNL     1      -8.663   7.880  70.001  1.00  0.00    -0.137 OA 
HETATM   33  C   UNL     1      -8.630   8.855  68.970  1.00  0.00    -0.138 C  
HETATM   34  H   UNL     1      -9.619   4.582  67.278  1.00  0.00     0.000 HD 
HETATM   35  C   UNL     1      -9.725   8.553  67.914  1.00  0.00    -0.162 C  
HETATM   36  O   UNL     1     -10.999   8.550  68.511  1.00  0.00    -0.441 OA 
HETATM   37  C   UNL     1      -9.435   7.168  67.299  1.00  0.00    -0.140 C  
HETATM   38  O   UNL     1      -8.990   4.868  67.930  1.00  0.00    -0.106 OA 
HETATM   39  H   UNL     1     -11.669   8.365  67.865  1.00  0.00     0.000 HD 
HETATM   40  O   UNL     1     -10.451   6.771  66.411  1.00  0.00    -0.476 OA 
HETATM   41  C   UNL     1      -9.323   6.138  68.436  1.00  0.00    -0.116 C  
HETATM   42  H   UNL     1     -10.272   5.918  66.033  1.00  0.00     0.000 HD 
BRANCH  33  43
HETATM   43  C   UNL     1      -8.815  10.236  69.618  1.00  0.00    -0.103 C  
HETATM   44  O   UNL     1     -10.009  10.300  70.350  1.00  0.00    -0.386 OA 
HETATM   45  H   UNL     1     -10.123  11.153  70.751  1.00  0.00     0.000 HD 
ENDBRANCH  33  43
ENDBRANCH  30  31
ENDBRANCH  29  30
BRANCH  29  46
HETATM   46  C   UNL     1      -7.246   6.092  72.731  1.00  0.00    -0.085 C  
HETATM   47  O   UNL     1      -7.429   5.226  73.826  1.00  0.00    -0.089 OA 
HETATM   48  H   UNL     1      -6.647   5.185  74.362  1.00  0.00     0.000 HD 
BRANCH  46  49
HETATM   49  C   UNL     1      -6.673   7.463  73.159  1.00  0.00    -0.065 C  
HETATM   50  H   UNL     1      -7.282   9.318  73.266  1.00  0.00     0.000 HD 
HETATM   51  O   UNL     1      -7.634   8.475  73.003  1.00  0.00    -0.306 OA 
ENDBRANCH  46  49
ENDBRANCH  29  46
ENDBRANCH  26  29
ENDBRANCH  23  26
ENDBRANCH  21  23
ENDBRANCH  20  21
ENDBRANCH  19  20
ENDBRANCH  18  19
ENDBRANCH  16  18
ENDBRANCH  13  16
ENDBRANCH  10  13
ENDBRANCH   7  10
ENDBRANCH   4   7
ENDBRANCH   2   4
TORSDOF 17
ENDMDL
MODEL       29
REMARK 921   NORMALIZED FREE ENERGY PREDICTED BY IDOCK:   -5.92 KCAL/MOL
REMARK 922        TOTAL FREE ENERGY PREDICTED BY IDOCK:  -15.24 KCAL/MOL
REMARK 923 INTER-LIGAND FREE ENERGY PREDICTED BY IDOCK:  -12.23 KCAL/MOL
REMARK 924 INTRA-LIGAND FREE ENERGY PREDICTED BY IDOCK:   -3.01 KCAL/MOL
REMARK 927      BINDING AFFINITY PREDICTED BY RF-SCORE:    0.00 PKD
ROOT
HETATM    1  O   UNL     1      -8.280   8.470  73.527  1.00  0.00    -0.381 OA 
HETATM    2  C   UNL     1      -8.423   7.084  73.373  1.00  0.00    -0.128 C  
HETATM    3  H   UNL     1      -7.781   8.655  74.314  1.00  0.00     0.000 HD 
ENDROOT
BRANCH   2   4
HETATM    4  C   UNL     1      -9.230   6.785  72.099  1.00  0.00    -0.136 C  
HETATM    5  O   UNL     1      -8.790   5.570  71.545  1.00  0.00    -0.134 OA 
HETATM    6  H   UNL     1      -9.289   5.385  70.758  1.00  0.00     0.000 HD 
BRANCH   4   7
HETATM    7  C   UNL     1     -10.750   6.698  72.394  1.00  0.00    -0.223 C  
HETATM    8  H   UNL     1     -11.938   7.109  73.878  1.00  0.00     0.000 HD 
HETATM    9  O   UNL     1     -11.007   7.163  73.697  1.00  0.00    -0.287 OA 
BRANCH   7  10
HETATM   10  C   UNL     1     -11.585   7.533  71.387  1.00  0.00    -0.275 C  
HETATM   11  H   UNL     1     -11.519   7.911  69.494  1.00  0.00     0.000 HD 
HETATM   12  O   UNL     1     -11.008   7.399  70.111  1.00  0.00    -0.253 OA 
BRANCH  10  13
HETATM   13  C   UNL     1     -11.662   9.042  71.749  1.00  0.00    -0.369 C  
HETATM   14  H   UNL     1     -10.863  10.698  71.121  1.00  0.00     0.000 HD 
HETATM   15  O   UNL     1     -10.816   9.775  70.900  1.00  0.00    -0.310 OA 
BRANCH  13  16
HETATM   16  C   UNL     1     -13.053   9.618  71.627  1.00  0.00    -0.412 C  
HETATM   17  O   UNL     1     -13.993   9.050  72.161  1.00  0.00    -0.431 OA 
BRANCH  16  18
HETATM   18  O   UNL     1     -13.281  10.748  70.927  1.00  0.00    -0.278 OA 
BRANCH  18  19
HETATM   19 CA   UNL     1     -12.197  12.800  71.615  1.00  0.00    -0.283 Ca 
BRANCH  19  20
HETATM   20  O   UNL     1     -11.115  14.851  72.303  1.00  0.00    -0.047 OA 
BRANCH  20  21
HETATM   21  C   UNL     1     -11.722  15.885  71.695  1.00  0.00    -0.485 C  
HETATM   22  O   UNL     1     -12.217  16.750  72.397  1.00  0.00    -0.115 OA 
BRANCH  21  23
HETATM   23  C   UNL     1     -11.950  15.907  70.200  1.00  0.00    -0.288 C  
HETATM   24  H   UNL     1     -12.388  14.613  68.837  1.00  0.00     0.000 HD 
HETATM   25  O   UNL     1     -12.245  14.599  69.775  1.00  0.00    -0.313 OA 
BRANCH  23  26
HETATM   26  C   UNL     1     -10.751  16.454  69.367  1.00  0.00    -0.324 C  
HETATM   27  H   UNL     1      -8.938  15.899  68.963  1.00  0.00     0.000 HD 
HETATM   28  O   UNL     1      -9.668  15.566  69.471  1.00  0.00    -0.258 OA 
BRANCH  26  29
HETATM   29  C   UNL     1     -11.016  16.788  67.858  1.00  0.00    -0.260 C  
BRANCH  29  30
HETATM   30  O   UNL     1     -10.373  15.771  67.104  1.00  0.00    -0.278 OA 
BRANCH  30  31
HETATM   31  C   UNL     1     -11.208  14.730  66.637  1.00  0.00    -0.346 C  
HETATM   32  O   UNL     1     -10.714  13.475  67.074  1.00  0.00    -0.273 OA 
HETATM   33  C   UNL     1     -11.552  12.421  66.625  1.00  0.00    -0.385 C  
HETATM   34  H   UNL     1     -11.646  16.082  63.678  1.00  0.00     0.000 HD 
HETATM   35  C   UNL     1     -11.493  12.315  65.079  1.00  0.00    -0.336 C  
HETATM   36  O   UNL     1     -10.174  12.075  64.651  1.00  0.00    -0.267 OA 
HETATM   37  C   UNL     1     -12.001  13.644  64.482  1.00  0.00    -0.418 C  
HETATM   38  O   UNL     1     -11.659  16.041  64.626  1.00  0.00    -0.312 OA 
HETATM   39  H   UNL     1     -10.138  12.010  63.704  1.00  0.00     0.000 HD 
HETATM   40  O   UNL     1     -11.871  13.668  63.082  1.00  0.00    -0.692 OA 
HETATM   41  C   UNL     1     -11.186  14.799  65.089  1.00  0.00    -0.382 C  
HETATM   42  H   UNL     1     -12.184  14.486  62.715  1.00  0.00     0.000 HD 
BRANCH  33  43
HETATM   43  C   UNL     1     -11.095  11.126  67.314  1.00  0.00    -0.302 C  
HETATM   44  O   UNL     1     -11.998  10.733  68.311  1.00  0.00    -0.768 OA 
HETATM   45  H   UNL     1     -11.716   9.932  68.736  1.00  0.00     0.000 HD 
ENDBRANCH  33  43
ENDBRANCH  30  31
ENDBRANCH  29  30
BRANCH  29  46
HETATM   46  C   UNL     1     -10.595  18.225  67.389  1.00  0.00    -0.401 C  
HETATM   47  O   UNL     1     -10.451  18.277  65.988  1.00  0.00    -0.450 OA 
HETATM   48  H   UNL     1     -10.197  19.146  65.704  1.00  0.00     0.000 HD 
BRANCH  46  49
HETATM   49  C   UNL     1      -9.374  18.823  68.125  1.00  0.00    -0.316 C  
HETATM   50  H   UNL     1      -8.106  20.289  67.874  1.00  0.00     0.000 HD 
HETATM   51  O   UNL     1      -8.857  19.922  67.422  1.00  0.00    -0.313 OA 
ENDBRANCH  46  49
ENDBRANCH  29  46
ENDBRANCH  26  29
ENDBRANCH  23  26
ENDBRANCH  21  23
ENDBRANCH  20  21
ENDBRANCH  19  20
ENDBRANCH  18  19
ENDBRANCH  16  18
ENDBRANCH  13  16
ENDBRANCH  10  13
ENDBRANCH   7  10
ENDBRANCH   4   7
ENDBRANCH   2   4
TORSDOF 17
ENDMDL
MODEL       30
REMARK 921   NORMALIZED FREE ENERGY PREDICTED BY IDOCK:   -5.91 KCAL/MOL
REMARK 922        TOTAL FREE ENERGY PREDICTED BY IDOCK:  -15.23 KCAL/MOL
REMARK 923 INTER-LIGAND FREE ENERGY PREDICTED BY IDOCK:  -11.75 KCAL/MOL
REMARK 924 INTRA-LIGAND FREE ENERGY PREDICTED BY IDOCK:   -3.48 KCAL/MOL
REMARK 927      BINDING AFFINITY PREDICTED BY RF-SCORE:    0.00 PKD
ROOT
HETATM    1  O   UNL     1     -10.409  17.407  66.917  1.00  0.00    -0.320 OA 
HETATM    2  C   UNL     1     -10.495  17.401  65.518  1.00  0.00    -0.101 C  
HETATM    3  H   UNL     1     -10.020  18.224  67.210  1.00  0.00     0.000 HD 
ENDROOT
BRANCH   2   4
HETATM    4  C   UNL     1     -11.124  16.080  65.045  1.00  0.00    -0.336 C  
HETATM    5  O   UNL     1     -11.623  16.244  63.741  1.00  0.00    -1.539 OA 
HETATM    6  H   UNL     1     -12.012  15.428  63.448  1.00  0.00     0.000 HD 
BRANCH   4   7
HETATM    7  C   UNL     1     -10.094  14.920  65.062  1.00  0.00    -0.265 C  
HETATM    8  H   UNL     1      -8.649  14.316  66.213  1.00  0.00     0.000 HD 
HETATM    9  O   UNL     1      -9.280  15.026  66.204  1.00  0.00    -0.292 OA 
BRANCH   7  10
HETATM   10  C   UNL     1     -10.786  13.530  65.062  1.00  0.00    -0.357 C  
HETATM   11  H   UNL     1     -11.473  12.312  63.730  1.00  0.00     0.000 HD 
HETATM   12  O   UNL     1     -11.049  13.163  63.729  1.00  0.00    -0.371 OA 
BRANCH  10  13
HETATM   13  C   UNL     1     -12.116  13.501  65.864  1.00  0.00    -0.435 C  
HETATM   14  H   UNL     1     -13.875  12.700  65.673  1.00  0.00     0.000 HD 
HETATM   15  O   UNL     1     -13.061  12.718  65.182  1.00  0.00    -0.750 OA 
BRANCH  13  16
HETATM   16  C   UNL     1     -11.965  12.939  67.258  1.00  0.00    -0.309 C  
HETATM   17  O   UNL     1     -11.650  13.678  68.178  1.00  0.00    -0.291 OA 
BRANCH  16  18
HETATM   18  O   UNL     1     -12.160  11.628  67.505  1.00  0.00    -0.611 OA 
BRANCH  18  19
HETATM   19 CA   UNL     1     -10.611  10.012  66.584  1.00  0.00    -0.202 Ca 
BRANCH  19  20
HETATM   20  O   UNL     1      -9.064   8.396  65.662  1.00  0.00    -0.172 OA 
BRANCH  20  21
HETATM   21  C   UNL     1      -8.598   7.626  66.661  1.00  0.00    -0.133 C  
HETATM   22  O   UNL     1      -7.889   6.678  66.367  1.00  0.00    -0.100 OA 
BRANCH  21  23
HETATM   23  C   UNL     1      -9.066   7.803  68.088  1.00  0.00    -0.129 C  
HETATM   24  H   UNL     1     -10.765   7.968  68.988  1.00  0.00     0.000 HD 
HETATM   25  O   UNL     1     -10.471   7.858  68.092  1.00  0.00    -0.207 OA 
BRANCH  23  26
HETATM   26  C   UNL     1      -8.506   9.070  68.804  1.00  0.00    -0.131 C  
HETATM   27  H   UNL     1      -9.000  10.938  68.968  1.00  0.00     0.000 HD 
HETATM   28  O   UNL     1      -9.341  10.166  68.532  1.00  0.00    -0.143 OA 
BRANCH  26  29
HETATM   29  C   UNL     1      -8.253   8.971  70.348  1.00  0.00    -0.151 C  
BRANCH  29  30
HETATM   30  O   UNL     1      -9.294   9.708  70.973  1.00  0.00    -0.170 OA 
BRANCH  30  31
HETATM   31  C   UNL     1     -10.266   8.942  71.656  1.00  0.00    -0.345 C  
HETATM   32  O   UNL     1     -10.024   7.559  71.457  1.00  0.00    -0.177 OA 
HETATM   33  C   UNL     1     -10.984   6.777  72.151  1.00  0.00    -0.238 C  
HETATM   34  H   UNL     1     -12.747  10.941  70.868  1.00  0.00     0.000 HD 
HETATM   35  C   UNL     1     -12.391   6.990  71.535  1.00  0.00    -0.379 C  
HETATM   36  O   UNL     1     -12.395   6.632  70.175  1.00  0.00    -0.561 OA 
HETATM   37  C   UNL     1     -12.763   8.480  71.683  1.00  0.00    -0.332 C  
HETATM   38  O   UNL     1     -11.904  10.703  71.232  1.00  0.00    -0.302 OA 
HETATM   39  H   UNL     1     -13.257   6.764  69.798  1.00  0.00     0.000 HD 
HETATM   40  O   UNL     1     -13.981   8.777  71.045  1.00  0.00    -0.595 OA 
HETATM   41  C   UNL     1     -11.643   9.331  71.061  1.00  0.00    -0.313 C  
HETATM   42  H   UNL     1     -14.210   9.695  71.137  1.00  0.00     0.000 HD 
BRANCH  33  43
HETATM   43  C   UNL     1     -10.538   5.308  72.081  1.00  0.00    -0.221 C  
HETATM   44  O   UNL     1     -10.288   4.913  70.759  1.00  0.00    -0.222 OA 
HETATM   45  H   UNL     1     -10.012   4.006  70.716  1.00  0.00     0.000 HD 
ENDBRANCH  33  43
ENDBRANCH  30  31
ENDBRANCH  29  30
BRANCH  29  46
HETATM   46  C   UNL     1      -6.833   9.423  70.841  1.00  0.00    -0.098 C  
HETATM   47  O   UNL     1      -5.916   9.461  69.773  1.00  0.00    -0.035 OA 
HETATM   48  H   UNL     1      -5.057   9.734  70.071  1.00  0.00     0.000 HD 
BRANCH  46  49
HETATM   49  C   UNL     1      -6.284   8.641  72.056  1.00  0.00    -0.072 C  
HETATM   50  H   UNL     1      -6.730   8.396  73.944  1.00  0.00     0.000 HD 
HETATM   51  O   UNL     1      -7.068   8.876  73.197  1.00  0.00    -0.344 OA 
ENDBRANCH  46  49
ENDBRANCH  29  46
ENDBRANCH  26  29
ENDBRANCH  23  26
ENDBRANCH  21  23
ENDBRANCH  20  21
ENDBRANCH  19  20
ENDBRANCH  18  19
ENDBRANCH  16  18
ENDBRANCH  13  16
ENDBRANCH  10  13
ENDBRANCH   7  10
ENDBRANCH   4   7
ENDBRANCH   2   4
TORSDOF 17
ENDMDL
MODEL       31
REMARK 921   NORMALIZED FREE ENERGY PREDICTED BY IDOCK:   -5.91 KCAL/MOL
REMARK 922        TOTAL FREE ENERGY PREDICTED BY IDOCK:  -15.22 KCAL/MOL
REMARK 923 INTER-LIGAND FREE ENERGY PREDICTED BY IDOCK:  -12.08 KCAL/MOL
REMARK 924 INTRA-LIGAND FREE ENERGY PREDICTED BY IDOCK:   -3.14 KCAL/MOL
REMARK 927      BINDING AFFINITY PREDICTED BY RF-SCORE:    0.00 PKD
ROOT
HETATM    1  O   UNL     1     -13.507   9.421  70.804  1.00  0.00    -0.578 OA 
HETATM    2  C   UNL     1     -13.274   8.637  71.942  1.00  0.00    -0.375 C  
HETATM    3  H   UNL     1     -14.430   9.640  70.751  1.00  0.00     0.000 HD 
ENDROOT
BRANCH   2   4
HETATM    4  C   UNL     1     -11.779   8.283  72.029  1.00  0.00    -0.346 C  
HETATM    5  O   UNL     1     -11.482   7.839  73.329  1.00  0.00    -0.615 OA 
HETATM    6  H   UNL     1     -10.559   7.621  73.383  1.00  0.00     0.000 HD 
BRANCH   4   7
HETATM    7  C   UNL     1     -11.394   7.181  71.006  1.00  0.00    -0.279 C  
HETATM    8  H   UNL     1     -12.295   5.748  70.050  1.00  0.00     0.000 HD 
HETATM    9  O   UNL     1     -12.532   6.422  70.676  1.00  0.00    -0.076 OA 
BRANCH   7  10
HETATM   10  C   UNL     1     -10.792   7.780  69.707  1.00  0.00    -0.209 C  
HETATM   11  H   UNL     1     -10.645   7.241  67.859  1.00  0.00     0.000 HD 
HETATM   12  O   UNL     1     -11.013   6.874  68.654  1.00  0.00    -0.206 OA 
BRANCH  10  13
HETATM   13  C   UNL     1      -9.269   8.072  69.808  1.00  0.00    -0.149 C  
HETATM   14  H   UNL     1      -7.724   7.983  68.636  1.00  0.00     0.000 HD 
HETATM   15  O   UNL     1      -8.655   7.805  68.574  1.00  0.00    -0.128 OA 
BRANCH  13  16
HETATM   16  C   UNL     1      -8.956   9.502  70.182  1.00  0.00    -0.236 C  
HETATM   17  O   UNL     1      -8.232   9.732  71.139  1.00  0.00    -0.126 OA 
BRANCH  16  18
HETATM   18  O   UNL     1      -9.472  10.534  69.485  1.00  0.00    -0.179 OA 
BRANCH  18  19
HETATM   19 CA   UNL     1     -11.058  12.009  70.563  1.00  0.00    -0.476 Ca 
BRANCH  19  20
HETATM   20  O   UNL     1     -12.645  13.484  71.641  1.00  0.00    -0.304 OA 
BRANCH  20  21
HETATM   21  C   UNL     1     -12.529  14.710  71.104  1.00  0.00    -0.332 C  
HETATM   22  O   UNL     1     -12.958  15.656  71.743  1.00  0.00    -0.422 OA 
BRANCH  21  23
HETATM   23  C   UNL     1     -12.047  14.917  69.686  1.00  0.00    -0.295 C  
HETATM   24  H   UNL     1     -11.474  13.787  68.229  1.00  0.00     0.000 HD 
HETATM   25  O   UNL     1     -11.776  13.658  69.120  1.00  0.00    -0.283 OA 
BRANCH  23  26
HETATM   26  C   UNL     1     -10.780  15.816  69.554  1.00  0.00    -0.278 C  
HETATM   27  H   UNL     1      -8.915  15.720  70.074  1.00  0.00     0.000 HD 
HETATM   28  O   UNL     1      -9.687  15.172  70.155  1.00  0.00    -0.066 OA 
BRANCH  26  29
HETATM   29  C   UNL     1     -10.383  16.293  68.114  1.00  0.00    -0.277 C  
BRANCH  29  30
HETATM   30  O   UNL     1      -9.270  15.502  67.722  1.00  0.00    -0.179 OA 
BRANCH  30  31
HETATM   31  C   UNL     1      -9.495  14.612  66.648  1.00  0.00    -0.278 C  
HETATM   32  O   UNL     1     -10.833  14.728  66.190  1.00  0.00    -0.308 OA 
HETATM   33  C   UNL     1     -11.068  13.849  65.101  1.00  0.00    -0.334 C  
HETATM   34  H   UNL     1      -7.769  12.166  67.996  1.00  0.00     0.000 HD 
HETATM   35  C   UNL     1     -10.974  12.375  65.574  1.00  0.00    -0.293 C  
HETATM   36  O   UNL     1     -11.915  12.122  66.589  1.00  0.00    -0.616 OA 
HETATM   37  C   UNL     1      -9.549  12.130  66.112  1.00  0.00    -0.240 C  
HETATM   38  O   UNL     1      -7.925  13.042  67.664  1.00  0.00    -0.143 OA 
HETATM   39  H   UNL     1     -11.857  11.219  66.878  1.00  0.00     0.000 HD 
HETATM   40  O   UNL     1      -9.418  10.844  66.666  1.00  0.00    -0.174 OA 
HETATM   41  C   UNL     1      -9.242  13.182  67.190  1.00  0.00    -0.227 C  
HETATM   42  H   UNL     1      -8.540  10.693  66.997  1.00  0.00     0.000 HD 
BRANCH  33  43
HETATM   43  C   UNL     1     -12.449  14.183  64.514  1.00  0.00    -0.322 C  
HETATM   44  O   UNL     1     -12.397  14.286  63.116  1.00  0.00    -1.096 OA 
HETATM   45  H   UNL     1     -13.250  14.491  62.754  1.00  0.00     0.000 HD 
ENDBRANCH  33  43
ENDBRANCH  30  31
ENDBRANCH  29  30
BRANCH  29  46
HETATM   46  C   UNL     1     -10.102  17.828  67.952  1.00  0.00    -0.342 C  
HETATM   47  O   UNL     1     -10.406  18.525  69.138  1.00  0.00    -0.483 OA 
HETATM   48  H   UNL     1     -10.235  19.454  69.040  1.00  0.00     0.000 HD 
BRANCH  46  49
HETATM   49  C   UNL     1     -10.745  18.483  66.707  1.00  0.00    -0.257 C  
HETATM   50  H   UNL     1     -10.575  18.377  64.763  1.00  0.00     0.000 HD 
HETATM   51  O   UNL     1     -10.180  17.974  65.528  1.00  0.00    -0.556 OA 
ENDBRANCH  46  49
ENDBRANCH  29  46
ENDBRANCH  26  29
ENDBRANCH  23  26
ENDBRANCH  21  23
ENDBRANCH  20  21
ENDBRANCH  19  20
ENDBRANCH  18  19
ENDBRANCH  16  18
ENDBRANCH  13  16
ENDBRANCH  10  13
ENDBRANCH   7  10
ENDBRANCH   4   7
ENDBRANCH   2   4
TORSDOF 17
ENDMDL
MODEL       32
REMARK 921   NORMALIZED FREE ENERGY PREDICTED BY IDOCK:   -5.89 KCAL/MOL
REMARK 922        TOTAL FREE ENERGY PREDICTED BY IDOCK:  -15.18 KCAL/MOL
REMARK 923 INTER-LIGAND FREE ENERGY PREDICTED BY IDOCK:  -12.91 KCAL/MOL
REMARK 924 INTRA-LIGAND FREE ENERGY PREDICTED BY IDOCK:   -2.27 KCAL/MOL
REMARK 927      BINDING AFFINITY PREDICTED BY RF-SCORE:    0.00 PKD
ROOT
HETATM    1  O   UNL     1     -13.681   7.509  72.168  1.00  0.00    -0.512 OA 
HETATM    2  C   UNL     1     -12.642   8.376  71.804  1.00  0.00    -0.342 C  
HETATM    3  H   UNL     1     -14.518   7.909  71.964  1.00  0.00     0.000 HD 
ENDROOT
BRANCH   2   4
HETATM    4  C   UNL     1     -11.287   7.728  72.135  1.00  0.00    -0.302 C  
HETATM    5  O   UNL     1     -11.432   6.897  73.260  1.00  0.00    -0.506 OA 
HETATM    6  H   UNL     1     -10.595   6.496  73.464  1.00  0.00     0.000 HD 
BRANCH   4   7
HETATM    7  C   UNL     1     -10.747   6.894  70.943  1.00  0.00    -0.230 C  
HETATM    8  H   UNL     1     -11.423   6.240  69.241  1.00  0.00     0.000 HD 
HETATM    9  O   UNL     1     -11.754   6.750  69.971  1.00  0.00    -0.337 OA 
BRANCH   7  10
HETATM   10  C   UNL     1      -9.504   7.555  70.289  1.00  0.00    -0.165 C  
HETATM   11  H   UNL     1      -7.587   7.431  70.493  1.00  0.00     0.000 HD 
HETATM   12  O   UNL     1      -8.348   7.027  70.894  1.00  0.00    -0.126 OA 
BRANCH  10  13
HETATM   13  C   UNL     1      -9.481   9.102  70.428  1.00  0.00    -0.227 C  
HETATM   14  H   UNL     1      -8.332  10.441  71.240  1.00  0.00     0.000 HD 
HETATM   15  O   UNL     1      -8.346   9.495  71.156  1.00  0.00    -0.285 OA 
BRANCH  13  16
HETATM   16  C   UNL     1      -9.454   9.824  69.101  1.00  0.00    -0.188 C  
HETATM   17  O   UNL     1      -8.739  10.803  68.959  1.00  0.00    -0.161 OA 
BRANCH  16  18
HETATM   18  O   UNL     1     -10.216   9.411  68.068  1.00  0.00    -0.182 OA 
BRANCH  18  19
HETATM   19 CA   UNL     1     -10.488  10.862  66.151  1.00  0.00    -0.205 Ca 
BRANCH  19  20
HETATM   20  O   UNL     1     -10.761  12.314  64.234  1.00  0.00    -0.301 OA 
BRANCH  20  21
HETATM   21  C   UNL     1     -12.002  12.830  64.256  1.00  0.00    -0.405 C  
HETATM   22  O   UNL     1     -12.877  12.238  63.648  1.00  0.00    -0.753 OA 
BRANCH  21  23
HETATM   23  C   UNL     1     -12.290  14.187  64.859  1.00  0.00    -0.430 C  
HETATM   24  H   UNL     1     -12.926  15.892  64.215  1.00  0.00     0.000 HD 
HETATM   25  O   UNL     1     -12.744  15.040  63.836  1.00  0.00    -0.775 OA 
BRANCH  23  26
HETATM   26  C   UNL     1     -11.076  14.852  65.574  1.00  0.00    -0.352 C  
HETATM   27  H   UNL     1      -9.950  16.407  65.301  1.00  0.00     0.000 HD 
HETATM   28  O   UNL     1     -10.690  16.001  64.865  1.00  0.00    -0.576 OA 
BRANCH  26  29
HETATM   29  C   UNL     1     -11.239  15.202  67.094  1.00  0.00    -0.320 C  
BRANCH  29  30
HETATM   30  O   UNL     1      -9.926  15.296  67.628  1.00  0.00    -0.221 OA 
BRANCH  30  31
HETATM   31  C   UNL     1      -9.595  16.528  68.235  1.00  0.00    -0.223 C  
HETATM   32  O   UNL     1     -10.027  17.605  67.420  1.00  0.00    -0.299 OA 
HETATM   33  C   UNL     1      -9.715  18.850  68.026  1.00  0.00    -0.337 C  
HETATM   34  H   UNL     1      -6.649  15.508  69.261  1.00  0.00     0.000 HD 
HETATM   35  C   UNL     1      -8.177  19.040  68.092  1.00  0.00    -0.314 C  
HETATM   36  O   UNL     1      -7.619  18.997  66.801  1.00  0.00    -0.222 OA 
HETATM   37  C   UNL     1      -7.586  17.905  68.953  1.00  0.00    -0.217 C  
HETATM   38  O   UNL     1      -7.594  15.490  69.173  1.00  0.00    -0.169 OA 
HETATM   39  H   UNL     1      -6.677  19.113  66.842  1.00  0.00     0.000 HD 
HETATM   40  O   UNL     1      -6.180  17.942  68.967  1.00  0.00    -0.203 OA 
HETATM   41  C   UNL     1      -8.053  16.557  68.379  1.00  0.00    -0.196 C  
HETATM   42  H   UNL     1      -5.816  17.244  69.498  1.00  0.00     0.000 HD 
BRANCH  33  43
HETATM   43  C   UNL     1     -10.402  19.958  67.212  1.00  0.00    -0.437 C  
HETATM   44  O   UNL     1      -9.495  20.969  66.861  1.00  0.00    -0.672 OA 
HETATM   45  H   UNL     1      -9.919  21.653  66.358  1.00  0.00     0.000 HD 
ENDBRANCH  33  43
ENDBRANCH  30  31
ENDBRANCH  29  30
BRANCH  29  46
HETATM   46  C   UNL     1     -12.147  14.232  67.928  1.00  0.00    -0.261 C  
HETATM   47  O   UNL     1     -12.618  14.861  69.097  1.00  0.00    -0.572 OA 
HETATM   48  H   UNL     1     -13.168  14.274  69.602  1.00  0.00     0.000 HD 
BRANCH  46  49
HETATM   49  C   UNL     1     -11.529  12.845  68.219  1.00  0.00    -0.311 C  
HETATM   50  H   UNL     1     -11.732  11.006  67.586  1.00  0.00     0.000 HD 
HETATM   51  O   UNL     1     -12.111  11.859  67.407  1.00  0.00    -0.577 OA 
ENDBRANCH  46  49
ENDBRANCH  29  46
ENDBRANCH  26  29
ENDBRANCH  23  26
ENDBRANCH  21  23
ENDBRANCH  20  21
ENDBRANCH  19  20
ENDBRANCH  18  19
ENDBRANCH  16  18
ENDBRANCH  13  16
ENDBRANCH  10  13
ENDBRANCH   7  10
ENDBRANCH   4   7
ENDBRANCH   2   4
TORSDOF 17
ENDMDL
MODEL       33
REMARK 921   NORMALIZED FREE ENERGY PREDICTED BY IDOCK:   -5.89 KCAL/MOL
REMARK 922        TOTAL FREE ENERGY PREDICTED BY IDOCK:  -15.18 KCAL/MOL
REMARK 923 INTER-LIGAND FREE ENERGY PREDICTED BY IDOCK:  -11.65 KCAL/MOL
REMARK 924 INTRA-LIGAND FREE ENERGY PREDICTED BY IDOCK:   -3.53 KCAL/MOL
REMARK 927      BINDING AFFINITY PREDICTED BY RF-SCORE:    0.00 PKD
ROOT
HETATM    1  O   UNL     1     -12.638  15.579  69.561  1.00  0.00    -0.604 OA 
HETATM    2  C   UNL     1     -11.701  14.556  69.761  1.00  0.00    -0.303 C  
HETATM    3  H   UNL     1     -13.166  15.687  70.344  1.00  0.00     0.000 HD 
ENDROOT
BRANCH   2   4
HETATM    4  C   UNL     1     -10.846  14.382  68.495  1.00  0.00    -0.251 C  
HETATM    5  O   UNL     1     -10.834  13.026  68.125  1.00  0.00    -0.231 OA 
HETATM    6  H   UNL     1     -10.305  12.919  67.342  1.00  0.00     0.000 HD 
BRANCH   4   7
HETATM    7  C   UNL     1     -11.391  15.234  67.318  1.00  0.00    -0.269 C  
HETATM    8  H   UNL     1     -11.097  17.015  66.594  1.00  0.00     0.000 HD 
HETATM    9  O   UNL     1     -10.763  16.493  67.315  1.00  0.00    -0.313 OA 
BRANCH   7  10
HETATM   10  C   UNL     1     -11.153  14.548  65.946  1.00  0.00    -0.327 C  
HETATM   11  H   UNL     1     -10.365  15.046  64.254  1.00  0.00     0.000 HD 
HETATM   12  O   UNL     1     -10.511  15.466  65.094  1.00  0.00    -0.392 OA 
BRANCH  10  13
HETATM   13  C   UNL     1     -12.460  14.058  65.265  1.00  0.00    -0.475 C  
HETATM   14  H   UNL     1     -13.372  14.336  63.572  1.00  0.00     0.000 HD 
HETATM   15  O   UNL     1     -12.572  14.635  63.989  1.00  0.00    -0.819 OA 
BRANCH  13  16
HETATM   16  C   UNL     1     -12.527  12.558  65.103  1.00  0.00    -0.379 C  
HETATM   17  O   UNL     1     -13.284  12.071  64.277  1.00  0.00    -0.710 OA 
BRANCH  16  18
HETATM   18  O   UNL     1     -11.772  11.741  65.864  1.00  0.00    -0.397 OA 
BRANCH  18  19
HETATM   19 CA   UNL     1     -12.490  11.231  68.118  1.00  0.00    -0.240 Ca 
BRANCH  19  20
HETATM   20  O   UNL     1     -13.208  10.720  70.372  1.00  0.00    -0.158 OA 
BRANCH  20  21
HETATM   21  C   UNL     1     -12.267   9.964  70.963  1.00  0.00    -0.353 C  
HETATM   22  O   UNL     1     -11.127  10.396  71.000  1.00  0.00    -0.204 OA 
BRANCH  21  23
HETATM   23  C   UNL     1     -12.551   8.549  71.416  1.00  0.00    -0.283 C  
HETATM   24  H   UNL     1     -14.000   7.634  72.304  1.00  0.00     0.000 HD 
HETATM   25  O   UNL     1     -13.822   8.522  72.019  1.00  0.00    -0.384 OA 
BRANCH  23  26
HETATM   26  C   UNL     1     -11.504   7.963  72.411  1.00  0.00    -0.376 C  
HETATM   27  H   UNL     1     -11.197   6.272  73.309  1.00  0.00     0.000 HD 
HETATM   28  O   UNL     1     -11.835   6.629  72.703  1.00  0.00    -0.162 OA 
BRANCH  26  29
HETATM   29  C   UNL     1      -9.993   8.052  72.002  1.00  0.00    -0.213 C  
BRANCH  29  30
HETATM   30  O   UNL     1      -9.745   6.951  71.139  1.00  0.00    -0.173 OA 
BRANCH  30  31
HETATM   31  C   UNL     1      -9.335   7.278  69.827  1.00  0.00    -0.150 C  
HETATM   32  O   UNL     1      -9.114   8.674  69.719  1.00  0.00    -0.146 OA 
HETATM   33  C   UNL     1      -8.686   9.015  68.409  1.00  0.00    -0.130 C  
HETATM   34  H   UNL     1     -11.435   5.201  68.394  1.00  0.00     0.000 HD 
HETATM   35  C   UNL     1      -9.825   8.748  67.390  1.00  0.00    -0.194 C  
HETATM   36  O   UNL     1     -10.967   9.502  67.717  1.00  0.00    -0.464 OA 
HETATM   37  C   UNL     1     -10.165   7.243  67.427  1.00  0.00    -0.236 C  
HETATM   38  O   UNL     1     -10.733   5.466  68.975  1.00  0.00    -0.199 OA 
HETATM   39  H   UNL     1     -11.664   9.338  67.093  1.00  0.00     0.000 HD 
HETATM   40  O   UNL     1     -11.269   6.941  66.610  1.00  0.00    -0.526 OA 
HETATM   41  C   UNL     1     -10.482   6.847  68.878  1.00  0.00    -0.208 C  
HETATM   42  H   UNL     1     -11.478   6.014  66.633  1.00  0.00     0.000 HD 
BRANCH  33  43
HETATM   43  C   UNL     1      -8.252  10.489  68.420  1.00  0.00    -0.121 C  
HETATM   44  O   UNL     1      -9.087  11.259  69.242  1.00  0.00    -0.393 OA 
HETATM   45  H   UNL     1      -8.819  12.170  69.249  1.00  0.00     0.000 HD 
ENDBRANCH  33  43
ENDBRANCH  30  31
ENDBRANCH  29  30
BRANCH  29  46
HETATM   46  C   UNL     1      -8.964   8.118  73.185  1.00  0.00    -0.261 C  
HETATM   47  O   UNL     1      -7.841   8.892  72.834  1.00  0.00    -0.370 OA 
HETATM   48  H   UNL     1      -7.218   8.933  73.550  1.00  0.00     0.000 HD 
BRANCH  46  49
HETATM   49  C   UNL     1      -8.567   6.749  73.784  1.00  0.00    -0.134 C  
HETATM   50  H   UNL     1      -7.052   5.972  74.744  1.00  0.00     0.000 HD 
HETATM   51  O   UNL     1      -7.296   6.814  74.376  1.00  0.00    -0.097 OA 
ENDBRANCH  46  49
ENDBRANCH  29  46
ENDBRANCH  26  29
ENDBRANCH  23  26
ENDBRANCH  21  23
ENDBRANCH  20  21
ENDBRANCH  19  20
ENDBRANCH  18  19
ENDBRANCH  16  18
ENDBRANCH  13  16
ENDBRANCH  10  13
ENDBRANCH   7  10
ENDBRANCH   4   7
ENDBRANCH   2   4
TORSDOF 17
ENDMDL
MODEL       34
REMARK 921   NORMALIZED FREE ENERGY PREDICTED BY IDOCK:   -5.85 KCAL/MOL
REMARK 922        TOTAL FREE ENERGY PREDICTED BY IDOCK:  -15.11 KCAL/MOL
REMARK 923 INTER-LIGAND FREE ENERGY PREDICTED BY IDOCK:  -12.19 KCAL/MOL
REMARK 924 INTRA-LIGAND FREE ENERGY PREDICTED BY IDOCK:   -2.92 KCAL/MOL
REMARK 927      BINDING AFFINITY PREDICTED BY RF-SCORE:    0.00 PKD
ROOT
HETATM    1  O   UNL     1      -8.666   4.541  68.277  1.00  0.00    -0.097 OA 
HETATM    2  C   UNL     1      -9.958   4.723  67.764  1.00  0.00    -0.112 C  
HETATM    3  H   UNL     1      -8.471   3.613  68.329  1.00  0.00     0.000 HD 
ENDROOT
BRANCH   2   4
HETATM    4  C   UNL     1     -10.274   6.226  67.680  1.00  0.00    -0.169 C  
HETATM    5  O   UNL     1     -11.333   6.429  66.778  1.00  0.00    -0.704 OA 
HETATM    6  H   UNL     1     -11.528   7.357  66.726  1.00  0.00     0.000 HD 
BRANCH   4   7
HETATM    7  C   UNL     1     -10.658   6.806  69.067  1.00  0.00    -0.230 C  
HETATM    8  H   UNL     1     -11.301   6.120  70.768  1.00  0.00     0.000 HD 
HETATM    9  O   UNL     1     -11.066   5.764  69.919  1.00  0.00    -0.360 OA 
BRANCH   7  10
HETATM   10  C   UNL     1      -9.476   7.565  69.726  1.00  0.00    -0.156 C  
HETATM   11  H   UNL     1      -7.953   7.099  70.819  1.00  0.00     0.000 HD 
HETATM   12  O   UNL     1      -8.677   6.634  70.415  1.00  0.00    -0.147 OA 
BRANCH  10  13
HETATM   13  C   UNL     1      -9.928   8.672  70.718  1.00  0.00    -0.197 C  
HETATM   14  H   UNL     1      -9.132   9.698  72.163  1.00  0.00     0.000 HD 
HETATM   15  O   UNL     1      -8.856   9.021  71.556  1.00  0.00    -0.289 OA 
BRANCH  13  16
HETATM   16  C   UNL     1     -10.411   9.930  70.035  1.00  0.00    -0.284 C  
HETATM   17  O   UNL     1     -11.377  10.529  70.482  1.00  0.00    -0.312 OA 
BRANCH  16  18
HETATM   18  O   UNL     1      -9.801  10.400  68.929  1.00  0.00    -0.181 OA 
BRANCH  18  19
HETATM   19 CA   UNL     1      -8.739  12.574  69.003  1.00  0.00    -0.268 Ca 
BRANCH  19  20
HETATM   20  O   UNL     1      -7.677  14.747  69.076  1.00  0.00    -0.132 OA 
BRANCH  20  21
HETATM   21  C   UNL     1      -7.124  14.998  67.876  1.00  0.00    -0.151 C  
HETATM   22  O   UNL     1      -6.267  14.232  67.472  1.00  0.00    -0.313 OA 
BRANCH  21  23
HETATM   23  C   UNL     1      -7.412  16.274  67.118  1.00  0.00    -0.203 C  
HETATM   24  H   UNL     1      -6.396  17.806  66.529  1.00  0.00     0.000 HD 
HETATM   25  O   UNL     1      -6.215  17.005  67.006  1.00  0.00    -0.153 OA 
BRANCH  23  26
HETATM   26  C   UNL     1      -8.503  17.182  67.762  1.00  0.00    -0.207 C  
HETATM   27  H   UNL     1      -8.549  18.800  68.830  1.00  0.00     0.000 HD 
HETATM   28  O   UNL     1      -7.884  18.247  68.438  1.00  0.00    -0.286 OA 
BRANCH  26  29
HETATM   29  C   UNL     1      -9.625  17.739  66.819  1.00  0.00    -0.300 C  
BRANCH  29  30
HETATM   30  O   UNL     1      -9.821  16.762  65.807  1.00  0.00    -0.505 OA 
BRANCH  30  31
HETATM   31  C   UNL     1     -10.988  15.974  65.930  1.00  0.00    -0.115 C  
HETATM   32  O   UNL     1     -10.770  14.920  66.853  1.00  0.00    -0.295 OA 
HETATM   33  C   UNL     1     -11.940  14.129  66.997  1.00  0.00    -0.439 C  
HETATM   34  H   UNL     1     -11.680  16.067  62.723  1.00  0.00     0.000 HD 
HETATM   35  C   UNL     1     -12.252  13.390  65.670  1.00  0.00    -0.463 C  
HETATM   36  O   UNL     1     -11.175  12.564  65.300  1.00  0.00    -0.288 OA 
HETATM   37  C   UNL     1     -12.498  14.448  64.574  1.00  0.00    -0.339 C  
HETATM   38  O   UNL     1     -11.496  16.421  63.584  1.00  0.00    -0.858 OA 
HETATM   39  H   UNL     1     -11.366  12.112  64.487  1.00  0.00     0.000 HD 
HETATM   40  O   UNL     1     -12.676  13.855  63.311  1.00  0.00    -0.926 OA 
HETATM   41  C   UNL     1     -11.289  15.396  64.524  1.00  0.00    -0.313 C  
HETATM   42  H   UNL     1     -12.828  14.506  62.636  1.00  0.00     0.000 HD 
BRANCH  33  43
HETATM   43  C   UNL     1     -11.712  13.155  68.164  1.00  0.00    -0.355 C  
HETATM   44  O   UNL     1     -12.114  11.854  67.827  1.00  0.00    -0.564 OA 
HETATM   45  H   UNL     1     -11.973  11.252  68.547  1.00  0.00     0.000 HD 
ENDBRANCH  33  43
ENDBRANCH  30  31
ENDBRANCH  29  30
BRANCH  29  46
HETATM   46  C   UNL     1      -9.372  19.167  66.219  1.00  0.00    -0.315 C  
HETATM   47  O   UNL     1      -8.033  19.309  65.804  1.00  0.00    -0.446 OA 
HETATM   48  H   UNL     1      -7.879  20.173  65.441  1.00  0.00     0.000 HD 
BRANCH  46  49
HETATM   49  C   UNL     1      -9.837  20.343  67.109  1.00  0.00    -0.461 C  
HETATM   50  H   UNL     1     -11.094  20.640  68.576  1.00  0.00     0.000 HD 
HETATM   51  O   UNL     1     -10.808  19.918  68.029  1.00  0.00    -0.261 OA 
ENDBRANCH  46  49
ENDBRANCH  29  46
ENDBRANCH  26  29
ENDBRANCH  23  26
ENDBRANCH  21  23
ENDBRANCH  20  21
ENDBRANCH  19  20
ENDBRANCH  18  19
ENDBRANCH  16  18
ENDBRANCH  13  16
ENDBRANCH  10  13
ENDBRANCH   7  10
ENDBRANCH   4   7
ENDBRANCH   2   4
TORSDOF 17
ENDMDL
MODEL       35
REMARK 921   NORMALIZED FREE ENERGY PREDICTED BY IDOCK:   -5.84 KCAL/MOL
REMARK 922        TOTAL FREE ENERGY PREDICTED BY IDOCK:  -15.08 KCAL/MOL
REMARK 923 INTER-LIGAND FREE ENERGY PREDICTED BY IDOCK:  -10.90 KCAL/MOL
REMARK 924 INTRA-LIGAND FREE ENERGY PREDICTED BY IDOCK:   -4.17 KCAL/MOL
REMARK 927      BINDING AFFINITY PREDICTED BY RF-SCORE:    0.00 PKD
ROOT
HETATM    1  O   UNL     1     -12.858   5.894  72.468  1.00  0.00    -0.459 OA 
HETATM    2  C   UNL     1     -11.747   6.354  71.749  1.00  0.00    -0.324 C  
HETATM    3  H   UNL     1     -12.653   5.060  72.874  1.00  0.00     0.000 HD 
ENDROOT
BRANCH   2   4
HETATM    4  C   UNL     1     -12.079   7.704  71.091  1.00  0.00    -0.298 C  
HETATM    5  O   UNL     1     -13.464   7.932  71.171  1.00  0.00    -0.542 OA 
HETATM    6  H   UNL     1     -13.669   8.766  70.765  1.00  0.00     0.000 HD 
BRANCH   4   7
HETATM    7  C   UNL     1     -11.323   8.873  71.776  1.00  0.00    -0.361 C  
HETATM    8  H   UNL     1      -9.569   9.168  72.561  1.00  0.00     0.000 HD 
HETATM    9  O   UNL     1     -10.032   8.452  72.142  1.00  0.00    -0.247 OA 
BRANCH   7  10
HETATM   10  C   UNL     1     -11.205  10.111  70.847  1.00  0.00    -0.307 C  
HETATM   11  H   UNL     1     -12.356  11.565  70.306  1.00  0.00     0.000 HD 
HETATM   12  O   UNL     1     -12.428  10.807  70.875  1.00  0.00    -0.334 OA 
BRANCH  10  13
HETATM   13  C   UNL     1     -10.867   9.750  69.374  1.00  0.00    -0.232 C  
HETATM   14  H   UNL     1     -11.632  10.071  67.618  1.00  0.00     0.000 HD 
HETATM   15  O   UNL     1     -11.839  10.292  68.519  1.00  0.00    -0.197 OA 
BRANCH  13  16
HETATM   16  C   UNL     1      -9.518  10.260  68.926  1.00  0.00    -0.188 C  
HETATM   17  O   UNL     1      -9.393  10.743  67.811  1.00  0.00    -0.149 OA 
BRANCH  16  18
HETATM   18  O   UNL     1      -8.440  10.183  69.732  1.00  0.00    -0.177 OA 
BRANCH  18  19
HETATM   19 CA   UNL     1      -7.261  12.212  70.323  1.00  0.00    -0.361 Ca 
BRANCH  19  20
HETATM   20  O   UNL     1      -6.081  14.240  70.914  1.00  0.00    -0.207 OA 
BRANCH  20  21
HETATM   21  C   UNL     1      -6.265  15.146  69.938  1.00  0.00    -0.154 C  
HETATM   22  O   UNL     1      -5.357  15.927  69.706  1.00  0.00    -0.112 OA 
BRANCH  21  23
HETATM   23  C   UNL     1      -7.603  15.325  69.257  1.00  0.00    -0.213 C  
HETATM   24  H   UNL     1      -8.843  14.196  68.301  1.00  0.00     0.000 HD 
HETATM   25  O   UNL     1      -8.002  14.084  68.728  1.00  0.00    -0.136 OA 
BRANCH  23  26
HETATM   26  C   UNL     1      -7.618  16.391  68.120  1.00  0.00    -0.155 C  
HETATM   27  H   UNL     1      -7.353  16.415  66.199  1.00  0.00     0.000 HD 
HETATM   28  O   UNL     1      -7.344  15.765  66.892  1.00  0.00    -0.210 OA 
BRANCH  26  29
HETATM   29  C   UNL     1      -8.902  17.280  67.983  1.00  0.00    -0.238 C  
BRANCH  29  30
HETATM   30  O   UNL     1      -9.669  16.718  66.928  1.00  0.00    -0.241 OA 
BRANCH  30  31
HETATM   31  C   UNL     1     -10.824  16.005  67.319  1.00  0.00    -0.255 C  
HETATM   32  O   UNL     1     -10.899  15.937  68.734  1.00  0.00    -0.251 OA 
HETATM   33  C   UNL     1     -12.065  15.236  69.141  1.00  0.00    -0.235 C  
HETATM   34  H   UNL     1     -10.526  13.745  64.957  1.00  0.00     0.000 HD 
HETATM   35  C   UNL     1     -11.971  13.750  68.711  1.00  0.00    -0.365 C  
HETATM   36  O   UNL     1     -10.839  13.141  69.282  1.00  0.00    -0.417 OA 
HETATM   37  C   UNL     1     -11.871  13.696  67.172  1.00  0.00    -0.396 C  
HETATM   38  O   UNL     1     -10.605  14.618  65.321  1.00  0.00    -0.336 OA 
HETATM   39  H   UNL     1     -10.782  12.230  69.018  1.00  0.00     0.000 HD 
HETATM   40  O   UNL     1     -11.668  12.383  66.711  1.00  0.00    -0.393 OA 
HETATM   41  C   UNL     1     -10.695  14.580  66.725  1.00  0.00    -0.291 C  
HETATM   42  H   UNL     1     -11.607  12.350  65.763  1.00  0.00     0.000 HD 
BRANCH  33  43
HETATM   43  C   UNL     1     -12.202  15.392  70.664  1.00  0.00    -0.385 C  
HETATM   44  O   UNL     1     -10.947  15.490  71.282  1.00  0.00    -0.342 OA 
HETATM   45  H   UNL     1     -11.032  15.587  72.222  1.00  0.00     0.000 HD 
ENDBRANCH  33  43
ENDBRANCH  30  31
ENDBRANCH  29  30
BRANCH  29  46
HETATM   46  C   UNL     1      -8.654  18.816  67.778  1.00  0.00    -0.283 C  
HETATM   47  O   UNL     1      -8.659  19.497  69.011  1.00  0.00    -0.340 OA 
HETATM   48  H   UNL     1      -8.510  20.426  68.888  1.00  0.00     0.000 HD 
BRANCH  46  49
HETATM   49  C   UNL     1      -9.570  19.493  66.732  1.00  0.00    -0.357 C  
HETATM   50  H   UNL     1     -11.347  20.305  66.672  1.00  0.00     0.000 HD 
HETATM   51  O   UNL     1     -10.784  19.889  67.314  1.00  0.00    -0.414 OA 
ENDBRANCH  46  49
ENDBRANCH  29  46
ENDBRANCH  26  29
ENDBRANCH  23  26
ENDBRANCH  21  23
ENDBRANCH  20  21
ENDBRANCH  19  20
ENDBRANCH  18  19
ENDBRANCH  16  18
ENDBRANCH  13  16
ENDBRANCH  10  13
ENDBRANCH   7  10
ENDBRANCH   4   7
ENDBRANCH   2   4
TORSDOF 17
ENDMDL
MODEL       36
REMARK 921   NORMALIZED FREE ENERGY PREDICTED BY IDOCK:   -5.83 KCAL/MOL
REMARK 922        TOTAL FREE ENERGY PREDICTED BY IDOCK:  -15.06 KCAL/MOL
REMARK 923 INTER-LIGAND FREE ENERGY PREDICTED BY IDOCK:  -10.92 KCAL/MOL
REMARK 924 INTRA-LIGAND FREE ENERGY PREDICTED BY IDOCK:   -4.13 KCAL/MOL
REMARK 927      BINDING AFFINITY PREDICTED BY RF-SCORE:    0.00 PKD
ROOT
HETATM    1  O   UNL     1      -9.994  18.816  65.910  1.00  0.00    -0.508 OA 
HETATM    2  C   UNL     1     -10.573  19.548  66.955  1.00  0.00    -0.492 C  
HETATM    3  H   UNL     1     -10.424  19.034  65.091  1.00  0.00     0.000 HD 
ENDROOT
BRANCH   2   4
HETATM    4  C   UNL     1      -9.878  19.196  68.281  1.00  0.00    -0.390 C  
HETATM    5  O   UNL     1     -10.402  19.999  69.309  1.00  0.00    -0.611 OA 
HETATM    6  H   UNL     1      -9.972  19.782  70.127  1.00  0.00     0.000 HD 
BRANCH   4   7
HETATM    7  C   UNL     1     -10.069  17.700  68.645  1.00  0.00    -0.377 C  
HETATM    8  H   UNL     1     -11.296  16.266  68.177  1.00  0.00     0.000 HD 
HETATM    9  O   UNL     1     -11.179  17.182  67.953  1.00  0.00    -0.200 OA 
BRANCH   7  10
HETATM   10  C   UNL     1      -8.816  16.853  68.297  1.00  0.00    -0.228 C  
HETATM   11  H   UNL     1      -7.907  15.327  69.056  1.00  0.00     0.000 HD 
HETATM   12  O   UNL     1      -8.675  15.846  69.269  1.00  0.00    -0.246 OA 
BRANCH  10  13
HETATM   13  C   UNL     1      -7.504  17.684  68.239  1.00  0.00    -0.251 C  
HETATM   14  H   UNL     1      -5.829  17.767  69.219  1.00  0.00     0.000 HD 
HETATM   15  O   UNL     1      -6.632  17.260  69.254  1.00  0.00    -0.229 OA 
BRANCH  13  16
HETATM   16  C   UNL     1      -6.776  17.565  66.921  1.00  0.00    -0.185 C  
HETATM   17  O   UNL     1      -6.818  18.486  66.121  1.00  0.00    -0.215 OA 
BRANCH  16  18
HETATM   18  O   UNL     1      -6.087  16.450  66.605  1.00  0.00    -0.306 OA 
BRANCH  18  19
HETATM   19 CA   UNL     1      -5.900  14.675  68.240  1.00  0.00    -0.075 Ca 
BRANCH  19  20
HETATM   20  O   UNL     1      -5.714  12.901  69.874  1.00  0.00    -0.101 OA 
BRANCH  20  21
HETATM   21  C   UNL     1      -5.975  11.729  69.271  1.00  0.00    -0.077 C  
HETATM   22  O   UNL     1      -5.775  10.705  69.902  1.00  0.00    -0.045 OA 
BRANCH  21  23
HETATM   23  C   UNL     1      -6.336  11.650  67.804  1.00  0.00    -0.067 C  
HETATM   24  H   UNL     1      -5.617  12.344  66.153  1.00  0.00     0.000 HD 
HETATM   25  O   UNL     1      -5.391  12.394  67.074  1.00  0.00    -0.300 OA 
BRANCH  23  26
HETATM   26  C   UNL     1      -7.766  12.166  67.458  1.00  0.00    -0.159 C  
HETATM   27  H   UNL     1      -8.568  13.833  66.878  1.00  0.00     0.000 HD 
HETATM   28  O   UNL     1      -7.697  13.519  67.089  1.00  0.00    -0.111 OA 
BRANCH  26  29
HETATM   29  C   UNL     1      -8.577  11.367  66.380  1.00  0.00    -0.174 C  
BRANCH  29  30
HETATM   30  O   UNL     1      -9.755  10.906  67.024  1.00  0.00    -0.172 OA 
BRANCH  30  31
HETATM   31  C   UNL     1     -10.943  11.604  66.708  1.00  0.00    -0.290 C  
HETATM   32  O   UNL     1     -10.855  12.151  65.403  1.00  0.00    -0.276 OA 
HETATM   33  C   UNL     1     -12.048  12.842  65.066  1.00  0.00    -0.435 C  
HETATM   34  H   UNL     1     -11.248  12.925  69.698  1.00  0.00     0.000 HD 
HETATM   35  C   UNL     1     -12.213  14.091  65.971  1.00  0.00    -0.458 C  
HETATM   36  O   UNL     1     -11.115  14.958  65.822  1.00  0.00    -0.331 OA 
HETATM   37  C   UNL     1     -12.309  13.618  67.436  1.00  0.00    -0.107 C  
HETATM   38  O   UNL     1     -11.160  12.228  69.059  1.00  0.00    -0.238 OA 
HETATM   39  H   UNL     1     -11.217  15.722  66.377  1.00  0.00     0.000 HD 
HETATM   40  O   UNL     1     -12.346  14.702  68.331  1.00  0.00    -0.603 OA 
HETATM   41  C   UNL     1     -11.085  12.741  67.751  1.00  0.00    -0.253 C  
HETATM   42  H   UNL     1     -12.406  14.411  69.233  1.00  0.00     0.000 HD 
BRANCH  33  43
HETATM   43  C   UNL     1     -11.977  13.211  63.576  1.00  0.00    -0.513 C  
HETATM   44  O   UNL     1     -12.525  14.480  63.339  1.00  0.00    -1.080 OA 
HETATM   45  H   UNL     1     -12.481  14.708  62.418  1.00  0.00     0.000 HD 
ENDBRANCH  33  43
ENDBRANCH  30  31
ENDBRANCH  29  30
BRANCH  29  46
HETATM   46  C   UNL     1      -7.804  10.206  65.661  1.00  0.00    -0.145 C  
HETATM   47  O   UNL     1      -6.826  10.716  64.784  1.00  0.00    -0.344 OA 
HETATM   48  H   UNL     1      -6.359  10.014  64.350  1.00  0.00     0.000 HD 
BRANCH  46  49
HETATM   49  C   UNL     1      -8.701   9.145  64.982  1.00  0.00    -0.189 C  
HETATM   50  H   UNL     1      -9.122   7.249  65.200  1.00  0.00     0.000 HD 
HETATM   51  O   UNL     1      -8.571   7.901  65.617  1.00  0.00    -0.147 OA 
ENDBRANCH  46  49
ENDBRANCH  29  46
ENDBRANCH  26  29
ENDBRANCH  23  26
ENDBRANCH  21  23
ENDBRANCH  20  21
ENDBRANCH  19  20
ENDBRANCH  18  19
ENDBRANCH  16  18
ENDBRANCH  13  16
ENDBRANCH  10  13
ENDBRANCH   7  10
ENDBRANCH   4   7
ENDBRANCH   2   4
TORSDOF 17
ENDMDL
MODEL       37
REMARK 921   NORMALIZED FREE ENERGY PREDICTED BY IDOCK:   -5.81 KCAL/MOL
REMARK 922        TOTAL FREE ENERGY PREDICTED BY IDOCK:  -15.03 KCAL/MOL
REMARK 923 INTER-LIGAND FREE ENERGY PREDICTED BY IDOCK:  -11.94 KCAL/MOL
REMARK 924 INTRA-LIGAND FREE ENERGY PREDICTED BY IDOCK:   -3.08 KCAL/MOL
REMARK 927      BINDING AFFINITY PREDICTED BY RF-SCORE:    0.00 PKD
ROOT
HETATM    1  O   UNL     1     -13.931   9.087  70.918  1.00  0.00    -0.587 OA 
HETATM    2  C   UNL     1     -13.025  10.077  71.323  1.00  0.00    -0.400 C  
HETATM    3  H   UNL     1     -14.667   9.061  71.519  1.00  0.00     0.000 HD 
ENDROOT
BRANCH   2   4
HETATM    4  C   UNL     1     -11.835  10.119  70.349  1.00  0.00    -0.288 C  
HETATM    5  O   UNL     1     -11.379  11.443  70.230  1.00  0.00    -0.489 OA 
HETATM    6  H   UNL     1     -10.644  11.469  69.629  1.00  0.00     0.000 HD 
BRANCH   4   7
HETATM    7  C   UNL     1     -10.672   9.213  70.832  1.00  0.00    -0.275 C  
HETATM    8  H   UNL     1     -10.454   7.380  71.444  1.00  0.00     0.000 HD 
HETATM    9  O   UNL     1     -11.167   7.935  71.148  1.00  0.00    -0.252 OA 
BRANCH   7  10
HETATM   10  C   UNL     1      -9.561   9.074  69.758  1.00  0.00    -0.175 C  
HETATM   11  H   UNL     1      -7.949  10.027  69.285  1.00  0.00     0.000 HD 
HETATM   12  O   UNL     1      -8.629  10.113  69.943  1.00  0.00    -0.177 OA 
BRANCH  10  13
HETATM   13  C   UNL     1     -10.098   9.133  68.301  1.00  0.00    -0.191 C  
HETATM   14  H   UNL     1     -10.062  10.392  66.823  1.00  0.00     0.000 HD 
HETATM   15  O   UNL     1      -9.734  10.356  67.714  1.00  0.00    -0.157 OA 
BRANCH  13  16
HETATM   16  C   UNL     1      -9.574   8.022  67.423  1.00  0.00    -0.153 C  
HETATM   17  O   UNL     1      -9.108   7.015  67.934  1.00  0.00    -0.128 OA 
BRANCH  16  18
HETATM   18  O   UNL     1      -9.600   8.125  66.079  1.00  0.00    -0.158 OA 
BRANCH  18  19
HETATM   19 CA   UNL     1     -10.721  10.015  65.064  1.00  0.00    -0.302 Ca 
BRANCH  19  20
HETATM   20  O   UNL     1     -11.842  11.903  64.048  1.00  0.00    -0.383 OA 
BRANCH  20  21
HETATM   21  C   UNL     1     -12.238  12.744  65.020  1.00  0.00    -0.473 C  
HETATM   22  O   UNL     1     -13.167  13.496  64.780  1.00  0.00    -0.555 OA 
BRANCH  21  23
HETATM   23  C   UNL     1     -11.462  12.893  66.310  1.00  0.00    -0.348 C  
HETATM   24  H   UNL     1     -11.652  12.278  68.129  1.00  0.00     0.000 HD 
HETATM   25  O   UNL     1     -12.139  12.185  67.319  1.00  0.00    -0.565 OA 
BRANCH  23  26
HETATM   26  C   UNL     1     -11.252  14.366  66.775  1.00  0.00    -0.337 C  
HETATM   27  H   UNL     1     -11.948  15.524  68.166  1.00  0.00     0.000 HD 
HETATM   28  O   UNL     1     -12.076  14.627  67.882  1.00  0.00    -0.304 OA 
BRANCH  26  29
HETATM   29  C   UNL     1      -9.784  14.816  67.095  1.00  0.00    -0.233 C  
BRANCH  29  30
HETATM   30  O   UNL     1      -9.311  15.491  65.938  1.00  0.00    -0.338 OA 
BRANCH  30  31
HETATM   31  C   UNL     1      -8.915  16.834  66.127  1.00  0.00    -0.260 C  
HETATM   32  O   UNL     1      -8.233  16.972  67.363  1.00  0.00    -0.179 OA 
HETATM   33  C   UNL     1      -7.817  18.315  67.559  1.00  0.00    -0.227 C  
HETATM   34  H   UNL     1     -11.709  18.079  64.933  1.00  0.00     0.000 HD 
HETATM   35  C   UNL     1      -9.052  19.238  67.722  1.00  0.00    -0.306 C  
HETATM   36  O   UNL     1      -9.833  18.828  68.818  1.00  0.00    -0.368 OA 
HETATM   37  C   UNL     1      -9.888  19.161  66.428  1.00  0.00    -0.381 C  
HETATM   38  O   UNL     1     -10.915  17.557  64.927  1.00  0.00    -0.887 OA 
HETATM   39  H   UNL     1     -10.590  19.394  68.917  1.00  0.00     0.000 HD 
HETATM   40  O   UNL     1     -11.088  19.885  66.541  1.00  0.00    -0.258 OA 
HETATM   41  C   UNL     1     -10.210  17.685  66.138  1.00  0.00    -0.343 C  
HETATM   42  H   UNL     1     -11.603  19.838  65.744  1.00  0.00     0.000 HD 
BRANCH  33  43
HETATM   43  C   UNL     1      -6.899  18.351  68.792  1.00  0.00    -0.271 C  
HETATM   44  O   UNL     1      -6.991  19.581  69.459  1.00  0.00    -0.331 OA 
HETATM   45  H   UNL     1      -6.424  19.602  70.221  1.00  0.00     0.000 HD 
ENDBRANCH  33  43
ENDBRANCH  30  31
ENDBRANCH  29  30
BRANCH  29  46
HETATM   46  C   UNL     1      -8.804  13.683  67.560  1.00  0.00    -0.205 C  
HETATM   47  O   UNL     1      -9.249  13.090  68.757  1.00  0.00    -0.392 OA 
HETATM   48  H   UNL     1      -8.656  12.404  69.039  1.00  0.00     0.000 HD 
BRANCH  46  49
HETATM   49  C   UNL     1      -7.314  14.093  67.628  1.00  0.00    -0.176 C  
HETATM   50  H   UNL     1      -5.782  13.796  68.805  1.00  0.00     0.000 HD 
HETATM   51  O   UNL     1      -6.698  13.543  68.763  1.00  0.00    -0.093 OA 
ENDBRANCH  46  49
ENDBRANCH  29  46
ENDBRANCH  26  29
ENDBRANCH  23  26
ENDBRANCH  21  23
ENDBRANCH  20  21
ENDBRANCH  19  20
ENDBRANCH  18  19
ENDBRANCH  16  18
ENDBRANCH  13  16
ENDBRANCH  10  13
ENDBRANCH   7  10
ENDBRANCH   4   7
ENDBRANCH   2   4
TORSDOF 17
ENDMDL
MODEL       38
REMARK 921   NORMALIZED FREE ENERGY PREDICTED BY IDOCK:   -5.78 KCAL/MOL
REMARK 922        TOTAL FREE ENERGY PREDICTED BY IDOCK:  -14.97 KCAL/MOL
REMARK 923 INTER-LIGAND FREE ENERGY PREDICTED BY IDOCK:  -12.06 KCAL/MOL
REMARK 924 INTRA-LIGAND FREE ENERGY PREDICTED BY IDOCK:   -2.91 KCAL/MOL
REMARK 927      BINDING AFFINITY PREDICTED BY RF-SCORE:    0.00 PKD
ROOT
HETATM    1  O   UNL     1     -12.194   8.249  73.039  1.00  0.00    -0.630 OA 
HETATM    2  C   UNL     1     -10.951   7.601  73.042  1.00  0.00    -0.400 C  
HETATM    3  H   UNL     1     -12.649   8.071  73.853  1.00  0.00     0.000 HD 
ENDROOT
BRANCH   2   4
HETATM    4  C   UNL     1     -10.214   7.889  71.723  1.00  0.00    -0.196 C  
HETATM    5  O   UNL     1      -8.841   8.047  71.983  1.00  0.00    -0.129 OA 
HETATM    6  H   UNL     1      -8.386   8.225  71.168  1.00  0.00     0.000 HD 
BRANCH   4   7
HETATM    7  C   UNL     1     -10.417   6.745  70.695  1.00  0.00    -0.215 C  
HETATM    8  H   UNL     1     -11.898   5.973  69.699  1.00  0.00     0.000 HD 
HETATM    9  O   UNL     1     -11.774   6.674  70.328  1.00  0.00    -0.389 OA 
BRANCH   7  10
HETATM   10  C   UNL     1      -9.560   6.954  69.418  1.00  0.00    -0.147 C  
HETATM   11  H   UNL     1      -7.682   6.889  68.971  1.00  0.00     0.000 HD 
HETATM   12  O   UNL     1      -8.207   6.761  69.753  1.00  0.00    -0.124 OA 
BRANCH  10  13
HETATM   13  C   UNL     1      -9.725   8.363  68.785  1.00  0.00    -0.164 C  
HETATM   14  H   UNL     1      -8.725  10.027  68.737  1.00  0.00     0.000 HD 
HETATM   15  O   UNL     1      -8.624   9.165  69.124  1.00  0.00    -0.128 OA 
BRANCH  13  16
HETATM   16  C   UNL     1      -9.833   8.335  67.278  1.00  0.00    -0.197 C  
HETATM   17  O   UNL     1     -10.699   7.658  66.746  1.00  0.00    -0.318 OA 
BRANCH  16  18
HETATM   18  O   UNL     1      -8.980   9.038  66.506  1.00  0.00    -0.134 OA 
BRANCH  18  19
HETATM   19 CA   UNL     1      -9.866  10.684  64.968  1.00  0.00    -0.187 Ca 
BRANCH  19  20
HETATM   20  O   UNL     1     -10.752  12.328  63.431  1.00  0.00    -0.446 OA 
BRANCH  20  21
HETATM   21  C   UNL     1     -11.959  12.725  63.870  1.00  0.00    -0.480 C  
HETATM   22  O   UNL     1     -12.944  12.166  63.417  1.00  0.00    -0.776 OA 
BRANCH  21  23
HETATM   23  C   UNL     1     -12.125  13.935  64.762  1.00  0.00    -0.419 C  
HETATM   24  H   UNL     1     -12.606  15.788  64.522  1.00  0.00     0.000 HD 
HETATM   25  O   UNL     1     -12.502  15.028  63.962  1.00  0.00    -0.796 OA 
BRANCH  23  26
HETATM   26  C   UNL     1     -10.855  14.318  65.581  1.00  0.00    -0.309 C  
HETATM   27  H   UNL     1      -9.944  15.949  66.101  1.00  0.00     0.000 HD 
HETATM   28  O   UNL     1     -10.718  15.716  65.602  1.00  0.00    -0.335 OA 
BRANCH  26  29
HETATM   29  C   UNL     1     -10.743  13.757  67.040  1.00  0.00    -0.283 C  
BRANCH  29  30
HETATM   30  O   UNL     1     -11.647  14.514  67.832  1.00  0.00    -0.311 OA 
BRANCH  30  31
HETATM   31  C   UNL     1     -11.488  14.395  69.231  1.00  0.00    -0.285 C  
HETATM   32  O   UNL     1     -12.530  13.601  69.775  1.00  0.00    -0.265 OA 
HETATM   33  C   UNL     1     -12.373  13.460  71.178  1.00  0.00    -0.259 C  
HETATM   34  H   UNL     1     -10.579  17.523  69.638  1.00  0.00     0.000 HD 
HETATM   35  C   UNL     1     -12.562  14.832  71.876  1.00  0.00    -0.334 C  
HETATM   36  O   UNL     1     -13.838  15.356  71.600  1.00  0.00    -0.470 OA 
HETATM   37  C   UNL     1     -11.478  15.796  71.349  1.00  0.00    -0.429 C  
HETATM   38  O   UNL     1     -10.538  16.644  69.281  1.00  0.00    -0.308 OA 
HETATM   39  H   UNL     1     -13.953  16.196  72.027  1.00  0.00     0.000 HD 
HETATM   40  O   UNL     1     -11.653  17.098  71.852  1.00  0.00    -0.289 OA 
HETATM   41  C   UNL     1     -11.554  15.829  69.814  1.00  0.00    -0.355 C  
HETATM   42  H   UNL     1     -10.986  17.691  71.527  1.00  0.00     0.000 HD 
BRANCH  33  43
HETATM   43  C   UNL     1     -13.391  12.417  71.666  1.00  0.00    -0.176 C  
HETATM   44  O   UNL     1     -14.061  12.858  72.816  1.00  0.00    -0.714 OA 
HETATM   45  H   UNL     1     -14.690  12.214  73.117  1.00  0.00     0.000 HD 
ENDBRANCH  33  43
ENDBRANCH  30  31
ENDBRANCH  29  30
BRANCH  29  46
HETATM   46  C   UNL     1      -9.299  13.729  67.656  1.00  0.00    -0.213 C  
HETATM   47  O   UNL     1      -8.637  14.954  67.446  1.00  0.00    -0.169 OA 
HETATM   48  H   UNL     1      -7.764  14.938  67.819  1.00  0.00     0.000 HD 
BRANCH  46  49
HETATM   49  C   UNL     1      -8.433  12.517  67.241  1.00  0.00    -0.185 C  
HETATM   50  H   UNL     1      -6.957  11.471  67.979  1.00  0.00     0.000 HD 
HETATM   51  O   UNL     1      -7.489  12.215  68.234  1.00  0.00    -0.092 OA 
ENDBRANCH  46  49
ENDBRANCH  29  46
ENDBRANCH  26  29
ENDBRANCH  23  26
ENDBRANCH  21  23
ENDBRANCH  20  21
ENDBRANCH  19  20
ENDBRANCH  18  19
ENDBRANCH  16  18
ENDBRANCH  13  16
ENDBRANCH  10  13
ENDBRANCH   7  10
ENDBRANCH   4   7
ENDBRANCH   2   4
TORSDOF 17
ENDMDL
MODEL       39
REMARK 921   NORMALIZED FREE ENERGY PREDICTED BY IDOCK:   -5.78 KCAL/MOL
REMARK 922        TOTAL FREE ENERGY PREDICTED BY IDOCK:  -14.96 KCAL/MOL
REMARK 923 INTER-LIGAND FREE ENERGY PREDICTED BY IDOCK:  -11.61 KCAL/MOL
REMARK 924 INTRA-LIGAND FREE ENERGY PREDICTED BY IDOCK:   -3.35 KCAL/MOL
REMARK 927      BINDING AFFINITY PREDICTED BY RF-SCORE:    0.00 PKD
ROOT
HETATM    1  O   UNL     1      -9.925  17.983  65.886  1.00  0.00    -0.541 OA 
HETATM    2  C   UNL     1      -9.528  16.708  66.312  1.00  0.00    -0.293 C  
HETATM    3  H   UNL     1      -9.739  18.619  66.566  1.00  0.00     0.000 HD 
ENDROOT
BRANCH   2   4
HETATM    4  C   UNL     1      -9.829  15.677  65.211  1.00  0.00    -0.115 C  
HETATM    5  O   UNL     1      -9.381  14.410  65.625  1.00  0.00    -0.527 OA 
HETATM    6  H   UNL     1      -9.567  13.774  64.945  1.00  0.00     0.000 HD 
BRANCH   4   7
HETATM    7  C   UNL     1     -11.346  15.609  64.893  1.00  0.00    -0.315 C  
HETATM    8  H   UNL     1     -12.577  16.447  63.642  1.00  0.00     0.000 HD 
HETATM    9  O   UNL     1     -11.648  16.488  63.836  1.00  0.00    -1.175 OA 
BRANCH   7  10
HETATM   10  C   UNL     1     -11.793  14.176  64.501  1.00  0.00    -0.436 C  
HETATM   11  H   UNL     1     -12.713  13.358  63.012  1.00  0.00     0.000 HD 
HETATM   12  O   UNL     1     -12.439  14.236  63.252  1.00  0.00    -0.705 OA 
BRANCH  10  13
HETATM   13  C   UNL     1     -12.755  13.524  65.533  1.00  0.00    -0.440 C  
HETATM   14  H   UNL     1     -13.983  12.020  65.580  1.00  0.00     0.000 HD 
HETATM   15  O   UNL     1     -13.395  12.418  64.949  1.00  0.00    -0.623 OA 
BRANCH  13  16
HETATM   16  C   UNL     1     -12.058  13.049  66.786  1.00  0.00    -0.300 C  
HETATM   17  O   UNL     1     -11.705  13.861  67.627  1.00  0.00    -0.327 OA 
BRANCH  16  18
HETATM   18  O   UNL     1     -11.807  11.740  66.990  1.00  0.00    -0.599 OA 
BRANCH  18  19
HETATM   19 CA   UNL     1     -12.822  10.627  68.884  1.00  0.00    -0.478 Ca 
BRANCH  19  20
HETATM   20  O   UNL     1     -13.835   9.513  70.778  1.00  0.00    -0.087 OA 
BRANCH  20  21
HETATM   21  C   UNL     1     -12.910   9.373  71.743  1.00  0.00    -0.399 C  
HETATM   22  O   UNL     1     -13.298   9.179  72.882  1.00  0.00    -0.321 OA 
BRANCH  21  23
HETATM   23  C   UNL     1     -11.441   9.617  71.479  1.00  0.00    -0.369 C  
HETATM   24  H   UNL     1     -10.404  10.743  70.303  1.00  0.00     0.000 HD 
HETATM   25  O   UNL     1     -11.326  10.589  70.468  1.00  0.00    -0.312 OA 
BRANCH  23  26
HETATM   26  C   UNL     1     -10.636   8.350  71.060  1.00  0.00    -0.214 C  
HETATM   27  H   UNL     1     -10.991   6.696  70.111  1.00  0.00     0.000 HD 
HETATM   28  O   UNL     1     -11.482   7.468  70.367  1.00  0.00    -0.269 OA 
BRANCH  26  29
HETATM   29  C   UNL     1      -9.320   8.573  70.236  1.00  0.00    -0.162 C  
BRANCH  29  30
HETATM   30  O   UNL     1      -9.665   8.385  68.871  1.00  0.00    -0.162 OA 
BRANCH  30  31
HETATM   31  C   UNL     1      -8.743   8.893  67.928  1.00  0.00    -0.129 C  
HETATM   32  O   UNL     1      -8.587  10.292  68.104  1.00  0.00    -0.117 OA 
HETATM   33  C   UNL     1      -7.652  10.814  67.172  1.00  0.00    -0.105 C  
HETATM   34  H   UNL     1      -9.865   7.033  65.467  1.00  0.00     0.000 HD 
HETATM   35  C   UNL     1      -8.209  10.690  65.731  1.00  0.00    -0.161 C  
HETATM   36  O   UNL     1      -9.425  11.387  65.610  1.00  0.00    -0.222 OA 
HETATM   37  C   UNL     1      -8.434   9.194  65.425  1.00  0.00    -0.149 C  
HETATM   38  O   UNL     1      -9.507   7.215  66.327  1.00  0.00    -0.153 OA 
HETATM   39  H   UNL     1      -9.766  11.311  64.726  1.00  0.00     0.000 HD 
HETATM   40  O   UNL     1      -9.047   9.006  64.173  1.00  0.00    -0.426 OA 
HETATM   41  C   UNL     1      -9.328   8.597  66.524  1.00  0.00    -0.200 C  
HETATM   42  H   UNL     1      -9.184   8.085  63.986  1.00  0.00     0.000 HD 
BRANCH  33  43
HETATM   43  C   UNL     1      -7.362  12.272  67.559  1.00  0.00    -0.137 C  
HETATM   44  O   UNL     1      -8.548  13.008  67.696  1.00  0.00    -0.165 OA 
HETATM   45  H   UNL     1      -8.369  13.909  67.935  1.00  0.00     0.000 HD 
ENDBRANCH  33  43
ENDBRANCH  30  31
ENDBRANCH  29  30
BRANCH  29  46
HETATM   46  C   UNL     1      -8.088   7.698  70.660  1.00  0.00    -0.108 C  
HETATM   47  O   UNL     1      -8.366   6.968  71.832  1.00  0.00    -0.106 OA 
HETATM   48  H   UNL     1      -7.621   6.439  72.088  1.00  0.00     0.000 HD 
BRANCH  46  49
HETATM   49  C   UNL     1      -6.745   8.459  70.749  1.00  0.00    -0.040 C  
HETATM   50  H   UNL     1      -5.750   9.491  72.078  1.00  0.00     0.000 HD 
HETATM   51  O   UNL     1      -6.576   9.023  72.023  1.00  0.00    -0.226 OA 
ENDBRANCH  46  49
ENDBRANCH  29  46
ENDBRANCH  26  29
ENDBRANCH  23  26
ENDBRANCH  21  23
ENDBRANCH  20  21
ENDBRANCH  19  20
ENDBRANCH  18  19
ENDBRANCH  16  18
ENDBRANCH  13  16
ENDBRANCH  10  13
ENDBRANCH   7  10
ENDBRANCH   4   7
ENDBRANCH   2   4
TORSDOF 17
ENDMDL
MODEL       40
REMARK 921   NORMALIZED FREE ENERGY PREDICTED BY IDOCK:   -5.77 KCAL/MOL
REMARK 922        TOTAL FREE ENERGY PREDICTED BY IDOCK:  -14.95 KCAL/MOL
REMARK 923 INTER-LIGAND FREE ENERGY PREDICTED BY IDOCK:  -12.51 KCAL/MOL
REMARK 924 INTRA-LIGAND FREE ENERGY PREDICTED BY IDOCK:   -2.44 KCAL/MOL
REMARK 927      BINDING AFFINITY PREDICTED BY RF-SCORE:    0.00 PKD
ROOT
HETATM    1  O   UNL     1     -11.369   7.820  69.444  1.00  0.00    -0.440 OA 
HETATM    2  C   UNL     1     -12.084   7.256  70.509  1.00  0.00    -0.113 C  
HETATM    3  H   UNL     1     -11.848   7.693  68.633  1.00  0.00     0.000 HD 
ENDROOT
BRANCH   2   4
HETATM    4  C   UNL     1     -11.308   7.462  71.820  1.00  0.00    -0.255 C  
HETATM    5  O   UNL     1     -12.213   7.501  72.895  1.00  0.00    -0.542 OA 
HETATM    6  H   UNL     1     -11.733   7.628  73.705  1.00  0.00     0.000 HD 
BRANCH   4   7
HETATM    7  C   UNL     1     -10.276   6.327  72.055  1.00  0.00    -0.189 C  
HETATM    8  H   UNL     1      -9.726   4.693  71.155  1.00  0.00     0.000 HD 
HETATM    9  O   UNL     1     -10.358   5.388  71.011  1.00  0.00    -0.219 OA 
BRANCH   7  10
HETATM   10  C   UNL     1      -8.824   6.870  72.133  1.00  0.00    -0.131 C  
HETATM   11  H   UNL     1      -7.260   6.523  73.212  1.00  0.00     0.000 HD 
HETATM   12  O   UNL     1      -8.149   6.191  73.164  1.00  0.00    -0.111 OA 
BRANCH  10  13
HETATM   13  C   UNL     1      -8.749   8.398  72.404  1.00  0.00    -0.210 C  
HETATM   14  H   UNL     1      -7.926   9.571  73.715  1.00  0.00     0.000 HD 
HETATM   15  O   UNL     1      -7.972   8.637  73.550  1.00  0.00    -0.410 OA 
BRANCH  13  16
HETATM   16  C   UNL     1      -8.144   9.181  71.263  1.00  0.00    -0.015 C  
HETATM   17  O   UNL     1      -7.027   9.658  71.381  1.00  0.00    -0.325 OA 
BRANCH  16  18
HETATM   18  O   UNL     1      -8.823   9.374  70.114  1.00  0.00    -0.184 OA 
BRANCH  18  19
HETATM   19 CA   UNL     1     -10.369  11.229  69.955  1.00  0.00    -0.377 Ca 
BRANCH  19  20
HETATM   20  O   UNL     1     -11.914  13.085  69.797  1.00  0.00    -0.316 OA 
BRANCH  20  21
HETATM   21  C   UNL     1     -12.006  13.461  68.510  1.00  0.00    -0.328 C  
HETATM   22  O   UNL     1     -12.414  14.586  68.273  1.00  0.00    -0.057 OA 
BRANCH  21  23
HETATM   23  C   UNL     1     -11.786  12.485  67.376  1.00  0.00    -0.312 C  
HETATM   24  H   UNL     1     -11.952  10.578  67.126  1.00  0.00     0.000 HD 
HETATM   25  O   UNL     1     -12.090  11.192  67.838  1.00  0.00    -0.627 OA 
BRANCH  23  26
HETATM   26  C   UNL     1     -10.343  12.489  66.786  1.00  0.00    -0.226 C  
HETATM   27  H   UNL     1      -8.988  11.172  66.352  1.00  0.00     0.000 HD 
HETATM   28  O   UNL     1      -9.867  11.169  66.712  1.00  0.00    -0.193 OA 
BRANCH  26  29
HETATM   29  C   UNL     1     -10.132  13.202  65.406  1.00  0.00    -0.248 C  
BRANCH  29  30
HETATM   30  O   UNL     1     -10.744  14.479  65.516  1.00  0.00    -0.304 OA 
BRANCH  30  31
HETATM   31  C   UNL     1      -9.891  15.540  65.896  1.00  0.00    -0.353 C  
HETATM   32  O   UNL     1      -9.465  15.367  67.237  1.00  0.00    -0.206 OA 
HETATM   33  C   UNL     1      -8.594  16.418  67.627  1.00  0.00    -0.174 C  
HETATM   34  H   UNL     1     -11.666  17.837  64.363  1.00  0.00     0.000 HD 
HETATM   35  C   UNL     1      -9.365  17.763  67.662  1.00  0.00    -0.250 C  
HETATM   36  O   UNL     1     -10.441  17.692  68.564  1.00  0.00    -0.359 OA 
HETATM   37  C   UNL     1      -9.893  18.056  66.242  1.00  0.00    -0.307 C  
HETATM   38  O   UNL     1     -11.162  17.037  64.444  1.00  0.00    -1.167 OA 
HETATM   39  H   UNL     1     -10.913  18.517  68.585  1.00  0.00     0.000 HD 
HETATM   40  O   UNL     1     -10.702  19.206  66.216  1.00  0.00    -0.415 OA 
HETATM   41  C   UNL     1     -10.714  16.846  65.764  1.00  0.00    -0.160 C  
HETATM   42  H   UNL     1     -11.027  19.386  65.341  1.00  0.00     0.000 HD 
BRANCH  33  43
HETATM   43  C   UNL     1      -7.998  16.056  68.996  1.00  0.00    -0.224 C  
HETATM   44  O   UNL     1      -8.839  15.185  69.704  1.00  0.00    -0.411 OA 
HETATM   45  H   UNL     1      -8.470  14.961  70.550  1.00  0.00     0.000 HD 
ENDBRANCH  33  43
ENDBRANCH  30  31
ENDBRANCH  29  30
BRANCH  29  46
HETATM   46  C   UNL     1     -10.632  12.416  64.143  1.00  0.00    -0.385 C  
HETATM   47  O   UNL     1      -9.589  12.241  63.212  1.00  0.00    -0.650 OA 
HETATM   48  H   UNL     1      -9.891  11.765  62.448  1.00  0.00     0.000 HD 
BRANCH  46  49
HETATM   49  C   UNL     1     -11.914  12.979  63.486  1.00  0.00    -0.545 C  
HETATM   50  H   UNL     1     -13.709  12.349  63.038  1.00  0.00     0.000 HD 
HETATM   51  O   UNL     1     -12.921  12.003  63.442  1.00  0.00    -0.772 OA 
ENDBRANCH  46  49
ENDBRANCH  29  46
ENDBRANCH  26  29
ENDBRANCH  23  26
ENDBRANCH  21  23
ENDBRANCH  20  21
ENDBRANCH  19  20
ENDBRANCH  18  19
ENDBRANCH  16  18
ENDBRANCH  13  16
ENDBRANCH  10  13
ENDBRANCH   7  10
ENDBRANCH   4   7
ENDBRANCH   2   4
TORSDOF 17
ENDMDL
MODEL       41
REMARK 921   NORMALIZED FREE ENERGY PREDICTED BY IDOCK:   -5.77 KCAL/MOL
REMARK 922        TOTAL FREE ENERGY PREDICTED BY IDOCK:  -14.95 KCAL/MOL
REMARK 923 INTER-LIGAND FREE ENERGY PREDICTED BY IDOCK:  -11.86 KCAL/MOL
REMARK 924 INTRA-LIGAND FREE ENERGY PREDICTED BY IDOCK:   -3.09 KCAL/MOL
REMARK 927      BINDING AFFINITY PREDICTED BY RF-SCORE:    0.00 PKD
ROOT
HETATM    1  O   UNL     1     -14.388   8.860  73.418  1.00  0.00    -1.192 OA 
HETATM    2  C   UNL     1     -13.582   9.048  72.287  1.00  0.00    -0.484 C  
HETATM    3  H   UNL     1     -15.120   9.466  73.393  1.00  0.00     0.000 HD 
ENDROOT
BRANCH   2   4
HETATM    4  C   UNL     1     -12.397   8.067  72.328  1.00  0.00    -0.291 C  
HETATM    5  O   UNL     1     -12.885   6.749  72.317  1.00  0.00    -0.539 OA 
HETATM    6  H   UNL     1     -12.153   6.143  72.342  1.00  0.00     0.000 HD 
BRANCH   4   7
HETATM    7  C   UNL     1     -11.443   8.275  71.122  1.00  0.00    -0.273 C  
HETATM    8  H   UNL     1      -9.754   9.177  70.783  1.00  0.00     0.000 HD 
HETATM    9  O   UNL     1     -10.338   9.049  71.521  1.00  0.00    -0.291 OA 
BRANCH   7  10
HETATM   10  C   UNL     1     -10.934   6.928  70.546  1.00  0.00    -0.273 C  
HETATM   11  H   UNL     1      -9.965   5.398  71.219  1.00  0.00     0.000 HD 
HETATM   12  O   UNL     1     -10.276   6.224  71.572  1.00  0.00    -0.195 OA 
BRANCH  10  13
HETATM   13  C   UNL     1      -9.960   7.096  69.347  1.00  0.00    -0.164 C  
HETATM   14  H   UNL     1      -8.102   6.685  68.956  1.00  0.00     0.000 HD 
HETATM   15  O   UNL     1      -8.698   6.582  69.689  1.00  0.00    -0.136 OA 
BRANCH  13  16
HETATM   16  C   UNL     1     -10.423   6.392  68.094  1.00  0.00    -0.218 C  
HETATM   17  O   UNL     1     -10.477   5.172  68.069  1.00  0.00    -0.119 OA 
BRANCH  16  18
HETATM   18  O   UNL     1     -10.770   7.087  66.992  1.00  0.00    -0.315 OA 
BRANCH  18  19
HETATM   19 CA   UNL     1     -11.512   9.379  67.230  1.00  0.00    -0.368 Ca 
BRANCH  19  20
HETATM   20  O   UNL     1     -12.254  11.670  67.467  1.00  0.00    -0.501 OA 
BRANCH  20  21
HETATM   21  C   UNL     1     -11.815  12.146  68.646  1.00  0.00    -0.306 C  
HETATM   22  O   UNL     1     -11.812  11.388  69.601  1.00  0.00    -0.301 OA 
BRANCH  21  23
HETATM   23  C   UNL     1     -11.499  13.611  68.845  1.00  0.00    -0.303 C  
HETATM   24  H   UNL     1     -12.163  15.042  69.958  1.00  0.00     0.000 HD 
HETATM   25  O   UNL     1     -12.362  14.121  69.832  1.00  0.00    -0.336 OA 
BRANCH  23  26
HETATM   26  C   UNL     1     -11.624  14.484  67.560  1.00  0.00    -0.381 C  
HETATM   27  H   UNL     1     -11.546  16.371  67.117  1.00  0.00     0.000 HD 
HETATM   28  O   UNL     1     -11.470  15.838  67.900  1.00  0.00    -0.316 OA 
BRANCH  26  29
HETATM   29  C   UNL     1     -10.681  14.134  66.357  1.00  0.00    -0.288 C  
BRANCH  29  30
HETATM   30  O   UNL     1      -9.354  14.181  66.861  1.00  0.00    -0.243 OA 
BRANCH  30  31
HETATM   31  C   UNL     1      -8.596  12.997  66.712  1.00  0.00    -0.050 C  
HETATM   32  O   UNL     1      -9.369  12.003  66.059  1.00  0.00    -0.233 OA 
HETATM   33  C   UNL     1      -8.614  10.813  65.890  1.00  0.00    -0.179 C  
HETATM   34  H   UNL     1      -7.232  13.209  69.691  1.00  0.00     0.000 HD 
HETATM   35  C   UNL     1      -8.301  10.179  67.270  1.00  0.00    -0.121 C  
HETATM   36  O   UNL     1      -9.491   9.882  67.959  1.00  0.00    -0.134 OA 
HETATM   37  C   UNL     1      -7.464  11.186  68.086  1.00  0.00    -0.093 C  
HETATM   38  O   UNL     1      -7.463  13.499  68.817  1.00  0.00    -0.109 OA 
HETATM   39  H   UNL     1      -9.299   9.494  68.804  1.00  0.00     0.000 HD 
HETATM   40  O   UNL     1      -7.235  10.729  69.396  1.00  0.00    -0.108 OA 
HETATM   41  C   UNL     1      -8.219  12.525  68.139  1.00  0.00    -0.170 C  
HETATM   42  H   UNL     1      -6.719  11.349  69.899  1.00  0.00     0.000 HD 
BRANCH  33  43
HETATM   43  C   UNL     1      -9.421   9.866  64.987  1.00  0.00    -0.280 C  
HETATM   44  O   UNL     1      -9.125   8.524  65.263  1.00  0.00    -0.394 OA 
HETATM   45  H   UNL     1      -9.623   7.939  64.705  1.00  0.00     0.000 HD 
ENDBRANCH  33  43
ENDBRANCH  30  31
ENDBRANCH  29  30
BRANCH  29  46
HETATM   46  C   UNL     1     -10.855  15.013  65.069  1.00  0.00    -0.422 C  
HETATM   47  O   UNL     1     -10.482  16.349  65.316  1.00  0.00    -0.572 OA 
HETATM   48  H   UNL     1     -10.587  16.881  64.537  1.00  0.00     0.000 HD 
BRANCH  46  49
HETATM   49  C   UNL     1     -12.239  14.909  64.388  1.00  0.00    -0.381 C  
HETATM   50  H   UNL     1     -13.946  14.010  64.705  1.00  0.00     0.000 HD 
HETATM   51  O   UNL     1     -13.095  14.074  65.123  1.00  0.00    -0.776 OA 
ENDBRANCH  46  49
ENDBRANCH  29  46
ENDBRANCH  26  29
ENDBRANCH  23  26
ENDBRANCH  21  23
ENDBRANCH  20  21
ENDBRANCH  19  20
ENDBRANCH  18  19
ENDBRANCH  16  18
ENDBRANCH  13  16
ENDBRANCH  10  13
ENDBRANCH   7  10
ENDBRANCH   4   7
ENDBRANCH   2   4
TORSDOF 17
ENDMDL
MODEL       42
REMARK 921   NORMALIZED FREE ENERGY PREDICTED BY IDOCK:   -5.77 KCAL/MOL
REMARK 922        TOTAL FREE ENERGY PREDICTED BY IDOCK:  -14.94 KCAL/MOL
REMARK 923 INTER-LIGAND FREE ENERGY PREDICTED BY IDOCK:  -11.57 KCAL/MOL
REMARK 924 INTRA-LIGAND FREE ENERGY PREDICTED BY IDOCK:   -3.37 KCAL/MOL
REMARK 927      BINDING AFFINITY PREDICTED BY RF-SCORE:    0.00 PKD
ROOT
HETATM    1  O   UNL     1     -11.075   8.336  69.709  1.00  0.00    -0.404 OA 
HETATM    2  C   UNL     1     -11.932   8.052  70.781  1.00  0.00    -0.121 C  
HETATM    3  H   UNL     1     -11.483   8.067  68.894  1.00  0.00     0.000 HD 
ENDROOT
BRANCH   2   4
HETATM    4  C   UNL     1     -11.272   8.488  72.101  1.00  0.00    -0.362 C  
HETATM    5  O   UNL     1     -12.093   8.108  73.177  1.00  0.00    -0.626 OA 
HETATM    6  H   UNL     1     -11.685   8.377  73.992  1.00  0.00     0.000 HD 
BRANCH   4   7
HETATM    7  C   UNL     1      -9.867   7.852  72.272  1.00  0.00    -0.215 C  
HETATM    8  H   UNL     1      -8.060   8.471  72.633  1.00  0.00     0.000 HD 
HETATM    9  O   UNL     1      -8.920   8.860  72.529  1.00  0.00    -0.367 OA 
BRANCH   7  10
HETATM   10  C   UNL     1      -9.834   6.821  73.432  1.00  0.00    -0.205 C  
HETATM   11  H   UNL     1      -8.545   6.242  74.748  1.00  0.00     0.000 HD 
HETATM   12  O   UNL     1      -8.565   6.873  74.038  1.00  0.00    -0.134 OA 
BRANCH  10  13
HETATM   13  C   UNL     1     -10.113   5.364  72.972  1.00  0.00    -0.176 C  
HETATM   14  H   UNL     1     -11.666   4.226  72.712  1.00  0.00     0.000 HD 
HETATM   15  O   UNL     1     -11.495   5.118  72.993  1.00  0.00    -0.316 OA 
BRANCH  13  16
HETATM   16  C   UNL     1      -9.611   5.068  71.578  1.00  0.00    -0.158 C  
HETATM   17  O   UNL     1      -8.409   5.004  71.369  1.00  0.00    -0.113 OA 
BRANCH  16  18
HETATM   18  O   UNL     1     -10.467   4.883  70.554  1.00  0.00    -0.216 OA 
BRANCH  18  19
HETATM   19 CA   UNL     1     -10.410   6.413  68.679  1.00  0.00    -0.141 Ca 
BRANCH  19  20
HETATM   20  O   UNL     1     -10.353   7.943  66.805  1.00  0.00    -0.309 OA 
BRANCH  20  21
HETATM   21  C   UNL     1      -9.302   8.767  66.952  1.00  0.00    -0.167 C  
HETATM   22  O   UNL     1      -8.194   8.267  67.055  1.00  0.00    -0.103 OA 
BRANCH  21  23
HETATM   23  C   UNL     1      -9.478  10.254  67.162  1.00  0.00    -0.158 C  
HETATM   24  H   UNL     1      -9.359  11.476  68.652  1.00  0.00     0.000 HD 
HETATM   25  O   UNL     1      -9.248  10.542  68.520  1.00  0.00    -0.153 OA 
BRANCH  23  26
HETATM   26  C   UNL     1     -10.878  10.807  66.756  1.00  0.00    -0.194 C  
HETATM   27  H   UNL     1     -12.625  10.982  67.581  1.00  0.00     0.000 HD 
HETATM   28  O   UNL     1     -11.772  10.645  67.828  1.00  0.00    -0.503 OA 
BRANCH  26  29
HETATM   29  C   UNL     1     -10.945  12.284  66.235  1.00  0.00    -0.291 C  
BRANCH  29  30
HETATM   30  O   UNL     1     -12.111  12.859  66.807  1.00  0.00    -0.399 OA 
BRANCH  30  31
HETATM   31  C   UNL     1     -11.950  14.146  67.368  1.00  0.00    -0.404 C  
HETATM   32  O   UNL     1     -11.059  14.915  66.578  1.00  0.00    -0.334 OA 
HETATM   33  C   UNL     1     -10.900  16.216  67.122  1.00  0.00    -0.216 C  
HETATM   34  H   UNL     1     -11.863  13.051  70.461  1.00  0.00     0.000 HD 
HETATM   35  C   UNL     1     -10.187  16.136  68.497  1.00  0.00    -0.241 C  
HETATM   36  O   UNL     1      -8.925  15.529  68.364  1.00  0.00    -0.180 OA 
HETATM   37  C   UNL     1     -11.069  15.302  69.450  1.00  0.00    -0.280 C  
HETATM   38  O   UNL     1     -12.222  13.173  69.591  1.00  0.00    -0.270 OA 
HETATM   39  H   UNL     1      -8.489  15.480  69.207  1.00  0.00     0.000 HD 
HETATM   40  O   UNL     1     -10.436  15.087  70.688  1.00  0.00    -0.520 OA 
HETATM   41  C   UNL     1     -11.363  13.946  68.788  1.00  0.00    -0.277 C  
HETATM   42  H   UNL     1     -10.978  14.574  71.275  1.00  0.00     0.000 HD 
BRANCH  33  43
HETATM   43  C   UNL     1     -10.110  17.060  66.109  1.00  0.00    -0.319 C  
HETATM   44  O   UNL     1      -8.947  16.398  65.691  1.00  0.00    -0.427 OA 
HETATM   45  H   UNL     1      -8.460  16.919  65.065  1.00  0.00     0.000 HD 
ENDBRANCH  33  43
ENDBRANCH  30  31
ENDBRANCH  29  30
BRANCH  29  46
HETATM   46  C   UNL     1     -10.903  12.464  64.676  1.00  0.00    -0.309 C  
HETATM   47  O   UNL     1     -10.020  13.499  64.311  1.00  0.00    -0.732 OA 
HETATM   48  H   UNL     1      -9.994  13.608  63.369  1.00  0.00     0.000 HD 
BRANCH  46  49
HETATM   49  C   UNL     1     -12.284  12.606  63.995  1.00  0.00    -0.463 C  
HETATM   50  H   UNL     1     -13.366  14.024  63.197  1.00  0.00     0.000 HD 
HETATM   51  O   UNL     1     -12.518  13.936  63.615  1.00  0.00    -0.768 OA 
ENDBRANCH  46  49
ENDBRANCH  29  46
ENDBRANCH  26  29
ENDBRANCH  23  26
ENDBRANCH  21  23
ENDBRANCH  20  21
ENDBRANCH  19  20
ENDBRANCH  18  19
ENDBRANCH  16  18
ENDBRANCH  13  16
ENDBRANCH  10  13
ENDBRANCH   7  10
ENDBRANCH   4   7
ENDBRANCH   2   4
TORSDOF 17
ENDMDL
MODEL       43
REMARK 921   NORMALIZED FREE ENERGY PREDICTED BY IDOCK:   -5.76 KCAL/MOL
REMARK 922        TOTAL FREE ENERGY PREDICTED BY IDOCK:  -14.92 KCAL/MOL
REMARK 923 INTER-LIGAND FREE ENERGY PREDICTED BY IDOCK:  -12.85 KCAL/MOL
REMARK 924 INTRA-LIGAND FREE ENERGY PREDICTED BY IDOCK:   -2.07 KCAL/MOL
REMARK 927      BINDING AFFINITY PREDICTED BY RF-SCORE:    0.00 PKD
ROOT
HETATM    1  O   UNL     1     -13.836   8.751  72.788  1.00  0.00    -0.733 OA 
HETATM    2  C   UNL     1     -12.478   8.477  72.575  1.00  0.00    -0.294 C  
HETATM    3  H   UNL     1     -14.013   8.788  73.720  1.00  0.00     0.000 HD 
ENDROOT
BRANCH   2   4
HETATM    4  C   UNL     1     -12.192   8.417  71.065  1.00  0.00    -0.164 C  
HETATM    5  O   UNL     1     -12.296   9.710  70.521  1.00  0.00    -0.461 OA 
HETATM    6  H   UNL     1     -12.119   9.673  69.589  1.00  0.00     0.000 HD 
BRANCH   4   7
HETATM    7  C   UNL     1     -10.779   7.847  70.775  1.00  0.00    -0.223 C  
HETATM    8  H   UNL     1      -9.473   6.740  71.698  1.00  0.00     0.000 HD 
HETATM    9  O   UNL     1     -10.339   7.090  71.876  1.00  0.00    -0.193 OA 
BRANCH   7  10
HETATM   10  C   UNL     1     -10.764   6.951  69.508  1.00  0.00    -0.246 C  
HETATM   11  H   UNL     1     -10.859   5.058  69.135  1.00  0.00     0.000 HD 
HETATM   12  O   UNL     1     -10.868   5.606  69.911  1.00  0.00    -0.331 OA 
BRANCH  10  13
HETATM   13  C   UNL     1      -9.483   7.119  68.645  1.00  0.00    -0.140 C  
HETATM   14  H   UNL     1      -8.267   5.966  67.665  1.00  0.00     0.000 HD 
HETATM   15  O   UNL     1      -9.050   5.863  68.192  1.00  0.00    -0.118 OA 
BRANCH  13  16
HETATM   16  C   UNL     1      -9.685   8.004  67.438  1.00  0.00    -0.166 C  
HETATM   17  O   UNL     1      -8.839   8.028  66.557  1.00  0.00    -0.135 OA 
BRANCH  16  18
HETATM   18  O   UNL     1     -10.781   8.779  67.318  1.00  0.00    -0.276 OA 
BRANCH  18  19
HETATM   19 CA   UNL     1     -10.776  10.586  65.708  1.00  0.00    -0.239 Ca 
BRANCH  19  20
HETATM   20  O   UNL     1     -10.772  12.393  64.098  1.00  0.00    -0.321 OA 
BRANCH  20  21
HETATM   21  C   UNL     1     -11.996  12.950  64.071  1.00  0.00    -0.451 C  
HETATM   22  O   UNL     1     -12.843  12.431  63.364  1.00  0.00    -0.732 OA 
BRANCH  21  23
HETATM   23  C   UNL     1     -12.285  14.272  64.746  1.00  0.00    -0.443 C  
HETATM   24  H   UNL     1     -13.114  15.941  64.244  1.00  0.00     0.000 HD 
HETATM   25  O   UNL     1     -12.932  15.111  63.821  1.00  0.00    -0.474 OA 
BRANCH  23  26
HETATM   26  C   UNL     1     -11.028  15.005  65.305  1.00  0.00    -0.382 C  
HETATM   27  H   UNL     1     -10.069  16.651  64.939  1.00  0.00     0.000 HD 
HETATM   28  O   UNL     1     -10.835  16.204  64.598  1.00  0.00    -0.650 OA 
BRANCH  26  29
HETATM   29  C   UNL     1     -10.988  15.292  66.846  1.00  0.00    -0.315 C  
BRANCH  29  30
HETATM   30  O   UNL     1      -9.639  15.109  67.253  1.00  0.00    -0.206 OA 
BRANCH  30  31
HETATM   31  C   UNL     1      -8.974  16.268  67.713  1.00  0.00    -0.193 C  
HETATM   32  O   UNL     1      -9.768  17.416  67.469  1.00  0.00    -0.256 OA 
HETATM   33  C   UNL     1      -9.118  18.587  67.940  1.00  0.00    -0.290 C  
HETATM   34  H   UNL     1      -6.025  15.289  66.653  1.00  0.00     0.000 HD 
HETATM   35  C   UNL     1      -7.833  18.852  67.114  1.00  0.00    -0.240 C  
HETATM   36  O   UNL     1      -8.146  19.011  65.751  1.00  0.00    -0.459 OA 
HETATM   37  C   UNL     1      -6.884  17.649  67.294  1.00  0.00    -0.162 C  
HETATM   38  O   UNL     1      -6.840  15.229  67.137  1.00  0.00    -0.254 OA 
HETATM   39  H   UNL     1      -7.359  19.174  65.246  1.00  0.00     0.000 HD 
HETATM   40  O   UNL     1      -5.741  17.763  66.482  1.00  0.00    -0.146 OA 
HETATM   41  C   UNL     1      -7.644  16.364  66.924  1.00  0.00    -0.240 C  
HETATM   42  H   UNL     1      -5.157  17.022  66.593  1.00  0.00     0.000 HD 
BRANCH  33  43
HETATM   43  C   UNL     1     -10.116  19.752  67.851  1.00  0.00    -0.430 C  
HETATM   44  O   UNL     1      -9.565  20.843  67.163  1.00  0.00    -0.666 OA 
HETATM   45  H   UNL     1     -10.182  21.562  67.108  1.00  0.00     0.000 HD 
ENDBRANCH  33  43
ENDBRANCH  30  31
ENDBRANCH  29  30
BRANCH  29  46
HETATM   46  C   UNL     1     -11.987  14.460  67.725  1.00  0.00    -0.333 C  
HETATM   47  O   UNL     1     -12.443  15.215  68.823  1.00  0.00    -0.583 OA 
HETATM   48  H   UNL     1     -13.048  14.712  69.354  1.00  0.00     0.000 HD 
BRANCH  46  49
HETATM   49  C   UNL     1     -11.479  13.062  68.148  1.00  0.00    -0.319 C  
HETATM   50  H   UNL     1     -11.600  11.220  67.503  1.00  0.00     0.000 HD 
HETATM   51  O   UNL     1     -11.912  12.079  67.243  1.00  0.00    -0.591 OA 
ENDBRANCH  46  49
ENDBRANCH  29  46
ENDBRANCH  26  29
ENDBRANCH  23  26
ENDBRANCH  21  23
ENDBRANCH  20  21
ENDBRANCH  19  20
ENDBRANCH  18  19
ENDBRANCH  16  18
ENDBRANCH  13  16
ENDBRANCH  10  13
ENDBRANCH   7  10
ENDBRANCH   4   7
ENDBRANCH   2   4
TORSDOF 17
ENDMDL
MODEL       44
REMARK 921   NORMALIZED FREE ENERGY PREDICTED BY IDOCK:   -5.76 KCAL/MOL
REMARK 922        TOTAL FREE ENERGY PREDICTED BY IDOCK:  -14.92 KCAL/MOL
REMARK 923 INTER-LIGAND FREE ENERGY PREDICTED BY IDOCK:  -13.02 KCAL/MOL
REMARK 924 INTRA-LIGAND FREE ENERGY PREDICTED BY IDOCK:   -1.90 KCAL/MOL
REMARK 927      BINDING AFFINITY PREDICTED BY RF-SCORE:    0.00 PKD
ROOT
HETATM    1  O   UNL     1     -14.122   8.957  73.232  1.00  0.00    -1.211 OA 
HETATM    2  C   UNL     1     -13.140   9.103  72.242  1.00  0.00    -0.438 C  
HETATM    3  H   UNL     1     -14.746   9.672  73.171  1.00  0.00     0.000 HD 
ENDROOT
BRANCH   2   4
HETATM    4  C   UNL     1     -12.131   7.946  72.341  1.00  0.00    -0.286 C  
HETATM    5  O   UNL     1     -12.816   6.722  72.249  1.00  0.00    -0.539 OA 
HETATM    6  H   UNL     1     -12.193   6.008  72.310  1.00  0.00     0.000 HD 
BRANCH   4   7
HETATM    7  C   UNL     1     -11.061   8.026  71.220  1.00  0.00    -0.247 C  
HETATM    8  H   UNL     1      -9.154   8.381  71.095  1.00  0.00     0.000 HD 
HETATM    9  O   UNL     1      -9.808   8.332  71.782  1.00  0.00    -0.181 OA 
BRANCH   7  10
HETATM   10  C   UNL     1     -10.949   6.695  70.430  1.00  0.00    -0.290 C  
HETATM   11  H   UNL     1     -10.338   4.900  70.799  1.00  0.00     0.000 HD 
HETATM   12  O   UNL     1     -10.407   5.715  71.282  1.00  0.00    -0.211 OA 
BRANCH  10  13
HETATM   13  C   UNL     1     -10.062   6.802  69.159  1.00  0.00    -0.171 C  
HETATM   14  H   UNL     1      -8.280   6.251  68.617  1.00  0.00     0.000 HD 
HETATM   15  O   UNL     1      -8.822   6.185  69.395  1.00  0.00    -0.125 OA 
BRANCH  13  16
HETATM   16  C   UNL     1     -10.678   6.156  67.941  1.00  0.00    -0.296 C  
HETATM   17  O   UNL     1     -10.636   4.942  67.813  1.00  0.00    -0.001 OA 
BRANCH  16  18
HETATM   18  O   UNL     1     -11.266   6.898  66.981  1.00  0.00    -0.369 OA 
BRANCH  18  19
HETATM   19 CA   UNL     1     -11.772   9.221  67.432  1.00  0.00    -0.457 Ca 
BRANCH  19  20
HETATM   20  O   UNL     1     -12.279  11.544  67.883  1.00  0.00    -0.586 OA 
BRANCH  20  21
HETATM   21  C   UNL     1     -11.491  11.971  68.885  1.00  0.00    -0.301 C  
HETATM   22  O   UNL     1     -10.976  11.131  69.603  1.00  0.00    -0.244 OA 
BRANCH  21  23
HETATM   23  C   UNL     1     -11.374  13.437  69.237  1.00  0.00    -0.257 C  
HETATM   24  H   UNL     1     -11.912  14.565  70.708  1.00  0.00     0.000 HD 
HETATM   25  O   UNL     1     -11.985  13.644  70.487  1.00  0.00    -0.322 OA 
BRANCH  23  26
HETATM   26  C   UNL     1     -12.005  14.409  68.195  1.00  0.00    -0.285 C  
HETATM   27  H   UNL     1     -12.861  16.149  68.218  1.00  0.00     0.000 HD 
HETATM   28  O   UNL     1     -12.476  15.557  68.854  1.00  0.00    -0.042 OA 
BRANCH  26  29
HETATM   29  C   UNL     1     -11.117  14.831  66.974  1.00  0.00    -0.333 C  
BRANCH  29  30
HETATM   30  O   UNL     1     -11.106  16.251  66.957  1.00  0.00    -0.158 OA 
BRANCH  30  31
HETATM   31  C   UNL     1      -9.841  16.854  66.769  1.00  0.00    -0.279 C  
HETATM   32  O   UNL     1      -9.130  16.887  67.995  1.00  0.00    -0.225 OA 
HETATM   33  C   UNL     1      -7.850  17.476  67.817  1.00  0.00    -0.207 C  
HETATM   34  H   UNL     1     -10.980  19.179  64.751  1.00  0.00     0.000 HD 
HETATM   35  C   UNL     1      -8.001  18.974  67.446  1.00  0.00    -0.250 C  
HETATM   36  O   UNL     1      -8.696  19.666  68.454  1.00  0.00    -0.340 OA 
HETATM   37  C   UNL     1      -8.780  19.067  66.117  1.00  0.00    -0.187 C  
HETATM   38  O   UNL     1     -10.821  18.295  65.058  1.00  0.00    -0.679 OA 
HETATM   39  H   UNL     1      -8.788  20.583  68.226  1.00  0.00     0.000 HD 
HETATM   40  O   UNL     1      -9.057  20.402  65.770  1.00  0.00    -0.562 OA 
HETATM   41  C   UNL     1     -10.102  18.296  66.268  1.00  0.00    -0.380 C  
HETATM   42  H   UNL     1      -9.537  20.459  64.952  1.00  0.00     0.000 HD 
BRANCH  33  43
HETATM   43  C   UNL     1      -7.053  17.278  69.116  1.00  0.00    -0.204 C  
HETATM   44  O   UNL     1      -6.419  18.465  69.511  1.00  0.00    -0.261 OA 
HETATM   45  H   UNL     1      -5.927  18.343  70.313  1.00  0.00     0.000 HD 
ENDBRANCH  33  43
ENDBRANCH  30  31
ENDBRANCH  29  30
BRANCH  29  46
HETATM   46  C   UNL     1     -11.530  14.229  65.584  1.00  0.00    -0.329 C  
HETATM   47  O   UNL     1     -11.140  15.078  64.530  1.00  0.00    -0.597 OA 
HETATM   48  H   UNL     1     -11.390  14.714  63.690  1.00  0.00     0.000 HD 
BRANCH  46  49
HETATM   49  C   UNL     1     -13.011  13.797  65.471  1.00  0.00    -0.315 C  
HETATM   50  H   UNL     1     -14.034  12.318  64.708  1.00  0.00     0.000 HD 
HETATM   51  O   UNL     1     -13.125  12.583  64.778  1.00  0.00    -0.853 OA 
ENDBRANCH  46  49
ENDBRANCH  29  46
ENDBRANCH  26  29
ENDBRANCH  23  26
ENDBRANCH  21  23
ENDBRANCH  20  21
ENDBRANCH  19  20
ENDBRANCH  18  19
ENDBRANCH  16  18
ENDBRANCH  13  16
ENDBRANCH  10  13
ENDBRANCH   7  10
ENDBRANCH   4   7
ENDBRANCH   2   4
TORSDOF 17
ENDMDL
MODEL       45
REMARK 921   NORMALIZED FREE ENERGY PREDICTED BY IDOCK:   -5.75 KCAL/MOL
REMARK 922        TOTAL FREE ENERGY PREDICTED BY IDOCK:  -14.90 KCAL/MOL
REMARK 923 INTER-LIGAND FREE ENERGY PREDICTED BY IDOCK:  -11.63 KCAL/MOL
REMARK 924 INTRA-LIGAND FREE ENERGY PREDICTED BY IDOCK:   -3.27 KCAL/MOL
REMARK 927      BINDING AFFINITY PREDICTED BY RF-SCORE:    0.00 PKD
ROOT
HETATM    1  O   UNL     1      -8.782  13.840  68.650  1.00  0.00    -0.292 OA 
HETATM    2  C   UNL     1      -9.912  14.466  68.107  1.00  0.00    -0.223 C  
HETATM    3  H   UNL     1      -9.053  13.189  69.287  1.00  0.00     0.000 HD 
ENDROOT
BRANCH   2   4
HETATM    4  C   UNL     1      -9.473  15.520  67.075  1.00  0.00    -0.225 C  
HETATM    5  O   UNL     1      -8.705  14.899  66.075  1.00  0.00    -0.422 OA 
HETATM    6  H   UNL     1      -8.434  15.549  65.438  1.00  0.00     0.000 HD 
BRANCH   4   7
HETATM    7  C   UNL     1     -10.694  16.225  66.426  1.00  0.00    -0.182 C  
HETATM    8  H   UNL     1     -11.189  18.037  65.923  1.00  0.00     0.000 HD 
HETATM    9  O   UNL     1     -10.442  17.605  66.320  1.00  0.00    -0.349 OA 
BRANCH   7  10
HETATM   10  C   UNL     1     -11.008  15.659  65.016  1.00  0.00    -0.431 C  
HETATM   11  H   UNL     1     -11.566  16.383  63.314  1.00  0.00     0.000 HD 
HETATM   12  O   UNL     1     -11.373  16.729  64.178  1.00  0.00    -1.194 OA 
BRANCH  10  13
HETATM   13  C   UNL     1     -12.150  14.606  65.012  1.00  0.00    -0.349 C  
HETATM   14  H   UNL     1     -13.546  14.026  63.793  1.00  0.00     0.000 HD 
HETATM   15  O   UNL     1     -12.848  14.670  63.796  1.00  0.00    -0.677 OA 
BRANCH  13  16
HETATM   16  C   UNL     1     -11.659  13.188  65.191  1.00  0.00    -0.318 C  
HETATM   17  O   UNL     1     -12.296  12.410  65.884  1.00  0.00    -0.638 OA 
BRANCH  16  18
HETATM   18  O   UNL     1     -10.520  12.767  64.607  1.00  0.00    -0.316 OA 
BRANCH  18  19
HETATM   19 CA   UNL     1      -8.511  12.574  65.944  1.00  0.00    -0.373 Ca 
BRANCH  19  20
HETATM   20  O   UNL     1      -6.504  12.381  67.281  1.00  0.00    -0.150 OA 
BRANCH  20  21
HETATM   21  C   UNL     1      -6.531  11.207  67.933  1.00  0.00    -0.058 C  
HETATM   22  O   UNL     1      -5.580  10.926  68.643  1.00  0.00    -0.041 OA 
BRANCH  21  23
HETATM   23  C   UNL     1      -7.607  10.176  67.675  1.00  0.00    -0.090 C  
HETATM   24  H   UNL     1      -8.916   9.842  66.296  1.00  0.00     0.000 HD 
HETATM   25  O   UNL     1      -8.240  10.489  66.458  1.00  0.00    -0.124 OA 
BRANCH  23  26
HETATM   26  C   UNL     1      -8.686  10.068  68.796  1.00  0.00    -0.136 C  
HETATM   27  H   UNL     1     -10.302  11.012  69.302  1.00  0.00     0.000 HD 
HETATM   28  O   UNL     1      -9.645  11.079  68.619  1.00  0.00    -0.183 OA 
BRANCH  26  29
HETATM   29  C   UNL     1      -9.405   8.686  68.971  1.00  0.00    -0.146 C  
BRANCH  29  30
HETATM   30  O   UNL     1      -9.954   8.682  70.281  1.00  0.00    -0.179 OA 
BRANCH  30  31
HETATM   31  C   UNL     1     -11.356   8.839  70.361  1.00  0.00    -0.192 C  
HETATM   32  O   UNL     1     -11.675  10.014  71.087  1.00  0.00    -0.345 OA 
HETATM   33  C   UNL     1     -13.081  10.193  71.162  1.00  0.00    -0.392 C  
HETATM   34  H   UNL     1     -11.929   5.645  70.860  1.00  0.00     0.000 HD 
HETATM   35  C   UNL     1     -13.718   9.060  72.008  1.00  0.00    -0.461 C  
HETATM   36  O   UNL     1     -13.180   9.053  73.308  1.00  0.00    -0.790 OA 
HETATM   37  C   UNL     1     -13.423   7.714  71.315  1.00  0.00    -0.219 C  
HETATM   38  O   UNL     1     -11.592   6.409  70.408  1.00  0.00    -0.386 OA 
HETATM   39  H   UNL     1     -13.570   8.359  73.826  1.00  0.00     0.000 HD 
HETATM   40  O   UNL     1     -13.872   6.625  72.084  1.00  0.00    -0.515 OA 
HETATM   41  C   UNL     1     -11.906   7.593  71.100  1.00  0.00    -0.293 C  
HETATM   42  H   UNL     1     -13.691   5.796  71.656  1.00  0.00     0.000 HD 
BRANCH  33  43
HETATM   43  C   UNL     1     -13.351  11.583  71.757  1.00  0.00    -0.253 C  
HETATM   44  O   UNL     1     -12.386  12.512  71.341  1.00  0.00    -0.213 OA 
HETATM   45  H   UNL     1     -12.553  13.371  71.709  1.00  0.00     0.000 HD 
ENDBRANCH  33  43
ENDBRANCH  30  31
ENDBRANCH  29  30
BRANCH  29  46
HETATM   46  C   UNL     1      -8.527   7.415  68.696  1.00  0.00    -0.129 C  
HETATM   47  O   UNL     1      -9.267   6.427  68.017  1.00  0.00    -0.114 OA 
HETATM   48  H   UNL     1      -8.735   5.658  67.850  1.00  0.00     0.000 HD 
BRANCH  46  49
HETATM   49  C   UNL     1      -7.790   6.848  69.932  1.00  0.00    -0.115 C  
HETATM   50  H   UNL     1      -8.054   5.431  71.252  1.00  0.00     0.000 HD 
HETATM   51  O   UNL     1      -8.506   5.779  70.492  1.00  0.00    -0.122 OA 
ENDBRANCH  46  49
ENDBRANCH  29  46
ENDBRANCH  26  29
ENDBRANCH  23  26
ENDBRANCH  21  23
ENDBRANCH  20  21
ENDBRANCH  19  20
ENDBRANCH  18  19
ENDBRANCH  16  18
ENDBRANCH  13  16
ENDBRANCH  10  13
ENDBRANCH   7  10
ENDBRANCH   4   7
ENDBRANCH   2   4
TORSDOF 17
ENDMDL
MODEL       46
REMARK 921   NORMALIZED FREE ENERGY PREDICTED BY IDOCK:   -5.75 KCAL/MOL
REMARK 922        TOTAL FREE ENERGY PREDICTED BY IDOCK:  -14.90 KCAL/MOL
REMARK 923 INTER-LIGAND FREE ENERGY PREDICTED BY IDOCK:  -12.46 KCAL/MOL
REMARK 924 INTRA-LIGAND FREE ENERGY PREDICTED BY IDOCK:   -2.44 KCAL/MOL
REMARK 927      BINDING AFFINITY PREDICTED BY RF-SCORE:    0.00 PKD
ROOT
HETATM    1  O   UNL     1      -8.565   6.483  71.793  1.00  0.00    -0.124 OA 
HETATM    2  C   UNL     1      -8.826   5.263  72.432  1.00  0.00    -0.128 C  
HETATM    3  H   UNL     1      -7.684   6.771  72.001  1.00  0.00     0.000 HD 
ENDROOT
BRANCH   2   4
HETATM    4  C   UNL     1     -10.252   4.796  72.095  1.00  0.00    -0.195 C  
HETATM    5  O   UNL     1     -10.389   3.439  72.434  1.00  0.00    -0.155 OA 
HETATM    6  H   UNL     1     -11.270   3.151  72.225  1.00  0.00     0.000 HD 
BRANCH   4   7
HETATM    7  C   UNL     1     -11.319   5.629  72.854  1.00  0.00    -0.273 C  
HETATM    8  H   UNL     1     -11.359   6.854  74.363  1.00  0.00     0.000 HD 
HETATM    9  O   UNL     1     -10.706   6.344  73.898  1.00  0.00    -0.260 OA 
BRANCH   7  10
HETATM   10  C   UNL     1     -12.049   6.628  71.918  1.00  0.00    -0.340 C  
HETATM   11  H   UNL     1     -11.904   7.171  70.070  1.00  0.00     0.000 HD 
HETATM   12  O   UNL     1     -11.457   6.559  70.643  1.00  0.00    -0.328 OA 
BRANCH  10  13
HETATM   13  C   UNL     1     -11.996   8.097  72.419  1.00  0.00    -0.372 C  
HETATM   14  H   UNL     1     -10.848   9.644  72.169  1.00  0.00     0.000 HD 
HETATM   15  O   UNL     1     -10.881   8.745  71.863  1.00  0.00    -0.314 OA 
BRANCH  13  16
HETATM   16  C   UNL     1     -13.225   8.899  72.060  1.00  0.00    -0.409 C  
HETATM   17  O   UNL     1     -14.254   8.747  72.700  1.00  0.00    -0.527 OA 
BRANCH  16  18
HETATM   18  O   UNL     1     -13.211   9.775  71.035  1.00  0.00    -0.353 OA 
BRANCH  18  19
HETATM   19 CA   UNL     1     -12.784  12.113  71.489  1.00  0.00    -0.300 Ca 
BRANCH  19  20
HETATM   20  O   UNL     1     -12.357  14.452  71.941  1.00  0.00    -0.334 OA 
BRANCH  20  21
HETATM   21  C   UNL     1     -12.949  15.191  70.988  1.00  0.00    -0.431 C  
HETATM   22  O   UNL     1     -14.025  15.703  71.248  1.00  0.00    -0.570 OA 
BRANCH  21  23
HETATM   23  C   UNL     1     -12.407  15.256  69.578  1.00  0.00    -0.175 C  
HETATM   24  H   UNL     1     -11.708  13.995  68.293  1.00  0.00     0.000 HD 
HETATM   25  O   UNL     1     -12.049  13.955  69.179  1.00  0.00    -0.345 OA 
BRANCH  23  26
HETATM   26  C   UNL     1     -11.179  16.199  69.396  1.00  0.00    -0.335 C  
HETATM   27  H   UNL     1      -9.332  16.250  69.986  1.00  0.00     0.000 HD 
HETATM   28  O   UNL     1     -10.080  15.675  70.097  1.00  0.00    -0.294 OA 
BRANCH  26  29
HETATM   29  C   UNL     1     -10.749  16.546  67.928  1.00  0.00    -0.337 C  
BRANCH  29  30
HETATM   30  O   UNL     1      -9.544  15.835  67.684  1.00  0.00    -0.218 OA 
BRANCH  30  31
HETATM   31  C   UNL     1      -9.623  14.799  66.727  1.00  0.00    -0.254 C  
HETATM   32  O   UNL     1     -10.876  14.842  66.065  1.00  0.00    -0.303 OA 
HETATM   33  C   UNL     1     -10.964  13.815  65.089  1.00  0.00    -0.337 C  
HETATM   34  H   UNL     1      -8.152  12.581  68.649  1.00  0.00     0.000 HD 
HETATM   35  C   UNL     1     -10.963  12.425  65.775  1.00  0.00    -0.298 C  
HETATM   36  O   UNL     1     -12.047  12.314  66.666  1.00  0.00    -0.612 OA 
HETATM   37  C   UNL     1      -9.637  12.266  66.547  1.00  0.00    -0.238 C  
HETATM   38  O   UNL     1      -8.243  13.400  68.176  1.00  0.00    -0.143 OA 
HETATM   39  H   UNL     1     -12.046  11.462  67.086  1.00  0.00     0.000 HD 
HETATM   40  O   UNL     1      -9.608  11.073  67.292  1.00  0.00    -0.164 OA 
HETATM   41  C   UNL     1      -9.474  13.464  67.498  1.00  0.00    -0.219 C  
HETATM   42  H   UNL     1      -8.791  10.976  67.766  1.00  0.00     0.000 HD 
BRANCH  33  43
HETATM   43  C   UNL     1     -12.238  14.054  64.263  1.00  0.00    -0.418 C  
HETATM   44  O   UNL     1     -12.214  15.310  63.641  1.00  0.00    -0.952 OA 
HETATM   45  H   UNL     1     -13.001  15.457  63.130  1.00  0.00     0.000 HD 
ENDBRANCH  33  43
ENDBRANCH  30  31
ENDBRANCH  29  30
BRANCH  29  46
HETATM   46  C   UNL     1     -10.611  18.074  67.596  1.00  0.00    -0.399 C  
HETATM   47  O   UNL     1      -9.843  18.270  66.432  1.00  0.00    -0.336 OA 
HETATM   48  H   UNL     1      -9.760  19.194  66.231  1.00  0.00     0.000 HD 
BRANCH  46  49
HETATM   49  C   UNL     1     -10.129  18.957  68.770  1.00  0.00    -0.355 C  
HETATM   50  H   UNL     1      -9.543  20.801  69.050  1.00  0.00     0.000 HD 
HETATM   51  O   UNL     1      -9.840  20.258  68.329  1.00  0.00    -0.321 OA 
ENDBRANCH  46  49
ENDBRANCH  29  46
ENDBRANCH  26  29
ENDBRANCH  23  26
ENDBRANCH  21  23
ENDBRANCH  20  21
ENDBRANCH  19  20
ENDBRANCH  18  19
ENDBRANCH  16  18
ENDBRANCH  13  16
ENDBRANCH  10  13
ENDBRANCH   7  10
ENDBRANCH   4   7
ENDBRANCH   2   4
TORSDOF 17
ENDMDL
MODEL       47
REMARK 921   NORMALIZED FREE ENERGY PREDICTED BY IDOCK:   -5.72 KCAL/MOL
REMARK 922        TOTAL FREE ENERGY PREDICTED BY IDOCK:  -14.84 KCAL/MOL
REMARK 923 INTER-LIGAND FREE ENERGY PREDICTED BY IDOCK:  -11.73 KCAL/MOL
REMARK 924 INTRA-LIGAND FREE ENERGY PREDICTED BY IDOCK:   -3.11 KCAL/MOL
REMARK 927      BINDING AFFINITY PREDICTED BY RF-SCORE:    0.00 PKD
ROOT
HETATM    1  O   UNL     1     -13.444  10.671  72.250  1.00  0.00    -0.594 OA 
HETATM    2  C   UNL     1     -13.109   9.318  72.396  1.00  0.00    -0.406 C  
HETATM    3  H   UNL     1     -14.014  10.937  72.962  1.00  0.00     0.000 HD 
ENDROOT
BRANCH   2   4
HETATM    4  C   UNL     1     -12.186   8.886  71.244  1.00  0.00    -0.299 C  
HETATM    5  O   UNL     1     -12.202   9.872  70.242  1.00  0.00    -0.454 OA 
HETATM    6  H   UNL     1     -11.632   9.606  69.530  1.00  0.00     0.000 HD 
BRANCH   4   7
HETATM    7  C   UNL     1     -10.730   8.666  71.731  1.00  0.00    -0.321 C  
HETATM    8  H   UNL     1      -9.850   7.953  73.311  1.00  0.00     0.000 HD 
HETATM    9  O   UNL     1     -10.742   8.087  73.013  1.00  0.00    -0.361 OA 
BRANCH   7  10
HETATM   10  C   UNL     1      -9.928   7.749  70.769  1.00  0.00    -0.181 C  
HETATM   11  H   UNL     1      -8.934   6.100  70.918  1.00  0.00     0.000 HD 
HETATM   12  O   UNL     1      -9.425   6.662  71.507  1.00  0.00    -0.158 OA 
BRANCH  10  13
HETATM   13  C   UNL     1      -8.745   8.471  70.068  1.00  0.00    -0.136 C  
HETATM   14  H   UNL     1      -7.054   7.971  69.255  1.00  0.00     0.000 HD 
HETATM   15  O   UNL     1      -7.777   7.529  69.684  1.00  0.00    -0.096 OA 
BRANCH  13  16
HETATM   16  C   UNL     1      -9.158   9.240  68.835  1.00  0.00    -0.139 C  
HETATM   17  O   UNL     1      -8.443  10.135  68.412  1.00  0.00    -0.113 OA 
BRANCH  16  18
HETATM   18  O   UNL     1     -10.313   8.964  68.196  1.00  0.00    -0.201 OA 
BRANCH  18  19
HETATM   19 CA   UNL     1     -10.798  10.079  66.103  1.00  0.00    -0.220 Ca 
BRANCH  19  20
HETATM   20  O   UNL     1     -11.283  11.195  64.012  1.00  0.00    -0.272 OA 
BRANCH  20  21
HETATM   21  C   UNL     1     -12.250  12.105  64.222  1.00  0.00    -0.377 C  
HETATM   22  O   UNL     1     -13.078  12.271  63.342  1.00  0.00    -0.727 OA 
BRANCH  21  23
HETATM   23  C   UNL     1     -12.231  13.026  65.421  1.00  0.00    -0.471 C  
HETATM   24  H   UNL     1     -13.061  14.699  65.907  1.00  0.00     0.000 HD 
HETATM   25  O   UNL     1     -13.072  14.121  65.154  1.00  0.00    -0.757 OA 
BRANCH  23  26
HETATM   26  C   UNL     1     -10.818  13.554  65.814  1.00  0.00    -0.275 C  
HETATM   27  H   UNL     1      -9.494  14.751  65.058  1.00  0.00     0.000 HD 
HETATM   28  O   UNL     1     -10.355  14.429  64.819  1.00  0.00    -0.431 OA 
BRANCH  26  29
HETATM   29  C   UNL     1     -10.668  14.229  67.221  1.00  0.00    -0.277 C  
BRANCH  29  30
HETATM   30  O   UNL     1      -9.399  14.867  67.226  1.00  0.00    -0.195 OA 
BRANCH  30  31
HETATM   31  C   UNL     1      -9.377  16.190  67.723  1.00  0.00    -0.211 C  
HETATM   32  O   UNL     1      -9.807  17.095  66.719  1.00  0.00    -0.261 OA 
HETATM   33  C   UNL     1      -9.805  18.427  67.209  1.00  0.00    -0.317 C  
HETATM   34  H   UNL     1      -6.555  15.791  69.351  1.00  0.00     0.000 HD 
HETATM   35  C   UNL     1      -8.354  18.882  67.509  1.00  0.00    -0.273 C  
HETATM   36  O   UNL     1      -7.564  18.813  66.347  1.00  0.00    -0.239 OA 
HETATM   37  C   UNL     1      -7.769  17.952  68.593  1.00  0.00    -0.289 C  
HETATM   38  O   UNL     1      -7.453  15.603  69.107  1.00  0.00    -0.168 OA 
HETATM   39  H   UNL     1      -6.675  19.092  66.531  1.00  0.00     0.000 HD 
HETATM   40  O   UNL     1      -6.412  18.231  68.839  1.00  0.00    -0.213 OA 
HETATM   41  C   UNL     1      -7.911  16.496  68.120  1.00  0.00    -0.163 C  
HETATM   42  H   UNL     1      -6.053  17.658  69.507  1.00  0.00     0.000 HD 
BRANCH  33  43
HETATM   43  C   UNL     1     -10.487  19.319  66.160  1.00  0.00    -0.488 C  
HETATM   44  O   UNL     1     -10.147  20.668  66.339  1.00  0.00    -0.516 OA 
HETATM   45  H   UNL     1     -10.568  21.218  65.690  1.00  0.00     0.000 HD 
ENDBRANCH  33  43
ENDBRANCH  30  31
ENDBRANCH  29  30
BRANCH  29  46
HETATM   46  C   UNL     1     -10.859  13.286  68.460  1.00  0.00    -0.265 C  
HETATM   47  O   UNL     1     -10.861  11.932  68.068  1.00  0.00    -0.198 OA 
HETATM   48  H   UNL     1     -10.976  11.361  68.818  1.00  0.00     0.000 HD 
BRANCH  46  49
HETATM   49  C   UNL     1     -12.061  13.633  69.369  1.00  0.00    -0.314 C  
HETATM   50  H   UNL     1     -12.996  12.851  70.897  1.00  0.00     0.000 HD 
HETATM   51  O   UNL     1     -12.257  12.638  70.339  1.00  0.00    -0.349 OA 
ENDBRANCH  46  49
ENDBRANCH  29  46
ENDBRANCH  26  29
ENDBRANCH  23  26
ENDBRANCH  21  23
ENDBRANCH  20  21
ENDBRANCH  19  20
ENDBRANCH  18  19
ENDBRANCH  16  18
ENDBRANCH  13  16
ENDBRANCH  10  13
ENDBRANCH   7  10
ENDBRANCH   4   7
ENDBRANCH   2   4
TORSDOF 17
ENDMDL
MODEL       48
REMARK 921   NORMALIZED FREE ENERGY PREDICTED BY IDOCK:   -5.71 KCAL/MOL
REMARK 922        TOTAL FREE ENERGY PREDICTED BY IDOCK:  -14.83 KCAL/MOL
REMARK 923 INTER-LIGAND FREE ENERGY PREDICTED BY IDOCK:  -10.95 KCAL/MOL
REMARK 924 INTRA-LIGAND FREE ENERGY PREDICTED BY IDOCK:   -3.88 KCAL/MOL
REMARK 927      BINDING AFFINITY PREDICTED BY RF-SCORE:    0.00 PKD
ROOT
HETATM    1  O   UNL     1     -12.355   6.513  70.213  1.00  0.00    -0.448 OA 
HETATM    2  C   UNL     1     -13.092   7.231  71.164  1.00  0.00    -0.230 C  
HETATM    3  H   UNL     1     -12.903   5.841  69.825  1.00  0.00     0.000 HD 
ENDROOT
BRANCH   2   4
HETATM    4  C   UNL     1     -12.205   8.319  71.793  1.00  0.00    -0.326 C  
HETATM    5  O   UNL     1     -12.744   8.698  73.035  1.00  0.00    -0.636 OA 
HETATM    6  H   UNL     1     -12.196   9.370  73.423  1.00  0.00     0.000 HD 
BRANCH   4   7
HETATM    7  C   UNL     1     -10.748   7.823  71.991  1.00  0.00    -0.231 C  
HETATM    8  H   UNL     1      -8.980   8.619  72.130  1.00  0.00     0.000 HD 
HETATM    9  O   UNL     1      -9.872   8.923  72.009  1.00  0.00    -0.325 OA 
BRANCH   7  10
HETATM   10  C   UNL     1     -10.583   7.023  73.310  1.00  0.00    -0.344 C  
HETATM   11  H   UNL     1      -9.466   7.139  74.882  1.00  0.00     0.000 HD 
HETATM   12  O   UNL     1      -9.568   7.629  74.074  1.00  0.00    -0.225 OA 
BRANCH  10  13
HETATM   13  C   UNL     1     -10.220   5.529  73.087  1.00  0.00    -0.189 C  
HETATM   14  H   UNL     1     -11.170   3.842  72.934  1.00  0.00     0.000 HD 
HETATM   15  O   UNL     1     -11.392   4.756  73.071  1.00  0.00    -0.274 OA 
BRANCH  13  16
HETATM   16  C   UNL     1      -9.480   5.278  71.794  1.00  0.00    -0.148 C  
HETATM   17  O   UNL     1      -8.327   5.662  71.672  1.00  0.00    -0.121 OA 
BRANCH  16  18
HETATM   18  O   UNL     1     -10.075   4.645  70.763  1.00  0.00    -0.224 OA 
BRANCH  18  19
HETATM   19 CA   UNL     1      -9.563   5.338  68.501  1.00  0.00    -0.108 Ca 
BRANCH  19  20
HETATM   20  O   UNL     1      -9.052   6.030  66.240  1.00  0.00    -0.145 OA 
BRANCH  20  21
HETATM   21  C   UNL     1      -8.333   7.164  66.287  1.00  0.00    -0.129 C  
HETATM   22  O   UNL     1      -7.374   7.264  65.541  1.00  0.00    -0.070 OA 
BRANCH  21  23
HETATM   23  C   UNL     1      -8.578   8.220  67.343  1.00  0.00    -0.125 C  
HETATM   24  H   UNL     1      -8.420   8.334  69.263  1.00  0.00     0.000 HD 
HETATM   25  O   UNL     1      -8.266   7.671  68.600  1.00  0.00    -0.125 OA 
BRANCH  23  26
HETATM   26  C   UNL     1     -10.032   8.779  67.378  1.00  0.00    -0.208 C  
HETATM   27  H   UNL     1     -11.619   8.531  68.465  1.00  0.00     0.000 HD 
HETATM   28  O   UNL     1     -10.732   8.190  68.444  1.00  0.00    -0.137 OA 
BRANCH  26  29
HETATM   29  C   UNL     1     -10.203  10.337  67.434  1.00  0.00    -0.218 C  
BRANCH  29  30
HETATM   30  O   UNL     1      -9.269  10.876  66.510  1.00  0.00    -0.164 OA 
BRANCH  30  31
HETATM   31  C   UNL     1      -9.768  11.874  65.642  1.00  0.00    -0.227 C  
HETATM   32  O   UNL     1     -10.551  12.806  66.370  1.00  0.00    -0.252 OA 
HETATM   33  C   UNL     1     -11.046  13.823  65.512  1.00  0.00    -0.298 C  
HETATM   34  H   UNL     1     -10.433   9.769  63.213  1.00  0.00     0.000 HD 
HETATM   35  C   UNL     1     -12.051  13.221  64.496  1.00  0.00    -0.408 C  
HETATM   36  O   UNL     1     -13.127  12.613  65.168  1.00  0.00    -0.726 OA 
HETATM   37  C   UNL     1     -11.308  12.170  63.645  1.00  0.00    -0.464 C  
HETATM   38  O   UNL     1      -9.896  10.210  63.859  1.00  0.00    -0.274 OA 
HETATM   39  H   UNL     1     -13.743  12.244  64.545  1.00  0.00     0.000 HD 
HETATM   40  O   UNL     1     -12.182  11.496  62.773  1.00  0.00    -0.820 OA 
HETATM   41  C   UNL     1     -10.645  11.153  64.588  1.00  0.00    -0.318 C  
HETATM   42  H   UNL     1     -11.724  10.850  62.249  1.00  0.00     0.000 HD 
BRANCH  33  43
HETATM   43  C   UNL     1     -11.688  14.910  66.388  1.00  0.00    -0.190 C  
HETATM   44  O   UNL     1     -12.442  14.346  67.429  1.00  0.00    -0.603 OA 
HETATM   45  H   UNL     1     -12.838  15.018  67.970  1.00  0.00     0.000 HD 
ENDBRANCH  33  43
ENDBRANCH  30  31
ENDBRANCH  29  30
BRANCH  29  46
HETATM   46  C   UNL     1     -10.072  10.991  68.855  1.00  0.00    -0.199 C  
HETATM   47  O   UNL     1      -9.294  10.188  69.711  1.00  0.00    -0.294 OA 
HETATM   48  H   UNL     1      -9.215  10.584  70.570  1.00  0.00     0.000 HD 
BRANCH  46  49
HETATM   49  C   UNL     1     -11.410  11.415  69.505  1.00  0.00    -0.289 C  
HETATM   50  H   UNL     1     -13.293  11.537  68.997  1.00  0.00     0.000 HD 
HETATM   51  O   UNL     1     -12.471  11.277  68.598  1.00  0.00    -0.442 OA 
ENDBRANCH  46  49
ENDBRANCH  29  46
ENDBRANCH  26  29
ENDBRANCH  23  26
ENDBRANCH  21  23
ENDBRANCH  20  21
ENDBRANCH  19  20
ENDBRANCH  18  19
ENDBRANCH  16  18
ENDBRANCH  13  16
ENDBRANCH  10  13
ENDBRANCH   7  10
ENDBRANCH   4   7
ENDBRANCH   2   4
TORSDOF 17
ENDMDL
MODEL       49
REMARK 921   NORMALIZED FREE ENERGY PREDICTED BY IDOCK:   -5.69 KCAL/MOL
REMARK 922        TOTAL FREE ENERGY PREDICTED BY IDOCK:  -14.78 KCAL/MOL
REMARK 923 INTER-LIGAND FREE ENERGY PREDICTED BY IDOCK:  -12.17 KCAL/MOL
REMARK 924 INTRA-LIGAND FREE ENERGY PREDICTED BY IDOCK:   -2.61 KCAL/MOL
REMARK 927      BINDING AFFINITY PREDICTED BY RF-SCORE:    0.00 PKD
ROOT
HETATM    1  O   UNL     1     -13.946   7.271  71.265  1.00  0.00    -0.517 OA 
HETATM    2  C   UNL     1     -13.046   8.102  71.946  1.00  0.00    -0.327 C  
HETATM    3  H   UNL     1     -14.693   7.084  71.822  1.00  0.00     0.000 HD 
ENDROOT
BRANCH   2   4
HETATM    4  C   UNL     1     -11.837   8.405  71.044  1.00  0.00    -0.252 C  
HETATM    5  O   UNL     1     -11.067   9.426  71.627  1.00  0.00    -0.369 OA 
HETATM    6  H   UNL     1     -10.320   9.613  71.070  1.00  0.00     0.000 HD 
BRANCH   4   7
HETATM    7  C   UNL     1     -10.953   7.147  70.835  1.00  0.00    -0.251 C  
HETATM    8  H   UNL     1     -11.080   5.462  69.871  1.00  0.00     0.000 HD 
HETATM    9  O   UNL     1     -11.621   6.233  69.999  1.00  0.00    -0.425 OA 
BRANCH   7  10
HETATM   10  C   UNL     1      -9.581   7.500  70.202  1.00  0.00    -0.168 C  
HETATM   11  H   UNL     1      -7.931   8.303  70.805  1.00  0.00     0.000 HD 
HETATM   12  O   UNL     1      -8.771   8.086  71.193  1.00  0.00    -0.124 OA 
BRANCH  10  13
HETATM   13  C   UNL     1      -9.688   8.476  68.998  1.00  0.00    -0.170 C  
HETATM   14  H   UNL     1      -9.269  10.337  68.634  1.00  0.00     0.000 HD 
HETATM   15  O   UNL     1      -9.204   9.741  69.370  1.00  0.00    -0.178 OA 
BRANCH  13  16
HETATM   16  C   UNL     1      -8.911   8.020  67.785  1.00  0.00    -0.132 C  
HETATM   17  O   UNL     1      -7.778   7.586  67.921  1.00  0.00    -0.111 OA 
BRANCH  16  18
HETATM   18  O   UNL     1      -9.443   8.094  66.549  1.00  0.00    -0.192 OA 
BRANCH  18  19
HETATM   19 CA   UNL     1     -10.866   9.970  65.988  1.00  0.00    -0.212 Ca 
BRANCH  19  20
HETATM   20  O   UNL     1     -12.288  11.846  65.427  1.00  0.00    -0.352 OA 
BRANCH  20  21
HETATM   21  C   UNL     1     -11.572  12.733  64.715  1.00  0.00    -0.325 C  
HETATM   22  O   UNL     1     -10.398  12.479  64.502  1.00  0.00    -0.313 OA 
BRANCH  21  23
HETATM   23  C   UNL     1     -12.131  14.084  64.331  1.00  0.00    -0.458 C  
HETATM   24  H   UNL     1     -13.008  14.843  62.788  1.00  0.00     0.000 HD 
HETATM   25  O   UNL     1     -12.657  13.994  63.029  1.00  0.00    -0.643 OA 
BRANCH  23  26
HETATM   26  C   UNL     1     -11.101  15.253  64.384  1.00  0.00    -0.117 C  
HETATM   27  H   UNL     1     -11.079  17.141  63.942  1.00  0.00     0.000 HD 
HETATM   28  O   UNL     1     -11.706  16.429  63.909  1.00  0.00    -1.085 OA 
BRANCH  26  29
HETATM   29  C   UNL     1     -10.406  15.538  65.760  1.00  0.00    -0.363 C  
BRANCH  29  30
HETATM   30  O   UNL     1     -11.439  15.566  66.734  1.00  0.00    -0.142 OA 
BRANCH  30  31
HETATM   31  C   UNL     1     -11.136  14.950  67.969  1.00  0.00    -0.295 C  
HETATM   32  O   UNL     1     -11.888  13.757  68.117  1.00  0.00    -0.343 OA 
HETATM   33  C   UNL     1     -11.582  13.120  69.348  1.00  0.00    -0.300 C  
HETATM   34  H   UNL     1     -11.034  17.781  69.629  1.00  0.00     0.000 HD 
HETATM   35  C   UNL     1     -12.058  13.997  70.535  1.00  0.00    -0.353 C  
HETATM   36  O   UNL     1     -13.445  14.221  70.459  1.00  0.00    -0.361 OA 
HETATM   37  C   UNL     1     -11.309  15.345  70.472  1.00  0.00    -0.326 C  
HETATM   38  O   UNL     1     -10.799  17.162  68.949  1.00  0.00    -0.289 OA 
HETATM   39  H   UNL     1     -13.736  14.758  71.186  1.00  0.00     0.000 HD 
HETATM   40  O   UNL     1     -11.770  16.241  71.453  1.00  0.00    -0.550 OA 
HETATM   41  C   UNL     1     -11.521  15.961  69.079  1.00  0.00    -0.380 C  
HETATM   42  H   UNL     1     -11.308  17.071  71.414  1.00  0.00     0.000 HD 
BRANCH  33  43
HETATM   43  C   UNL     1     -12.251  11.737  69.345  1.00  0.00    -0.157 C  
HETATM   44  O   UNL     1     -11.824  10.967  68.253  1.00  0.00    -0.631 OA 
HETATM   45  H   UNL     1     -12.237  10.112  68.251  1.00  0.00     0.000 HD 
ENDBRANCH  33  43
ENDBRANCH  30  31
ENDBRANCH  29  30
BRANCH  29  46
HETATM   46  C   UNL     1      -9.504  16.821  65.820  1.00  0.00    -0.031 C  
HETATM   47  O   UNL     1      -8.352  16.592  66.599  1.00  0.00    -0.204 OA 
HETATM   48  H   UNL     1      -7.806  17.368  66.635  1.00  0.00     0.000 HD 
BRANCH  46  49
HETATM   49  C   UNL     1     -10.238  18.119  66.230  1.00  0.00    -0.395 C  
HETATM   50  H   UNL     1      -9.808  20.009  66.482  1.00  0.00     0.000 HD 
HETATM   51  O   UNL     1      -9.357  19.211  66.230  1.00  0.00    -0.333 OA 
ENDBRANCH  46  49
ENDBRANCH  29  46
ENDBRANCH  26  29
ENDBRANCH  23  26
ENDBRANCH  21  23
ENDBRANCH  20  21
ENDBRANCH  19  20
ENDBRANCH  18  19
ENDBRANCH  16  18
ENDBRANCH  13  16
ENDBRANCH  10  13
ENDBRANCH   7  10
ENDBRANCH   4   7
ENDBRANCH   2   4
TORSDOF 17
ENDMDL
MODEL       50
REMARK 921   NORMALIZED FREE ENERGY PREDICTED BY IDOCK:   -5.67 KCAL/MOL
REMARK 922        TOTAL FREE ENERGY PREDICTED BY IDOCK:  -14.75 KCAL/MOL
REMARK 923 INTER-LIGAND FREE ENERGY PREDICTED BY IDOCK:  -11.07 KCAL/MOL
REMARK 924 INTRA-LIGAND FREE ENERGY PREDICTED BY IDOCK:   -3.68 KCAL/MOL
REMARK 927      BINDING AFFINITY PREDICTED BY RF-SCORE:    0.00 PKD
ROOT
HETATM    1  O   UNL     1     -12.483   8.376  72.717  1.00  0.00    -0.589 OA 
HETATM    2  C   UNL     1     -11.348   7.584  72.496  1.00  0.00    -0.334 C  
HETATM    3  H   UNL     1     -12.390   8.846  73.538  1.00  0.00     0.000 HD 
ENDROOT
BRANCH   2   4
HETATM    4  C   UNL     1     -11.498   6.824  71.167  1.00  0.00    -0.314 C  
HETATM    5  O   UNL     1     -12.526   7.411  70.410  1.00  0.00    -0.542 OA 
HETATM    6  H   UNL     1     -12.619   6.942  69.589  1.00  0.00     0.000 HD 
BRANCH   4   7
HETATM    7  C   UNL     1     -10.179   6.841  70.349  1.00  0.00    -0.192 C  
HETATM    8  H   UNL     1      -8.287   6.558  70.692  1.00  0.00     0.000 HD 
HETATM    9  O   UNL     1      -9.094   6.547  71.194  1.00  0.00    -0.151 OA 
BRANCH   7  10
HETATM   10  C   UNL     1     -10.206   5.816  69.185  1.00  0.00    -0.223 C  
HETATM   11  H   UNL     1     -10.059   3.898  69.010  1.00  0.00     0.000 HD 
HETATM   12  O   UNL     1     -10.043   4.526  69.723  1.00  0.00    -0.229 OA 
BRANCH  10  13
HETATM   13  C   UNL     1      -9.101   6.060  68.119  1.00  0.00    -0.118 C  
HETATM   14  H   UNL     1      -7.815   4.989  67.133  1.00  0.00     0.000 HD 
HETATM   15  O   UNL     1      -8.491   4.840  67.785  1.00  0.00    -0.103 OA 
BRANCH  13  16
HETATM   16  C   UNL     1      -9.623   6.682  66.846  1.00  0.00    -0.157 C  
HETATM   17  O   UNL     1      -9.031   6.494  65.794  1.00  0.00    -0.134 OA 
BRANCH  16  18
HETATM   18  O   UNL     1     -10.727   7.455  66.850  1.00  0.00    -0.346 OA 
BRANCH  18  19
HETATM   19 CA   UNL     1     -10.763   9.468  65.507  1.00  0.00    -0.246 Ca 
BRANCH  19  20
HETATM   20  O   UNL     1     -10.800  11.480  64.164  1.00  0.00    -0.331 OA 
BRANCH  20  21
HETATM   21  C   UNL     1     -11.946  12.139  64.404  1.00  0.00    -0.361 C  
HETATM   22  O   UNL     1     -12.863  11.996  63.614  1.00  0.00    -0.713 OA 
BRANCH  21  23
HETATM   23  C   UNL     1     -12.060  13.164  65.511  1.00  0.00    -0.442 C  
HETATM   24  H   UNL     1     -13.346  14.498  66.049  1.00  0.00     0.000 HD 
HETATM   25  O   UNL     1     -13.275  13.855  65.354  1.00  0.00    -0.750 OA 
BRANCH  23  26
HETATM   26  C   UNL     1     -10.892  14.195  65.565  1.00  0.00    -0.310 C  
HETATM   27  H   UNL     1     -10.620  16.053  65.083  1.00  0.00     0.000 HD 
HETATM   28  O   UNL     1     -11.332  15.425  65.050  1.00  0.00    -0.370 OA 
BRANCH  26  29
HETATM   29  C   UNL     1     -10.198  14.424  66.952  1.00  0.00    -0.265 C  
BRANCH  29  30
HETATM   30  O   UNL     1     -11.123  13.992  67.940  1.00  0.00    -0.244 OA 
BRANCH  30  31
HETATM   31  C   UNL     1     -10.680  12.949  68.784  1.00  0.00    -0.218 C  
HETATM   32  O   UNL     1      -9.964  11.983  68.032  1.00  0.00    -0.185 OA 
HETATM   33  C   UNL     1      -9.499  10.937  68.870  1.00  0.00    -0.172 C  
HETATM   34  H   UNL     1     -13.459  12.853  70.528  1.00  0.00     0.000 HD 
HETATM   35  C   UNL     1     -10.700  10.136  69.438  1.00  0.00    -0.238 C  
HETATM   36  O   UNL     1     -11.468   9.590  68.394  1.00  0.00    -0.446 OA 
HETATM   37  C   UNL     1     -11.569  11.096  70.276  1.00  0.00    -0.296 C  
HETATM   38  O   UNL     1     -12.684  13.246  70.147  1.00  0.00    -0.095 OA 
HETATM   39  H   UNL     1     -12.203   9.099  68.742  1.00  0.00     0.000 HD 
HETATM   40  O   UNL     1     -12.742  10.470  70.734  1.00  0.00    -0.344 OA 
HETATM   41  C   UNL     1     -11.946  12.306  69.405  1.00  0.00    -0.259 C  
HETATM   42  H   UNL     1     -13.277  11.061  71.250  1.00  0.00     0.000 HD 
BRANCH  33  43
HETATM   43  C   UNL     1      -8.552  10.053  68.044  1.00  0.00    -0.121 C  
HETATM   44  O   UNL     1      -8.892  10.075  66.684  1.00  0.00    -0.131 OA 
HETATM   45  H   UNL     1      -8.306   9.529  66.173  1.00  0.00     0.000 HD 
ENDBRANCH  33  43
ENDBRANCH  30  31
ENDBRANCH  29  30
BRANCH  29  46
HETATM   46  C   UNL     1      -9.677  15.878  67.228  1.00  0.00    -0.224 C  
HETATM   47  O   UNL     1     -10.749  16.782  67.361  1.00  0.00    -0.314 OA 
HETATM   48  H   UNL     1     -10.434  17.662  67.527  1.00  0.00     0.000 HD 
BRANCH  46  49
HETATM   49  C   UNL     1      -8.603  16.387  66.238  1.00  0.00    -0.340 C  
HETATM   50  H   UNL     1      -6.654  16.514  66.155  1.00  0.00     0.000 HD 
HETATM   51  O   UNL     1      -7.314  16.202  66.763  1.00  0.00    -0.222 OA 
ENDBRANCH  46  49
ENDBRANCH  29  46
ENDBRANCH  26  29
ENDBRANCH  23  26
ENDBRANCH  21  23
ENDBRANCH  20  21
ENDBRANCH  19  20
ENDBRANCH  18  19
ENDBRANCH  16  18
ENDBRANCH  13  16
ENDBRANCH  10  13
ENDBRANCH   7  10
ENDBRANCH   4   7
ENDBRANCH   2   4
TORSDOF 17
ENDMDL
MODEL       51
REMARK 921   NORMALIZED FREE ENERGY PREDICTED BY IDOCK:   -5.67 KCAL/MOL
REMARK 922        TOTAL FREE ENERGY PREDICTED BY IDOCK:  -14.75 KCAL/MOL
REMARK 923 INTER-LIGAND FREE ENERGY PREDICTED BY IDOCK:  -10.89 KCAL/MOL
REMARK 924 INTRA-LIGAND FREE ENERGY PREDICTED BY IDOCK:   -3.86 KCAL/MOL
REMARK 927      BINDING AFFINITY PREDICTED BY RF-SCORE:    0.00 PKD
ROOT
HETATM    1  O   UNL     1     -12.780  14.358  69.676  1.00  0.00    -0.536 OA 
HETATM    2  C   UNL     1     -11.843  15.395  69.573  1.00  0.00    -0.349 C  
HETATM    3  H   UNL     1     -12.967  14.185  70.591  1.00  0.00     0.000 HD 
ENDROOT
BRANCH   2   4
HETATM    4  C   UNL     1     -11.541  15.675  68.091  1.00  0.00    -0.283 C  
HETATM    5  O   UNL     1     -10.789  16.858  67.985  1.00  0.00    -0.363 OA 
HETATM    6  H   UNL     1     -10.603  17.031  67.070  1.00  0.00     0.000 HD 
BRANCH   4   7
HETATM    7  C   UNL     1     -10.758  14.505  67.438  1.00  0.00    -0.282 C  
HETATM    8  H   UNL     1      -9.822  12.909  68.036  1.00  0.00     0.000 HD 
HETATM    9  O   UNL     1     -10.302  13.625  68.436  1.00  0.00    -0.238 OA 
BRANCH   7  10
HETATM   10  C   UNL     1     -11.632  13.714  66.429  1.00  0.00    -0.350 C  
HETATM   11  H   UNL     1     -12.582  12.032  66.422  1.00  0.00     0.000 HD 
HETATM   12  O   UNL     1     -12.046  12.517  67.041  1.00  0.00    -0.521 OA 
BRANCH  10  13
HETATM   13  C   UNL     1     -10.894  13.373  65.105  1.00  0.00    -0.313 C  
HETATM   14  H   UNL     1      -9.435  12.219  64.546  1.00  0.00     0.000 HD 
HETATM   15  O   UNL     1      -9.886  12.428  65.356  1.00  0.00    -0.252 OA 
BRANCH  13  16
HETATM   16  C   UNL     1     -11.803  12.810  64.038  1.00  0.00    -0.435 C  
HETATM   17  O   UNL     1     -12.681  13.512  63.559  1.00  0.00    -0.697 OA 
BRANCH  16  18
HETATM   18  O   UNL     1     -11.672  11.539  63.611  1.00  0.00    -0.376 OA 
BRANCH  18  19
HETATM   19 CA   UNL     1      -9.717  10.271  64.266  1.00  0.00    -0.202 Ca 
BRANCH  19  20
HETATM   20  O   UNL     1      -7.762   9.005  64.921  1.00  0.00    -0.104 OA 
BRANCH  20  21
HETATM   21  C   UNL     1      -8.163   7.863  65.505  1.00  0.00    -0.140 C  
HETATM   22  O   UNL     1      -7.957   6.816  64.915  1.00  0.00    -0.117 OA 
BRANCH  21  23
HETATM   23  C   UNL     1      -8.999   7.863  66.765  1.00  0.00    -0.145 C  
HETATM   24  H   UNL     1     -10.553   6.915  67.409  1.00  0.00     0.000 HD 
HETATM   25  O   UNL     1     -10.028   6.915  66.617  1.00  0.00    -0.184 OA 
BRANCH  23  26
HETATM   26  C   UNL     1      -9.629   9.243  67.127  1.00  0.00    -0.159 C  
HETATM   27  H   UNL     1     -11.407  10.014  67.195  1.00  0.00     0.000 HD 
HETATM   28  O   UNL     1     -11.024   9.173  66.974  1.00  0.00    -0.098 OA 
BRANCH  26  29
HETATM   29  C   UNL     1      -9.284   9.844  68.534  1.00  0.00    -0.136 C  
BRANCH  29  30
HETATM   30  O   UNL     1     -10.509  10.307  69.083  1.00  0.00    -0.196 OA 
BRANCH  30  31
HETATM   31  C   UNL     1     -10.789   9.887  70.403  1.00  0.00    -0.319 C  
HETATM   32  O   UNL     1     -10.858   8.472  70.460  1.00  0.00    -0.220 OA 
HETATM   33  C   UNL     1     -11.124   8.035  71.784  1.00  0.00    -0.260 C  
HETATM   34  H   UNL     1     -12.962  12.283  70.964  1.00  0.00     0.000 HD 
HETATM   35  C   UNL     1     -12.543   8.484  72.220  1.00  0.00    -0.381 C  
HETATM   36  O   UNL     1     -13.516   7.957  71.351  1.00  0.00    -0.459 OA 
HETATM   37  C   UNL     1     -12.594  10.026  72.185  1.00  0.00    -0.189 C  
HETATM   38  O   UNL     1     -12.123  11.907  70.727  1.00  0.00    -0.357 OA 
HETATM   39  H   UNL     1     -14.385   8.233  71.618  1.00  0.00     0.000 HD 
HETATM   40  O   UNL     1     -13.886  10.509  72.459  1.00  0.00    -0.445 OA 
HETATM   41  C   UNL     1     -12.159  10.501  70.789  1.00  0.00    -0.370 C  
HETATM   42  H   UNL     1     -13.917  11.458  72.437  1.00  0.00     0.000 HD 
BRANCH  33  43
HETATM   43  C   UNL     1     -10.963   6.507  71.820  1.00  0.00    -0.247 C  
HETATM   44  O   UNL     1     -11.894   5.917  72.687  1.00  0.00    -0.480 OA 
HETATM   45  H   UNL     1     -11.795   4.973  72.708  1.00  0.00     0.000 HD 
ENDBRANCH  33  43
ENDBRANCH  30  31
ENDBRANCH  29  30
BRANCH  29  46
HETATM   46  C   UNL     1      -8.173  10.953  68.552  1.00  0.00    -0.140 C  
HETATM   47  O   UNL     1      -7.722  11.237  67.249  1.00  0.00    -0.123 OA 
HETATM   48  H   UNL     1      -7.050  11.908  67.260  1.00  0.00     0.000 HD 
BRANCH  46  49
HETATM   49  C   UNL     1      -7.006  10.692  69.532  1.00  0.00    -0.121 C  
HETATM   50  H   UNL     1      -6.732   9.823  71.261  1.00  0.00     0.000 HD 
HETATM   51  O   UNL     1      -7.449   9.983  70.659  1.00  0.00    -0.302 OA 
ENDBRANCH  46  49
ENDBRANCH  29  46
ENDBRANCH  26  29
ENDBRANCH  23  26
ENDBRANCH  21  23
ENDBRANCH  20  21
ENDBRANCH  19  20
ENDBRANCH  18  19
ENDBRANCH  16  18
ENDBRANCH  13  16
ENDBRANCH  10  13
ENDBRANCH   7  10
ENDBRANCH   4   7
ENDBRANCH   2   4
TORSDOF 17
ENDMDL
MODEL       52
REMARK 921   NORMALIZED FREE ENERGY PREDICTED BY IDOCK:   -5.66 KCAL/MOL
REMARK 922        TOTAL FREE ENERGY PREDICTED BY IDOCK:  -14.73 KCAL/MOL
REMARK 923 INTER-LIGAND FREE ENERGY PREDICTED BY IDOCK:  -11.53 KCAL/MOL
REMARK 924 INTRA-LIGAND FREE ENERGY PREDICTED BY IDOCK:   -3.19 KCAL/MOL
REMARK 927      BINDING AFFINITY PREDICTED BY RF-SCORE:    0.00 PKD
ROOT
HETATM    1  O   UNL     1     -12.042  11.414  62.963  1.00  0.00    -0.934 OA 
HETATM    2  C   UNL     1     -12.897  11.748  64.022  1.00  0.00    -0.072 C  
HETATM    3  H   UNL     1     -12.453  10.755  62.415  1.00  0.00     0.000 HD 
ENDROOT
BRANCH   2   4
HETATM    4  C   UNL     1     -12.231  12.814  64.908  1.00  0.00    -0.463 C  
HETATM    5  O   UNL     1     -11.187  12.224  65.641  1.00  0.00    -0.308 OA 
HETATM    6  H   UNL     1     -10.775  12.883  66.188  1.00  0.00     0.000 HD 
BRANCH   4   7
HETATM    7  C   UNL     1     -11.671  13.989  64.064  1.00  0.00    -0.248 C  
HETATM    8  H   UNL     1     -12.186  14.962  62.461  1.00  0.00     0.000 HD 
HETATM    9  O   UNL     1     -12.529  14.243  62.978  1.00  0.00    -0.438 OA 
BRANCH   7  10
HETATM   10  C   UNL     1     -11.519  15.286  64.902  1.00  0.00    -0.343 C  
HETATM   11  H   UNL     1     -11.595  17.185  64.562  1.00  0.00     0.000 HD 
HETATM   12  O   UNL     1     -11.688  16.391  64.048  1.00  0.00    -1.044 OA 
BRANCH  10  13
HETATM   13  C   UNL     1     -10.142  15.405  65.613  1.00  0.00    -0.376 C  
HETATM   14  H   UNL     1      -8.724  16.725  65.753  1.00  0.00     0.000 HD 
HETATM   15  O   UNL     1      -9.566  16.652  65.318  1.00  0.00    -0.332 OA 
BRANCH  13  16
HETATM   16  C   UNL     1     -10.229  15.277  67.115  1.00  0.00    -0.252 C  
HETATM   17  O   UNL     1     -10.398  16.275  67.799  1.00  0.00    -0.270 OA 
BRANCH  16  18
HETATM   18  O   UNL     1     -10.112  14.078  67.720  1.00  0.00    -0.233 OA 
BRANCH  18  19
HETATM   19 CA   UNL     1     -11.468  13.602  69.667  1.00  0.00    -0.222 Ca 
BRANCH  19  20
HETATM   20  O   UNL     1     -12.822  13.127  71.615  1.00  0.00    -0.343 OA 
BRANCH  20  21
HETATM   21  C   UNL     1     -13.032  11.801  71.682  1.00  0.00    -0.362 C  
HETATM   22  O   UNL     1     -13.900  11.398  72.437  1.00  0.00     0.077 OA 
BRANCH  21  23
HETATM   23  C   UNL     1     -12.120  10.814  70.988  1.00  0.00    -0.346 C  
HETATM   24  H   UNL     1     -11.940  10.097  69.205  1.00  0.00     0.000 HD 
HETATM   25  O   UNL     1     -12.512  10.717  69.641  1.00  0.00    -0.289 OA 
BRANCH  23  26
HETATM   26  C   UNL     1     -12.107   9.387  71.617  1.00  0.00    -0.388 C  
HETATM   27  H   UNL     1     -13.256   7.825  71.608  1.00  0.00     0.000 HD 
HETATM   28  O   UNL     1     -13.264   8.694  71.224  1.00  0.00    -0.264 OA 
BRANCH  26  29
HETATM   29  C   UNL     1     -10.845   8.496  71.353  1.00  0.00    -0.260 C  
BRANCH  29  30
HETATM   30  O   UNL     1     -11.104   7.778  70.155  1.00  0.00    -0.257 OA 
BRANCH  30  31
HETATM   31  C   UNL     1     -10.066   7.784  69.196  1.00  0.00    -0.196 C  
HETATM   32  O   UNL     1      -9.800   9.111  68.774  1.00  0.00    -0.159 OA 
HETATM   33  C   UNL     1      -8.747   9.134  67.822  1.00  0.00    -0.121 C  
HETATM   34  H   UNL     1     -11.143   5.093  67.656  1.00  0.00     0.000 HD 
HETATM   35  C   UNL     1      -9.192   8.422  66.519  1.00  0.00    -0.189 C  
HETATM   36  O   UNL     1     -10.326   9.052  65.974  1.00  0.00    -0.318 OA 
HETATM   37  C   UNL     1      -9.524   6.954  66.858  1.00  0.00    -0.158 C  
HETATM   38  O   UNL     1     -10.842   5.614  68.391  1.00  0.00    -0.204 OA 
HETATM   39  H   UNL     1     -10.598   8.615  65.176  1.00  0.00     0.000 HD 
HETATM   40  O   UNL     1     -10.046   6.269  65.746  1.00  0.00    -0.268 OA 
HETATM   41  C   UNL     1     -10.557   6.934  67.998  1.00  0.00    -0.222 C  
HETATM   42  H   UNL     1     -10.250   5.365  65.955  1.00  0.00     0.000 HD 
BRANCH  33  43
HETATM   43  C   UNL     1      -8.360  10.601  67.579  1.00  0.00    -0.115 C  
HETATM   44  O   UNL     1      -9.396  11.470  67.954  1.00  0.00    -0.161 OA 
HETATM   45  H   UNL     1      -9.156  12.376  67.803  1.00  0.00     0.000 HD 
ENDBRANCH  33  43
ENDBRANCH  30  31
ENDBRANCH  29  30
BRANCH  29  46
HETATM   46  C   UNL     1     -10.415   7.548  72.527  1.00  0.00    -0.249 C  
HETATM   47  O   UNL     1     -11.360   7.579  73.572  1.00  0.00    -0.620 OA 
HETATM   48  H   UNL     1     -11.100   7.006  74.283  1.00  0.00     0.000 HD 
BRANCH  46  49
HETATM   49  C   UNL     1      -8.970   7.752  73.038  1.00  0.00    -0.199 C  
HETATM   50  H   UNL     1      -7.505   9.018  72.772  1.00  0.00     0.000 HD 
HETATM   51  O   UNL     1      -8.393   8.892  72.459  1.00  0.00    -0.388 OA 
ENDBRANCH  46  49
ENDBRANCH  29  46
ENDBRANCH  26  29
ENDBRANCH  23  26
ENDBRANCH  21  23
ENDBRANCH  20  21
ENDBRANCH  19  20
ENDBRANCH  18  19
ENDBRANCH  16  18
ENDBRANCH  13  16
ENDBRANCH  10  13
ENDBRANCH   7  10
ENDBRANCH   4   7
ENDBRANCH   2   4
TORSDOF 17
ENDMDL
MODEL       53
REMARK 921   NORMALIZED FREE ENERGY PREDICTED BY IDOCK:   -5.66 KCAL/MOL
REMARK 922        TOTAL FREE ENERGY PREDICTED BY IDOCK:  -14.72 KCAL/MOL
REMARK 923 INTER-LIGAND FREE ENERGY PREDICTED BY IDOCK:  -11.38 KCAL/MOL
REMARK 924 INTRA-LIGAND FREE ENERGY PREDICTED BY IDOCK:   -3.34 KCAL/MOL
REMARK 927      BINDING AFFINITY PREDICTED BY RF-SCORE:    0.00 PKD
ROOT
HETATM    1  O   UNL     1     -12.461  13.509  62.765  1.00  0.00    -0.829 OA 
HETATM    2  C   UNL     1     -11.988  12.516  63.634  1.00  0.00    -0.537 C  
HETATM    3  H   UNL     1     -12.925  13.105  62.040  1.00  0.00     0.000 HD 
ENDROOT
BRANCH   2   4
HETATM    4  C   UNL     1     -11.237  13.170  64.807  1.00  0.00    -0.324 C  
HETATM    5  O   UNL     1     -10.084  13.811  64.320  1.00  0.00    -0.744 OA 
HETATM    6  H   UNL     1      -9.621  14.215  65.045  1.00  0.00     0.000 HD 
BRANCH   4   7
HETATM    7  C   UNL     1     -12.127  14.201  65.549  1.00  0.00    -0.414 C  
HETATM    8  H   UNL     1     -14.028  14.512  65.813  1.00  0.00     0.000 HD 
HETATM    9  O   UNL     1     -13.484  13.880  65.358  1.00  0.00    -0.672 OA 
BRANCH   7  10
HETATM   10  C   UNL     1     -11.826  14.237  67.071  1.00  0.00    -0.428 C  
HETATM   11  H   UNL     1     -11.094  15.516  68.320  1.00  0.00     0.000 HD 
HETATM   12  O   UNL     1     -11.278  15.494  67.388  1.00  0.00    -0.315 OA 
BRANCH  10  13
HETATM   13  C   UNL     1     -10.842  13.128  67.534  1.00  0.00    -0.255 C  
HETATM   14  H   UNL     1      -9.280  13.001  68.681  1.00  0.00     0.000 HD 
HETATM   15  O   UNL     1      -9.882  13.679  68.398  1.00  0.00    -0.225 OA 
BRANCH  13  16
HETATM   16  C   UNL     1     -11.519  11.988  68.258  1.00  0.00    -0.303 C  
HETATM   17  O   UNL     1     -11.892  11.009  67.631  1.00  0.00    -0.599 OA 
BRANCH  16  18
HETATM   18  O   UNL     1     -11.730  12.036  69.589  1.00  0.00    -0.304 OA 
BRANCH  18  19
HETATM   19 CA   UNL     1     -12.351  10.010  70.758  1.00  0.00    -0.249 Ca 
BRANCH  19  20
HETATM   20  O   UNL     1     -12.972   7.984  71.927  1.00  0.00    -0.317 OA 
BRANCH  20  21
HETATM   21  C   UNL     1     -11.852   7.343  72.304  1.00  0.00    -0.268 C  
HETATM   22  O   UNL     1     -11.209   7.814  73.227  1.00  0.00    -0.350 OA 
BRANCH  21  23
HETATM   23  C   UNL     1     -11.296   6.179  71.516  1.00  0.00    -0.280 C  
HETATM   24  H   UNL     1      -9.993   4.787  71.817  1.00  0.00     0.000 HD 
HETATM   25  O   UNL     1     -10.343   5.518  72.312  1.00  0.00    -0.196 OA 
BRANCH  23  26
HETATM   26  C   UNL     1     -10.639   6.569  70.156  1.00  0.00    -0.227 C  
HETATM   27  H   UNL     1     -11.218   6.808  68.321  1.00  0.00     0.000 HD 
HETATM   28  O   UNL     1     -11.618   6.571  69.149  1.00  0.00    -0.276 OA 
BRANCH  26  29
HETATM   29  C   UNL     1      -9.831   7.912  70.106  1.00  0.00    -0.184 C  
BRANCH  29  30
HETATM   30  O   UNL     1     -10.107   8.499  68.843  1.00  0.00    -0.192 OA 
BRANCH  30  31
HETATM   31  C   UNL     1      -8.986   8.726  68.012  1.00  0.00    -0.140 C  
HETATM   32  O   UNL     1      -8.551  10.070  68.136  1.00  0.00    -0.117 OA 
HETATM   33  C   UNL     1      -7.416  10.308  67.318  1.00  0.00    -0.094 C  
HETATM   34  H   UNL     1     -10.171   6.952  65.518  1.00  0.00     0.000 HD 
HETATM   35  C   UNL     1      -7.802  10.189  65.821  1.00  0.00    -0.139 C  
HETATM   36  O   UNL     1      -8.811  11.114  65.497  1.00  0.00    -0.249 OA 
HETATM   37  C   UNL     1      -8.308   8.754  65.565  1.00  0.00    -0.147 C  
HETATM   38  O   UNL     1      -9.892   7.123  66.409  1.00  0.00    -0.150 OA 
HETATM   39  H   UNL     1      -9.048  11.040  64.580  1.00  0.00     0.000 HD 
HETATM   40  O   UNL     1      -8.786   8.599  64.251  1.00  0.00    -0.417 OA 
HETATM   41  C   UNL     1      -9.442   8.447  66.558  1.00  0.00    -0.220 C  
HETATM   42  H   UNL     1      -9.097   7.715  64.093  1.00  0.00     0.000 HD 
BRANCH  33  43
HETATM   43  C   UNL     1      -6.865  11.700  67.666  1.00  0.00    -0.094 C  
HETATM   44  O   UNL     1      -6.308  12.323  66.540  1.00  0.00    -0.458 OA 
HETATM   45  H   UNL     1      -5.969  13.184  66.755  1.00  0.00     0.000 HD 
ENDBRANCH  33  43
ENDBRANCH  30  31
ENDBRANCH  29  30
BRANCH  29  46
HETATM   46  C   UNL     1      -8.290   7.797  70.380  1.00  0.00    -0.123 C  
HETATM   47  O   UNL     1      -7.932   6.473  70.702  1.00  0.00    -0.108 OA 
HETATM   48  H   UNL     1      -7.000   6.403  70.867  1.00  0.00     0.000 HD 
BRANCH  46  49
HETATM   49  C   UNL     1      -7.728   8.818  71.396  1.00  0.00    -0.114 C  
HETATM   50  H   UNL     1      -7.753   9.102  73.329  1.00  0.00     0.000 HD 
HETATM   51  O   UNL     1      -8.099   8.475  72.705  1.00  0.00    -0.328 OA 
ENDBRANCH  46  49
ENDBRANCH  29  46
ENDBRANCH  26  29
ENDBRANCH  23  26
ENDBRANCH  21  23
ENDBRANCH  20  21
ENDBRANCH  19  20
ENDBRANCH  18  19
ENDBRANCH  16  18
ENDBRANCH  13  16
ENDBRANCH  10  13
ENDBRANCH   7  10
ENDBRANCH   4   7
ENDBRANCH   2   4
TORSDOF 17
ENDMDL
MODEL       54
REMARK 921   NORMALIZED FREE ENERGY PREDICTED BY IDOCK:   -5.65 KCAL/MOL
REMARK 922        TOTAL FREE ENERGY PREDICTED BY IDOCK:  -14.71 KCAL/MOL
REMARK 923 INTER-LIGAND FREE ENERGY PREDICTED BY IDOCK:  -11.52 KCAL/MOL
REMARK 924 INTRA-LIGAND FREE ENERGY PREDICTED BY IDOCK:   -3.19 KCAL/MOL
REMARK 927      BINDING AFFINITY PREDICTED BY RF-SCORE:    0.00 PKD
ROOT
HETATM    1  O   UNL     1     -10.956  18.407  64.945  1.00  0.00    -0.598 OA 
HETATM    2  C   UNL     1     -10.460  17.263  65.584  1.00  0.00    -0.181 C  
HETATM    3  H   UNL     1     -10.525  19.180  65.291  1.00  0.00     0.000 HD 
ENDROOT
BRANCH   2   4
HETATM    4  C   UNL     1     -11.158  16.013  65.023  1.00  0.00    -0.336 C  
HETATM    5  O   UNL     1     -11.646  16.292  63.734  1.00  0.00    -1.539 OA 
HETATM    6  H   UNL     1     -12.078  15.520  63.388  1.00  0.00     0.000 HD 
BRANCH   4   7
HETATM    7  C   UNL     1     -10.192  14.800  64.958  1.00  0.00    -0.344 C  
HETATM    8  H   UNL     1      -8.765  14.058  66.049  1.00  0.00     0.000 HD 
HETATM    9  O   UNL     1      -9.356  14.800  66.090  1.00  0.00    -0.295 OA 
BRANCH   7  10
HETATM   10  C   UNL     1     -10.957  13.452  64.894  1.00  0.00    -0.342 C  
HETATM   11  H   UNL     1     -11.631  12.293  63.503  1.00  0.00     0.000 HD 
HETATM   12  O   UNL     1     -11.163  13.119  63.542  1.00  0.00    -0.302 OA 
BRANCH  10  13
HETATM   13  C   UNL     1     -12.331  13.485  65.619  1.00  0.00    -0.476 C  
HETATM   14  H   UNL     1     -14.088  12.696  65.372  1.00  0.00     0.000 HD 
HETATM   15  O   UNL     1     -13.248  12.676  64.928  1.00  0.00    -0.819 OA 
BRANCH  13  16
HETATM   16  C   UNL     1     -12.268  12.999  67.048  1.00  0.00    -0.153 C  
HETATM   17  O   UNL     1     -12.310  13.806  67.964  1.00  0.00    -0.241 OA 
BRANCH  16  18
HETATM   18  O   UNL     1     -12.154  11.686  67.333  1.00  0.00    -0.605 OA 
BRANCH  18  19
HETATM   19 CA   UNL     1     -10.490  10.368  66.171  1.00  0.00    -0.213 Ca 
BRANCH  19  20
HETATM   20  O   UNL     1      -8.827   9.049  65.010  1.00  0.00    -0.195 OA 
BRANCH  20  21
HETATM   21  C   UNL     1      -7.939   8.585  65.907  1.00  0.00    -0.105 C  
HETATM   22  O   UNL     1      -6.941   9.252  66.119  1.00  0.00    -0.084 OA 
BRANCH  21  23
HETATM   23  C   UNL     1      -8.066   7.206  66.514  1.00  0.00    -0.114 C  
HETATM   24  H   UNL     1      -7.699   5.396  65.952  1.00  0.00     0.000 HD 
HETATM   25  O   UNL     1      -7.620   6.263  65.571  1.00  0.00    -0.080 OA 
BRANCH  23  26
HETATM   26  C   UNL     1      -9.507   6.826  66.971  1.00  0.00    -0.146 C  
HETATM   27  H   UNL     1     -10.816   5.462  66.538  1.00  0.00     0.000 HD 
HETATM   28  O   UNL     1      -9.938   5.694  66.260  1.00  0.00    -0.160 OA 
BRANCH  26  29
HETATM   29  C   UNL     1      -9.741   6.604  68.505  1.00  0.00    -0.131 C  
BRANCH  29  30
HETATM   30  O   UNL     1      -8.865   7.497  69.178  1.00  0.00    -0.136 OA 
BRANCH  30  31
HETATM   31  C   UNL     1      -9.459   8.311  70.169  1.00  0.00    -0.167 C  
HETATM   32  O   UNL     1     -10.064   7.504  71.165  1.00  0.00    -0.189 OA 
HETATM   33  C   UNL     1     -10.652   8.310  72.175  1.00  0.00    -0.310 C  
HETATM   34  H   UNL     1     -10.621  10.500  68.016  1.00  0.00     0.000 HD 
HETATM   35  C   UNL     1     -11.841   9.115  71.591  1.00  0.00    -0.372 C  
HETATM   36  O   UNL     1     -12.814   8.247  71.063  1.00  0.00    -0.505 OA 
HETATM   37  C   UNL     1     -11.301  10.033  70.474  1.00  0.00    -0.335 C  
HETATM   38  O   UNL     1      -9.963   9.973  68.452  1.00  0.00    -0.153 OA 
HETATM   39  H   UNL     1     -13.542   8.741  70.705  1.00  0.00     0.000 HD 
HETATM   40  O   UNL     1     -12.340  10.715  69.815  1.00  0.00    -0.469 OA 
HETATM   41  C   UNL     1     -10.534   9.171  69.457  1.00  0.00    -0.219 C  
HETATM   42  H   UNL     1     -12.007  11.280  69.128  1.00  0.00     0.000 HD 
BRANCH  33  43
HETATM   43  C   UNL     1     -11.086   7.386  73.324  1.00  0.00    -0.255 C  
HETATM   44  O   UNL     1     -11.494   6.133  72.845  1.00  0.00    -0.430 OA 
HETATM   45  H   UNL     1     -11.762   5.563  73.554  1.00  0.00     0.000 HD 
ENDBRANCH  33  43
ENDBRANCH  30  31
ENDBRANCH  29  30
BRANCH  29  46
HETATM   46  C   UNL     1      -9.585   5.128  69.016  1.00  0.00    -0.145 C  
HETATM   47  O   UNL     1     -10.434   4.882  70.114  1.00  0.00    -0.244 OA 
HETATM   48  H   UNL     1     -10.340   3.989  70.423  1.00  0.00     0.000 HD 
BRANCH  46  49
HETATM   49  C   UNL     1      -8.131   4.680  69.290  1.00  0.00    -0.069 C  
HETATM   50  H   UNL     1      -6.776   3.558  68.438  1.00  0.00     0.000 HD 
HETATM   51  O   UNL     1      -7.670   3.833  68.270  1.00  0.00    -0.064 OA 
ENDBRANCH  46  49
ENDBRANCH  29  46
ENDBRANCH  26  29
ENDBRANCH  23  26
ENDBRANCH  21  23
ENDBRANCH  20  21
ENDBRANCH  19  20
ENDBRANCH  18  19
ENDBRANCH  16  18
ENDBRANCH  13  16
ENDBRANCH  10  13
ENDBRANCH   7  10
ENDBRANCH   4   7
ENDBRANCH   2   4
TORSDOF 17
ENDMDL
MODEL       55
REMARK 921   NORMALIZED FREE ENERGY PREDICTED BY IDOCK:   -5.65 KCAL/MOL
REMARK 922        TOTAL FREE ENERGY PREDICTED BY IDOCK:  -14.71 KCAL/MOL
REMARK 923 INTER-LIGAND FREE ENERGY PREDICTED BY IDOCK:  -12.23 KCAL/MOL
REMARK 924 INTRA-LIGAND FREE ENERGY PREDICTED BY IDOCK:   -2.48 KCAL/MOL
REMARK 927      BINDING AFFINITY PREDICTED BY RF-SCORE:    0.00 PKD
ROOT
HETATM    1  O   UNL     1      -9.992   7.145  66.200  1.00  0.00    -0.436 OA 
HETATM    2  C   UNL     1      -9.437   8.423  66.352  1.00  0.00    -0.227 C  
HETATM    3  H   UNL     1      -9.732   6.781  65.362  1.00  0.00     0.000 HD 
ENDROOT
BRANCH   2   4
HETATM    4  C   UNL     1      -9.857   9.012  67.709  1.00  0.00    -0.168 C  
HETATM    5  O   UNL     1     -11.212   8.719  67.943  1.00  0.00    -0.410 OA 
HETATM    6  H   UNL     1     -11.472   9.083  68.782  1.00  0.00     0.000 HD 
BRANCH   4   7
HETATM    7  C   UNL     1      -8.998   8.442  68.868  1.00  0.00    -0.146 C  
HETATM    8  H   UNL     1      -7.117   8.074  69.198  1.00  0.00     0.000 HD 
HETATM    9  O   UNL     1      -7.643   8.423  68.488  1.00  0.00    -0.092 OA 
BRANCH   7  10
HETATM   10  C   UNL     1      -9.147   9.279  70.167  1.00  0.00    -0.222 C  
HETATM   11  H   UNL     1      -7.991  10.368  71.266  1.00  0.00     0.000 HD 
HETATM   12  O   UNL     1      -7.900   9.856  70.470  1.00  0.00    -0.246 OA 
BRANCH  10  13
HETATM   13  C   UNL     1      -9.626   8.446  71.388  1.00  0.00    -0.194 C  
HETATM   14  H   UNL     1      -9.216   8.335  73.283  1.00  0.00     0.000 HD 
HETATM   15  O   UNL     1      -8.922   8.844  72.536  1.00  0.00    -0.367 OA 
BRANCH  13  16
HETATM   16  C   UNL     1     -11.102   8.595  71.673  1.00  0.00    -0.305 C  
HETATM   17  O   UNL     1     -11.555   8.208  72.739  1.00  0.00    -0.411 OA 
BRANCH  16  18
HETATM   18  O   UNL     1     -11.936   9.139  70.764  1.00  0.00    -0.272 OA 
BRANCH  18  19
HETATM   19 CA   UNL     1     -12.170  11.546  70.673  1.00  0.00    -0.250 Ca 
BRANCH  19  20
HETATM   20  O   UNL     1     -12.404  13.953  70.582  1.00  0.00    -0.338 OA 
BRANCH  20  21
HETATM   21  C   UNL     1     -11.673  14.419  69.555  1.00  0.00    -0.313 C  
HETATM   22  O   UNL     1     -11.224  15.550  69.641  1.00  0.00    -0.255 OA 
BRANCH  21  23
HETATM   23  C   UNL     1     -11.545  13.656  68.256  1.00  0.00    -0.339 C  
HETATM   24  H   UNL     1     -11.834  11.838  67.673  1.00  0.00     0.000 HD 
HETATM   25  O   UNL     1     -11.914  12.318  68.488  1.00  0.00    -0.317 OA 
BRANCH  23  26
HETATM   26  C   UNL     1     -10.122  13.687  67.621  1.00  0.00    -0.242 C  
HETATM   27  H   UNL     1      -8.711  12.410  67.243  1.00  0.00     0.000 HD 
HETATM   28  O   UNL     1      -9.579  12.391  67.630  1.00  0.00    -0.184 OA 
BRANCH  26  29
HETATM   29  C   UNL     1      -9.988  14.302  66.185  1.00  0.00    -0.314 C  
BRANCH  29  30
HETATM   30  O   UNL     1     -10.444  15.644  66.279  1.00  0.00    -0.288 OA 
BRANCH  30  31
HETATM   31  C   UNL     1      -9.439  16.638  66.265  1.00  0.00    -0.293 C  
HETATM   32  O   UNL     1      -8.719  16.621  67.486  1.00  0.00    -0.188 OA 
HETATM   33  C   UNL     1      -7.695  17.604  67.479  1.00  0.00    -0.201 C  
HETATM   34  H   UNL     1     -11.332  18.874  64.785  1.00  0.00     0.000 HD 
HETATM   35  C   UNL     1      -8.319  19.023  67.447  1.00  0.00    -0.276 C  
HETATM   36  O   UNL     1      -9.150  19.223  68.565  1.00  0.00    -0.351 OA 
HETATM   37  C   UNL     1      -9.148  19.158  66.152  1.00  0.00    -0.224 C  
HETATM   38  O   UNL     1     -10.892  18.040  64.892  1.00  0.00    -0.715 OA 
HETATM   39  H   UNL     1      -9.532  20.092  68.544  1.00  0.00     0.000 HD 
HETATM   40  O   UNL     1      -9.840  20.381  66.104  1.00  0.00    -0.621 OA 
HETATM   41  C   UNL     1     -10.157  17.999  66.091  1.00  0.00    -0.334 C  
HETATM   42  H   UNL     1     -10.350  20.464  65.306  1.00  0.00     0.000 HD 
BRANCH  33  43
HETATM   43  C   UNL     1      -6.819  17.385  68.722  1.00  0.00    -0.228 C  
HETATM   44  O   UNL     1      -7.018  16.108  69.267  1.00  0.00    -0.189 OA 
HETATM   45  H   UNL     1      -6.476  15.972  70.035  1.00  0.00     0.000 HD 
ENDBRANCH  33  43
ENDBRANCH  30  31
ENDBRANCH  29  30
BRANCH  29  46
HETATM   46  C   UNL     1     -10.705  13.516  65.031  1.00  0.00    -0.357 C  
HETATM   47  O   UNL     1      -9.818  13.261  63.967  1.00  0.00    -0.741 OA 
HETATM   48  H   UNL     1     -10.251  12.785  63.269  1.00  0.00     0.000 HD 
BRANCH  46  49
HETATM   49  C   UNL     1     -12.037  14.134  64.547  1.00  0.00    -0.468 C  
HETATM   50  H   UNL     1     -13.946  13.927  64.909  1.00  0.00     0.000 HD 
HETATM   51  O   UNL     1     -13.128  13.548  65.207  1.00  0.00    -0.713 OA 
ENDBRANCH  46  49
ENDBRANCH  29  46
ENDBRANCH  26  29
ENDBRANCH  23  26
ENDBRANCH  21  23
ENDBRANCH  20  21
ENDBRANCH  19  20
ENDBRANCH  18  19
ENDBRANCH  16  18
ENDBRANCH  13  16
ENDBRANCH  10  13
ENDBRANCH   7  10
ENDBRANCH   4   7
ENDBRANCH   2   4
TORSDOF 17
ENDMDL
MODEL       56
REMARK 921   NORMALIZED FREE ENERGY PREDICTED BY IDOCK:   -5.64 KCAL/MOL
REMARK 922        TOTAL FREE ENERGY PREDICTED BY IDOCK:  -14.69 KCAL/MOL
REMARK 923 INTER-LIGAND FREE ENERGY PREDICTED BY IDOCK:  -11.49 KCAL/MOL
REMARK 924 INTRA-LIGAND FREE ENERGY PREDICTED BY IDOCK:   -3.20 KCAL/MOL
REMARK 927      BINDING AFFINITY PREDICTED BY RF-SCORE:    0.00 PKD
ROOT
HETATM    1  O   UNL     1     -12.527  13.880  62.994  1.00  0.00    -1.099 OA 
HETATM    2  C   UNL     1     -12.301  12.677  63.677  1.00  0.00    -0.492 C  
HETATM    3  H   UNL     1     -12.611  13.709  62.064  1.00  0.00     0.000 HD 
ENDROOT
BRANCH   2   4
HETATM    4  C   UNL     1     -12.165  12.954  65.184  1.00  0.00    -0.470 C  
HETATM    5  O   UNL     1     -12.025  11.736  65.870  1.00  0.00    -0.405 OA 
HETATM    6  H   UNL     1     -11.941  11.907  66.801  1.00  0.00     0.000 HD 
BRANCH   4   7
HETATM    7  C   UNL     1     -10.945  13.863  65.488  1.00  0.00    -0.302 C  
HETATM    8  H   UNL     1     -10.469  15.733  65.254  1.00  0.00     0.000 HD 
HETATM    9  O   UNL     1     -11.217  15.178  65.068  1.00  0.00    -0.376 OA 
BRANCH   7  10
HETATM   10  C   UNL     1     -10.596  13.878  67.000  1.00  0.00    -0.279 C  
HETATM   11  H   UNL     1      -9.719  12.687  68.243  1.00  0.00     0.000 HD 
HETATM   12  O   UNL     1      -9.932  12.678  67.317  1.00  0.00    -0.209 OA 
BRANCH  10  13
HETATM   13  C   UNL     1     -11.839  14.023  67.921  1.00  0.00    -0.376 C  
HETATM   14  H   UNL     1     -12.791  12.924  69.209  1.00  0.00     0.000 HD 
HETATM   15  O   UNL     1     -12.031  12.836  68.646  1.00  0.00    -0.308 OA 
BRANCH  13  16
HETATM   16  C   UNL     1     -11.724  15.158  68.911  1.00  0.00    -0.333 C  
HETATM   17  O   UNL     1     -11.291  16.240  68.543  1.00  0.00    -0.367 OA 
BRANCH  16  18
HETATM   18  O   UNL     1     -12.080  14.996  70.201  1.00  0.00    -0.292 OA 
BRANCH  18  19
HETATM   19 CA   UNL     1     -12.384  12.758  71.068  1.00  0.00    -0.292 Ca 
BRANCH  19  20
HETATM   20  O   UNL     1     -12.687  10.519  71.936  1.00  0.00    -0.419 OA 
BRANCH  20  21
HETATM   21  C   UNL     1     -11.782   9.708  71.363  1.00  0.00    -0.404 C  
HETATM   22  O   UNL     1     -11.099  10.162  70.460  1.00  0.00    -0.294 OA 
BRANCH  21  23
HETATM   23  C   UNL     1     -11.717   8.232  71.687  1.00  0.00    -0.292 C  
HETATM   24  H   UNL     1     -12.740   6.992  72.756  1.00  0.00     0.000 HD 
HETATM   25  O   UNL     1     -12.781   7.919  72.552  1.00  0.00    -0.143 OA 
BRANCH  23  26
HETATM   26  C   UNL     1     -10.379   7.768  72.339  1.00  0.00    -0.253 C  
HETATM   27  H   UNL     1      -9.733   7.384  74.126  1.00  0.00     0.000 HD 
HETATM   28  O   UNL     1     -10.549   7.667  73.729  1.00  0.00    -0.248 OA 
BRANCH  26  29
HETATM   29  C   UNL     1      -9.731   6.450  71.791  1.00  0.00    -0.159 C  
BRANCH  29  30
HETATM   30  O   UNL     1     -10.500   6.063  70.661  1.00  0.00    -0.218 OA 
BRANCH  30  31
HETATM   31  C   UNL     1      -9.841   6.139  69.413  1.00  0.00    -0.157 C  
HETATM   32  O   UNL     1     -10.368   7.210  68.648  1.00  0.00    -0.177 OA 
HETATM   33  C   UNL     1      -9.705   7.307  67.397  1.00  0.00    -0.150 C  
HETATM   34  H   UNL     1      -9.753   2.885  68.990  1.00  0.00     0.000 HD 
HETATM   35  C   UNL     1     -10.013   6.058  66.531  1.00  0.00    -0.141 C  
HETATM   36  O   UNL     1     -11.398   5.936  66.316  1.00  0.00    -0.717 OA 
HETATM   37  C   UNL     1      -9.490   4.812  67.276  1.00  0.00    -0.146 C  
HETATM   38  O   UNL     1      -9.596   3.709  69.434  1.00  0.00    -0.184 OA 
HETATM   39  H   UNL     1     -11.586   5.171  65.786  1.00  0.00     0.000 HD 
HETATM   40  O   UNL     1      -9.834   3.624  66.606  1.00  0.00    -0.390 OA 
HETATM   41  C   UNL     1     -10.097   4.793  68.689  1.00  0.00    -0.044 C  
HETATM   42  H   UNL     1      -9.512   2.857  67.065  1.00  0.00     0.000 HD 
BRANCH  33  43
HETATM   43  C   UNL     1     -10.161   8.609  66.719  1.00  0.00    -0.296 C  
HETATM   44  O   UNL     1     -11.014   9.346  67.553  1.00  0.00    -0.445 OA 
HETATM   45  H   UNL     1     -11.295  10.151  67.135  1.00  0.00     0.000 HD 
ENDBRANCH  33  43
ENDBRANCH  30  31
ENDBRANCH  29  30
BRANCH  29  46
HETATM   46  C   UNL     1      -9.574   5.280  72.826  1.00  0.00    -0.149 C  
HETATM   47  O   UNL     1      -8.283   4.720  72.762  1.00  0.00    -0.099 OA 
HETATM   48  H   UNL     1      -8.188   4.013  73.388  1.00  0.00     0.000 HD 
BRANCH  46  49
HETATM   49  C   UNL     1     -10.682   4.204  72.770  1.00  0.00    -0.114 C  
HETATM   50  H   UNL     1     -12.573   4.046  73.241  1.00  0.00     0.000 HD 
HETATM   51  O   UNL     1     -11.891   4.707  73.275  1.00  0.00    -0.249 OA 
ENDBRANCH  46  49
ENDBRANCH  29  46
ENDBRANCH  26  29
ENDBRANCH  23  26
ENDBRANCH  21  23
ENDBRANCH  20  21
ENDBRANCH  19  20
ENDBRANCH  18  19
ENDBRANCH  16  18
ENDBRANCH  13  16
ENDBRANCH  10  13
ENDBRANCH   7  10
ENDBRANCH   4   7
ENDBRANCH   2   4
TORSDOF 17
ENDMDL
MODEL       57
REMARK 921   NORMALIZED FREE ENERGY PREDICTED BY IDOCK:   -5.64 KCAL/MOL
REMARK 922        TOTAL FREE ENERGY PREDICTED BY IDOCK:  -14.68 KCAL/MOL
REMARK 923 INTER-LIGAND FREE ENERGY PREDICTED BY IDOCK:  -11.04 KCAL/MOL
REMARK 924 INTRA-LIGAND FREE ENERGY PREDICTED BY IDOCK:   -3.64 KCAL/MOL
REMARK 927      BINDING AFFINITY PREDICTED BY RF-SCORE:    0.00 PKD
ROOT
HETATM    1  O   UNL     1     -10.106   7.049  66.206  1.00  0.00    -0.438 OA 
HETATM    2  C   UNL     1     -10.987   6.377  67.065  1.00  0.00    -0.389 C  
HETATM    3  H   UNL     1     -10.532   7.210  65.373  1.00  0.00     0.000 HD 
ENDROOT
BRANCH   2   4
HETATM    4  C   UNL     1     -10.296   6.116  68.414  1.00  0.00    -0.200 C  
HETATM    5  O   UNL     1      -8.981   5.676  68.185  1.00  0.00    -0.112 OA 
HETATM    6  H   UNL     1      -8.554   5.515  69.019  1.00  0.00     0.000 HD 
BRANCH   4   7
HETATM    7  C   UNL     1     -10.268   7.392  69.297  1.00  0.00    -0.199 C  
HETATM    8  H   UNL     1     -11.098   9.150  69.284  1.00  0.00     0.000 HD 
HETATM    9  O   UNL     1     -11.116   8.369  68.744  1.00  0.00     0.101 OA 
BRANCH   7  10
HETATM   10  C   UNL     1     -10.717   7.099  70.753  1.00  0.00    -0.231 C  
HETATM   11  H   UNL     1     -12.314   6.438  71.616  1.00  0.00     0.000 HD 
HETATM   12  O   UNL     1     -12.039   6.617  70.724  1.00  0.00    -0.385 OA 
BRANCH  10  13
HETATM   13  C   UNL     1     -10.656   8.344  71.681  1.00  0.00    -0.258 C  
HETATM   14  H   UNL     1     -11.667   9.049  73.182  1.00  0.00     0.000 HD 
HETATM   15  O   UNL     1     -11.704   8.288  72.615  1.00  0.00    -0.403 OA 
BRANCH  13  16
HETATM   16  C   UNL     1      -9.359   8.459  72.446  1.00  0.00    -0.285 C  
HETATM   17  O   UNL     1      -9.319   8.134  73.622  1.00  0.00    -0.235 OA 
BRANCH  16  18
HETATM   18  O   UNL     1      -8.242   8.928  71.855  1.00  0.00    -0.345 OA 
BRANCH  18  19
HETATM   19 CA   UNL     1      -7.958   8.634  69.470  1.00  0.00    -0.080 Ca 
BRANCH  19  20
HETATM   20  O   UNL     1      -7.673   8.339  67.085  1.00  0.00    -0.094 OA 
BRANCH  20  21
HETATM   21  C   UNL     1      -7.401   9.534  66.532  1.00  0.00    -0.090 C  
HETATM   22  O   UNL     1      -6.312   9.682  66.001  1.00  0.00    -0.069 OA 
BRANCH  21  23
HETATM   23  C   UNL     1      -8.322  10.720  66.702  1.00  0.00    -0.141 C  
HETATM   24  H   UNL     1      -9.531  11.363  68.063  1.00  0.00     0.000 HD 
HETATM   25  O   UNL     1      -8.952  10.617  67.956  1.00  0.00    -0.135 OA 
BRANCH  23  26
HETATM   26  C   UNL     1      -9.412  10.862  65.596  1.00  0.00    -0.215 C  
HETATM   27  H   UNL     1     -10.958   9.859  64.995  1.00  0.00     0.000 HD 
HETATM   28  O   UNL     1     -10.295   9.772  65.669  1.00  0.00    -0.199 OA 
BRANCH  26  29
HETATM   29  C   UNL     1     -10.229  12.199  65.558  1.00  0.00    -0.265 C  
BRANCH  29  30
HETATM   30  O   UNL     1     -11.436  11.952  66.265  1.00  0.00    -0.350 OA 
BRANCH  30  31
HETATM   31  C   UNL     1     -11.880  12.996  67.108  1.00  0.00    -0.373 C  
HETATM   32  O   UNL     1     -11.060  14.141  66.940  1.00  0.00    -0.296 OA 
HETATM   33  C   UNL     1     -11.505  15.203  67.770  1.00  0.00    -0.318 C  
HETATM   34  H   UNL     1     -12.503  11.009  69.646  1.00  0.00     0.000 HD 
HETATM   35  C   UNL     1     -11.309  14.832  69.263  1.00  0.00    -0.294 C  
HETATM   36  O   UNL     1      -9.953  14.567  69.532  1.00  0.00    -0.415 OA 
HETATM   37  C   UNL     1     -12.154  13.577  69.565  1.00  0.00    -0.297 C  
HETATM   38  O   UNL     1     -12.568  11.329  68.754  1.00  0.00    -0.312 OA 
HETATM   39  H   UNL     1      -9.834  14.340  70.446  1.00  0.00     0.000 HD 
HETATM   40  O   UNL     1     -11.941  13.109  70.874  1.00  0.00    -0.484 OA 
HETATM   41  C   UNL     1     -11.773  12.474  68.563  1.00  0.00    -0.324 C  
HETATM   42  H   UNL     1     -12.461  12.337  71.060  1.00  0.00     0.000 HD 
BRANCH  33  43
HETATM   43  C   UNL     1     -10.725  16.468  67.380  1.00  0.00    -0.260 C  
HETATM   44  O   UNL     1     -10.412  17.242  68.507  1.00  0.00    -0.343 OA 
HETATM   45  H   UNL     1      -9.929  18.023  68.265  1.00  0.00     0.000 HD 
ENDBRANCH  33  43
ENDBRANCH  30  31
ENDBRANCH  29  30
BRANCH  29  46
HETATM   46  C   UNL     1     -10.493  12.803  64.134  1.00  0.00    -0.413 C  
HETATM   47  O   UNL     1     -10.208  14.182  64.109  1.00  0.00    -0.556 OA 
HETATM   48  H   UNL     1     -10.367  14.547  63.248  1.00  0.00     0.000 HD 
BRANCH  46  49
HETATM   49  C   UNL     1     -11.881  12.481  63.533  1.00  0.00    -0.534 C  
HETATM   50  H   UNL     1     -13.492  13.454  63.005  1.00  0.00     0.000 HD 
HETATM   51  O   UNL     1     -12.638  13.652  63.374  1.00  0.00    -0.799 OA 
ENDBRANCH  46  49
ENDBRANCH  29  46
ENDBRANCH  26  29
ENDBRANCH  23  26
ENDBRANCH  21  23
ENDBRANCH  20  21
ENDBRANCH  19  20
ENDBRANCH  18  19
ENDBRANCH  16  18
ENDBRANCH  13  16
ENDBRANCH  10  13
ENDBRANCH   7  10
ENDBRANCH   4   7
ENDBRANCH   2   4
TORSDOF 17
ENDMDL
MODEL       58
REMARK 921   NORMALIZED FREE ENERGY PREDICTED BY IDOCK:   -5.63 KCAL/MOL
REMARK 922        TOTAL FREE ENERGY PREDICTED BY IDOCK:  -14.67 KCAL/MOL
REMARK 923 INTER-LIGAND FREE ENERGY PREDICTED BY IDOCK:  -11.97 KCAL/MOL
REMARK 924 INTRA-LIGAND FREE ENERGY PREDICTED BY IDOCK:   -2.70 KCAL/MOL
REMARK 927      BINDING AFFINITY PREDICTED BY RF-SCORE:    0.00 PKD
ROOT
HETATM    1  O   UNL     1      -9.897  20.351  65.919  1.00  0.00    -0.642 OA 
HETATM    2  C   UNL     1     -10.682  19.967  67.015  1.00  0.00    -0.352 C  
HETATM    3  H   UNL     1     -10.455  20.684  65.227  1.00  0.00     0.000 HD 
ENDROOT
BRANCH   2   4
HETATM    4  C   UNL     1      -9.777  19.429  68.136  1.00  0.00    -0.383 C  
HETATM    5  O   UNL     1     -10.293  19.828  69.382  1.00  0.00    -0.638 OA 
HETATM    6  H   UNL     1      -9.734  19.496  70.074  1.00  0.00     0.000 HD 
BRANCH   4   7
HETATM    7  C   UNL     1      -9.673  17.881  68.092  1.00  0.00    -0.320 C  
HETATM    8  H   UNL     1     -10.532  16.424  67.133  1.00  0.00     0.000 HD 
HETATM    9  O   UNL     1     -10.595  17.371  67.160  1.00  0.00    -0.331 OA 
BRANCH   7  10
HETATM   10  C   UNL     1      -8.248  17.406  67.705  1.00  0.00    -0.206 C  
HETATM   11  H   UNL     1      -6.818  16.433  68.566  1.00  0.00     0.000 HD 
HETATM   12  O   UNL     1      -7.691  16.724  68.803  1.00  0.00    -0.220 OA 
BRANCH  10  13
HETATM   13  C   UNL     1      -7.298  18.566  67.299  1.00  0.00    -0.217 C  
HETATM   14  H   UNL     1      -5.766  19.484  68.064  1.00  0.00     0.000 HD 
HETATM   15  O   UNL     1      -6.347  18.774  68.312  1.00  0.00    -0.207 OA 
BRANCH  13  16
HETATM   16  C   UNL     1      -6.553  18.310  66.010  1.00  0.00    -0.255 C  
HETATM   17  O   UNL     1      -6.662  19.096  65.082  1.00  0.00    -0.431 OA 
BRANCH  16  18
HETATM   18  O   UNL     1      -5.776  17.219  65.860  1.00  0.00    -0.242 OA 
BRANCH  18  19
HETATM   19 CA   UNL     1      -6.427  15.150  66.934  1.00  0.00    -0.163 Ca 
BRANCH  19  20
HETATM   20  O   UNL     1      -7.080  13.083  68.009  1.00  0.00    -0.088 OA 
BRANCH  20  21
HETATM   21  C   UNL     1      -7.970  12.451  67.225  1.00  0.00    -0.178 C  
HETATM   22  O   UNL     1      -7.661  11.361  66.774  1.00  0.00    -0.145 OA 
BRANCH  21  23
HETATM   23  C   UNL     1      -9.243  13.124  66.762  1.00  0.00    -0.230 C  
HETATM   24  H   UNL     1      -9.733  14.861  66.079  1.00  0.00     0.000 HD 
HETATM   25  O   UNL     1      -8.933  14.439  66.370  1.00  0.00    -0.205 OA 
BRANCH  23  26
HETATM   26  C   UNL     1     -10.381  13.166  67.827  1.00  0.00    -0.230 C  
HETATM   27  H   UNL     1     -11.001  14.399  69.189  1.00  0.00     0.000 HD 
HETATM   28  O   UNL     1     -10.307  14.374  68.540  1.00  0.00    -0.235 OA 
BRANCH  26  29
HETATM   29  C   UNL     1     -11.848  12.941  67.322  1.00  0.00    -0.356 C  
BRANCH  29  30
HETATM   30  O   UNL     1     -12.182  11.598  67.642  1.00  0.00    -0.544 OA 
BRANCH  30  31
HETATM   31  C   UNL     1     -11.193  10.868  68.339  1.00  0.00    -0.285 C  
HETATM   32  O   UNL     1     -10.867   9.686  67.628  1.00  0.00    -0.282 OA 
HETATM   33  C   UNL     1      -9.863   8.950  68.310  1.00  0.00    -0.167 C  
HETATM   34  H   UNL     1     -12.507  11.442  71.292  1.00  0.00     0.000 HD 
HETATM   35  C   UNL     1     -10.415   8.420  69.659  1.00  0.00    -0.221 C  
HETATM   36  O   UNL     1     -11.533   7.594  69.445  1.00  0.00    -0.427 OA 
HETATM   37  C   UNL     1     -10.819   9.631  70.525  1.00  0.00    -0.309 C  
HETATM   38  O   UNL     1     -12.140  11.663  70.445  1.00  0.00    -0.355 OA 
HETATM   39  H   UNL     1     -11.871   7.270  70.272  1.00  0.00     0.000 HD 
HETATM   40  O   UNL     1     -11.436   9.228  71.724  1.00  0.00    -0.366 OA 
HETATM   41  C   UNL     1     -11.794  10.507  69.721  1.00  0.00    -0.257 C  
HETATM   42  H   UNL     1     -11.684   9.974  72.257  1.00  0.00     0.000 HD 
BRANCH  33  43
HETATM   43  C   UNL     1      -9.400   7.812  67.386  1.00  0.00    -0.141 C  
HETATM   44  O   UNL     1     -10.391   7.479  66.451  1.00  0.00    -0.490 OA 
HETATM   45  H   UNL     1     -10.105   6.777  65.880  1.00  0.00     0.000 HD 
ENDBRANCH  33  43
ENDBRANCH  30  31
ENDBRANCH  29  30
BRANCH  29  46
HETATM   46  C   UNL     1     -12.111  13.270  65.810  1.00  0.00    -0.441 C  
HETATM   47  O   UNL     1     -13.201  14.152  65.668  1.00  0.00    -0.651 OA 
HETATM   48  H   UNL     1     -13.360  14.352  64.754  1.00  0.00     0.000 HD 
BRANCH  46  49
HETATM   49  C   UNL     1     -12.231  12.038  64.884  1.00  0.00    -0.110 C  
HETATM   50  H   UNL     1     -13.585  11.211  63.742  1.00  0.00     0.000 HD 
HETATM   51  O   UNL     1     -13.511  11.968  64.311  1.00  0.00    -0.654 OA 
ENDBRANCH  46  49
ENDBRANCH  29  46
ENDBRANCH  26  29
ENDBRANCH  23  26
ENDBRANCH  21  23
ENDBRANCH  20  21
ENDBRANCH  19  20
ENDBRANCH  18  19
ENDBRANCH  16  18
ENDBRANCH  13  16
ENDBRANCH  10  13
ENDBRANCH   7  10
ENDBRANCH   4   7
ENDBRANCH   2   4
TORSDOF 17
ENDMDL
MODEL       59
REMARK 921   NORMALIZED FREE ENERGY PREDICTED BY IDOCK:   -5.63 KCAL/MOL
REMARK 922        TOTAL FREE ENERGY PREDICTED BY IDOCK:  -14.66 KCAL/MOL
REMARK 923 INTER-LIGAND FREE ENERGY PREDICTED BY IDOCK:  -11.57 KCAL/MOL
REMARK 924 INTRA-LIGAND FREE ENERGY PREDICTED BY IDOCK:   -3.09 KCAL/MOL
REMARK 927      BINDING AFFINITY PREDICTED BY RF-SCORE:    0.00 PKD
ROOT
HETATM    1  O   UNL     1     -10.025   6.472  72.775  1.00  0.00    -0.169 OA 
HETATM    2  C   UNL     1     -10.689   7.664  73.095  1.00  0.00    -0.387 C  
HETATM    3  H   UNL     1      -9.254   6.379  73.323  1.00  0.00     0.000 HD 
ENDROOT
BRANCH   2   4
HETATM    4  C   UNL     1     -11.937   7.814  72.209  1.00  0.00    -0.309 C  
HETATM    5  O   UNL     1     -12.947   8.468  72.937  1.00  0.00    -0.667 OA 
HETATM    6  H   UNL     1     -13.718   8.561  72.389  1.00  0.00     0.000 HD 
BRANCH   4   7
HETATM    7  C   UNL     1     -11.627   8.617  70.918  1.00  0.00    -0.269 C  
HETATM    8  H   UNL     1     -10.369   9.992  70.365  1.00  0.00     0.000 HD 
HETATM    9  O   UNL     1     -10.559   9.501  71.156  1.00  0.00    -0.319 OA 
BRANCH   7  10
HETATM   10  C   UNL     1     -11.260   7.687  69.731  1.00  0.00    -0.029 C  
HETATM   11  H   UNL     1     -11.401   5.801  69.340  1.00  0.00     0.000 HD 
HETATM   12  O   UNL     1     -11.626   6.371  70.067  1.00  0.00    -0.425 OA 
BRANCH  10  13
HETATM   13  C   UNL     1      -9.749   7.713  69.370  1.00  0.00    -0.165 C  
HETATM   14  H   UNL     1      -8.170   6.658  69.781  1.00  0.00     0.000 HD 
HETATM   15  O   UNL     1      -9.094   6.643  70.002  1.00  0.00    -0.150 OA 
BRANCH  13  16
HETATM   16  C   UNL     1      -9.485   7.607  67.887  1.00  0.00    -0.143 C  
HETATM   17  O   UNL     1      -8.335   7.532  67.481  1.00  0.00    -0.116 OA 
BRANCH  16  18
HETATM   18  O   UNL     1     -10.497   7.606  66.997  1.00  0.00    -0.304 OA 
BRANCH  18  19
HETATM   19 CA   UNL     1     -10.400   9.103  65.098  1.00  0.00    -0.415 Ca 
BRANCH  19  20
HETATM   20  O   UNL     1     -10.303  10.599  63.198  1.00  0.00    -0.185 OA 
BRANCH  20  21
HETATM   21  C   UNL     1     -10.641  11.834  63.604  1.00  0.00    -0.439 C  
HETATM   22  O   UNL     1      -9.806  12.717  63.504  1.00  0.00    -0.297 OA 
BRANCH  21  23
HETATM   23  C   UNL     1     -11.942  12.108  64.325  1.00  0.00    -0.380 C  
HETATM   24  H   UNL     1     -13.794  12.324  63.826  1.00  0.00     0.000 HD 
HETATM   25  O   UNL     1     -12.977  12.152  63.374  1.00  0.00    -0.776 OA 
BRANCH  23  26
HETATM   26  C   UNL     1     -11.960  13.427  65.157  1.00  0.00    -0.378 C  
HETATM   27  H   UNL     1     -13.268  14.769  65.655  1.00  0.00     0.000 HD 
HETATM   28  O   UNL     1     -13.257  13.966  65.148  1.00  0.00    -0.768 OA 
BRANCH  26  29
HETATM   29  C   UNL     1     -11.430  13.355  66.631  1.00  0.00    -0.344 C  
BRANCH  29  30
HETATM   30  O   UNL     1     -10.166  14.003  66.635  1.00  0.00    -0.265 OA 
BRANCH  30  31
HETATM   31  C   UNL     1     -10.090  15.198  67.385  1.00  0.00    -0.229 C  
HETATM   32  O   UNL     1     -10.302  16.318  66.541  1.00  0.00    -0.293 OA 
HETATM   33  C   UNL     1     -10.244  17.525  67.284  1.00  0.00    -0.335 C  
HETATM   34  H   UNL     1      -7.552  14.183  69.202  1.00  0.00     0.000 HD 
HETATM   35  C   UNL     1      -8.809  17.748  67.828  1.00  0.00    -0.249 C  
HETATM   36  O   UNL     1      -7.884  17.808  66.769  1.00  0.00    -0.209 OA 
HETATM   37  C   UNL     1      -8.457  16.572  68.762  1.00  0.00    -0.248 C  
HETATM   38  O   UNL     1      -8.424  14.148  68.828  1.00  0.00    -0.148 OA 
HETATM   39  H   UNL     1      -7.005  17.944  67.103  1.00  0.00     0.000 HD 
HETATM   40  O   UNL     1      -7.124  16.643  69.207  1.00  0.00    -0.226 OA 
HETATM   41  C   UNL     1      -8.667  15.255  67.995  1.00  0.00    -0.160 C  
HETATM   42  H   UNL     1      -6.908  15.919  69.782  1.00  0.00     0.000 HD 
BRANCH  33  43
HETATM   43  C   UNL     1     -10.700  18.670  66.365  1.00  0.00    -0.224 C  
HETATM   44  O   UNL     1     -10.058  19.873  66.693  1.00  0.00    -0.407 OA 
HETATM   45  H   UNL     1     -10.340  20.579  66.125  1.00  0.00     0.000 HD 
ENDBRANCH  33  43
ENDBRANCH  30  31
ENDBRANCH  29  30
BRANCH  29  46
HETATM   46  C   UNL     1     -11.361  11.922  67.267  1.00  0.00    -0.329 C  
HETATM   47  O   UNL     1     -12.266  11.800  68.339  1.00  0.00    -0.467 OA 
HETATM   48  H   UNL     1     -12.225  10.933  68.723  1.00  0.00     0.000 HD 
BRANCH  46  49
HETATM   49  C   UNL     1      -9.940  11.441  67.644  1.00  0.00    -0.179 C  
HETATM   50  H   UNL     1      -8.414  10.599  66.760  1.00  0.00     0.000 HD 
HETATM   51  O   UNL     1      -9.286  10.894  66.528  1.00  0.00    -0.167 OA 
ENDBRANCH  46  49
ENDBRANCH  29  46
ENDBRANCH  26  29
ENDBRANCH  23  26
ENDBRANCH  21  23
ENDBRANCH  20  21
ENDBRANCH  19  20
ENDBRANCH  18  19
ENDBRANCH  16  18
ENDBRANCH  13  16
ENDBRANCH  10  13
ENDBRANCH   7  10
ENDBRANCH   4   7
ENDBRANCH   2   4
TORSDOF 17
ENDMDL
MODEL       60
REMARK 921   NORMALIZED FREE ENERGY PREDICTED BY IDOCK:   -5.63 KCAL/MOL
REMARK 922        TOTAL FREE ENERGY PREDICTED BY IDOCK:  -14.66 KCAL/MOL
REMARK 923 INTER-LIGAND FREE ENERGY PREDICTED BY IDOCK:  -11.69 KCAL/MOL
REMARK 924 INTRA-LIGAND FREE ENERGY PREDICTED BY IDOCK:   -2.97 KCAL/MOL
REMARK 927      BINDING AFFINITY PREDICTED BY RF-SCORE:    0.00 PKD
ROOT
HETATM    1  O   UNL     1     -11.221  11.067  62.983  1.00  0.00    -0.762 OA 
HETATM    2  C   UNL     1     -12.058  12.061  63.508  1.00  0.00    -0.526 C  
HETATM    3  H   UNL     1     -11.728  10.476  62.439  1.00  0.00     0.000 HD 
ENDROOT
BRANCH   2   4
HETATM    4  C   UNL     1     -11.236  13.017  64.390  1.00  0.00    -0.358 C  
HETATM    5  O   UNL     1     -10.006  13.284  63.765  1.00  0.00    -0.699 OA 
HETATM    6  H   UNL     1      -9.499  13.874  64.309  1.00  0.00     0.000 HD 
BRANCH   4   7
HETATM    7  C   UNL     1     -11.989  14.350  64.641  1.00  0.00    -0.464 C  
HETATM    8  H   UNL     1     -13.745  14.897  65.270  1.00  0.00     0.000 HD 
HETATM    9  O   UNL     1     -13.285  14.080  65.117  1.00  0.00    -0.768 OA 
BRANCH   7  10
HETATM   10  C   UNL     1     -11.250  15.249  65.668  1.00  0.00    -0.256 C  
HETATM   11  H   UNL     1      -9.814  16.539  65.616  1.00  0.00     0.000 HD 
HETATM   12  O   UNL     1     -10.266  15.988  64.987  1.00  0.00    -0.513 OA 
BRANCH  10  13
HETATM   13  C   UNL     1     -10.574  14.449  66.816  1.00  0.00    -0.282 C  
HETATM   14  H   UNL     1      -9.058  14.679  68.008  1.00  0.00     0.000 HD 
HETATM   15  O   UNL     1      -9.472  15.168  67.306  1.00  0.00    -0.204 OA 
BRANCH  13  16
HETATM   16  C   UNL     1     -11.498  14.168  67.977  1.00  0.00    -0.312 C  
HETATM   17  O   UNL     1     -11.530  14.937  68.926  1.00  0.00    -0.269 OA 
BRANCH  16  18
HETATM   18  O   UNL     1     -12.285  13.073  67.992  1.00  0.00    -0.240 OA 
BRANCH  18  19
HETATM   19 CA   UNL     1     -12.720  11.962  70.097  1.00  0.00    -0.260 Ca 
BRANCH  19  20
HETATM   20  O   UNL     1     -13.154  10.850  72.202  1.00  0.00    -0.463 OA 
BRANCH  20  21
HETATM   21  C   UNL     1     -13.392   9.549  71.962  1.00  0.00    -0.452 C  
HETATM   22  O   UNL     1     -14.381   9.047  72.468  1.00  0.00    -0.570 OA 
BRANCH  21  23
HETATM   23  C   UNL     1     -12.391   8.676  71.239  1.00  0.00    -0.263 C  
HETATM   24  H   UNL     1     -11.687   6.892  71.453  1.00  0.00     0.000 HD 
HETATM   25  O   UNL     1     -12.315   7.440  71.907  1.00  0.00    -0.305 OA 
BRANCH  23  26
HETATM   26  C   UNL     1     -10.959   9.283  71.129  1.00  0.00    -0.339 C  
HETATM   27  H   UNL     1      -9.294   9.170  72.116  1.00  0.00     0.000 HD 
HETATM   28  O   UNL     1     -10.167   8.801  72.184  1.00  0.00    -0.325 OA 
BRANCH  26  29
HETATM   29  C   UNL     1     -10.199   9.092  69.771  1.00  0.00    -0.205 C  
BRANCH  29  30
HETATM   30  O   UNL     1      -8.919   8.570  70.097  1.00  0.00    -0.140 OA 
BRANCH  30  31
HETATM   31  C   UNL     1      -8.408   7.594  69.212  1.00  0.00    -0.134 C  
HETATM   32  O   UNL     1      -7.961   8.208  68.014  1.00  0.00    -0.123 OA 
HETATM   33  C   UNL     1      -7.431   7.240  67.122  1.00  0.00    -0.105 C  
HETATM   34  H   UNL     1     -10.756   5.402  69.890  1.00  0.00     0.000 HD 
HETATM   35  C   UNL     1      -8.555   6.286  66.641  1.00  0.00    -0.119 C  
HETATM   36  O   UNL     1      -9.573   7.009  65.993  1.00  0.00    -0.397 OA 
HETATM   37  C   UNL     1      -9.134   5.561  67.874  1.00  0.00    -0.107 C  
HETATM   38  O   UNL     1     -10.044   6.002  70.078  1.00  0.00    -0.169 OA 
HETATM   39  H   UNL     1     -10.261   6.424  65.699  1.00  0.00     0.000 HD 
HETATM   40  O   UNL     1     -10.239   4.760  67.533  1.00  0.00    -0.140 OA 
HETATM   41  C   UNL     1      -9.570   6.616  68.905  1.00  0.00    -0.129 C  
HETATM   42  H   UNL     1     -10.595   4.314  68.292  1.00  0.00     0.000 HD 
BRANCH  33  43
HETATM   43  C   UNL     1      -6.765   7.986  65.955  1.00  0.00    -0.049 C  
HETATM   44  O   UNL     1      -7.393   9.217  65.712  1.00  0.00    -0.088 OA 
HETATM   45  H   UNL     1      -6.982   9.678  64.992  1.00  0.00     0.000 HD 
ENDBRANCH  33  43
ENDBRANCH  30  31
ENDBRANCH  29  30
BRANCH  29  46
HETATM   46  C   UNL     1     -10.103  10.362  68.854  1.00  0.00    -0.201 C  
HETATM   47  O   UNL     1     -10.351  11.536  69.590  1.00  0.00    -0.419 OA 
HETATM   48  H   UNL     1     -10.293  12.305  69.036  1.00  0.00     0.000 HD 
BRANCH  46  49
HETATM   49  C   UNL     1     -10.941  10.297  67.556  1.00  0.00    -0.280 C  
HETATM   50  H   UNL     1     -10.789   9.514  65.771  1.00  0.00     0.000 HD 
HETATM   51  O   UNL     1     -10.274   9.554  66.569  1.00  0.00    -0.254 OA 
ENDBRANCH  46  49
ENDBRANCH  29  46
ENDBRANCH  26  29
ENDBRANCH  23  26
ENDBRANCH  21  23
ENDBRANCH  20  21
ENDBRANCH  19  20
ENDBRANCH  18  19
ENDBRANCH  16  18
ENDBRANCH  13  16
ENDBRANCH  10  13
ENDBRANCH   7  10
ENDBRANCH   4   7
ENDBRANCH   2   4
TORSDOF 17
ENDMDL
MODEL       61
REMARK 921   NORMALIZED FREE ENERGY PREDICTED BY IDOCK:   -5.62 KCAL/MOL
REMARK 922        TOTAL FREE ENERGY PREDICTED BY IDOCK:  -14.65 KCAL/MOL
REMARK 923 INTER-LIGAND FREE ENERGY PREDICTED BY IDOCK:  -13.79 KCAL/MOL
REMARK 924 INTRA-LIGAND FREE ENERGY PREDICTED BY IDOCK:   -0.86 KCAL/MOL
REMARK 927      BINDING AFFINITY PREDICTED BY RF-SCORE:    0.00 PKD
ROOT
HETATM    1  O   UNL     1     -14.102  16.507  73.685  1.00  0.00    -0.628 OA 
HETATM    2  C   UNL     1     -12.748  16.296  73.981  1.00  0.00    -0.444 C  
HETATM    3  H   UNL     1     -14.441  17.214  74.222  1.00  0.00     0.000 HD 
ENDROOT
BRANCH   2   4
HETATM    4  C   UNL     1     -12.200  15.153  73.110  1.00  0.00    -0.411 C  
HETATM    5  O   UNL     1     -13.171  14.141  73.007  1.00  0.00    -0.583 OA 
HETATM    6  H   UNL     1     -12.832  13.435  72.470  1.00  0.00     0.000 HD 
BRANCH   4   7
HETATM    7  C   UNL     1     -11.818  15.649  71.691  1.00  0.00    -0.429 C  
HETATM    8  H   UNL     1     -10.364  15.375  70.430  1.00  0.00     0.000 HD 
HETATM    9  O   UNL     1     -10.598  15.070  71.299  1.00  0.00     0.053 OA 
BRANCH   7  10
HETATM   10  C   UNL     1     -12.905  15.296  70.641  1.00  0.00    -0.409 C  
HETATM   11  H   UNL     1     -14.666  14.503  70.667  1.00  0.00     0.000 HD 
HETATM   12  O   UNL     1     -14.000  14.719  71.310  1.00  0.00    -0.408 OA 
BRANCH  10  13
HETATM   13  C   UNL     1     -12.410  14.313  69.545  1.00  0.00    -0.230 C  
HETATM   14  H   UNL     1     -10.937  14.215  68.282  1.00  0.00     0.000 HD 
HETATM   15  O   UNL     1     -11.240  14.817  68.952  1.00  0.00    -0.241 OA 
BRANCH  13  16
HETATM   16  C   UNL     1     -12.106  12.931  70.071  1.00  0.00    -0.286 C  
HETATM   17  O   UNL     1     -12.826  12.436  70.925  1.00  0.00    -0.218 OA 
BRANCH  16  18
HETATM   18  O   UNL     1     -11.043  12.233  69.623  1.00  0.00    -0.111 OA 
BRANCH  18  19
HETATM   19 CA   UNL     1      -9.007  13.416  69.063  1.00  0.00    -0.268 Ca 
BRANCH  19  20
HETATM   20  O   UNL     1      -6.972  14.598  68.502  1.00  0.00    -0.099 OA 
BRANCH  20  21
HETATM   21  C   UNL     1      -7.260  15.901  68.340  1.00  0.00    -0.121 C  
HETATM   22  O   UNL     1      -7.735  16.502  69.289  1.00  0.00    -0.234 OA 
BRANCH  21  23
HETATM   23  C   UNL     1      -7.172  16.575  66.990  1.00  0.00    -0.212 C  
HETATM   24  H   UNL     1      -5.789  17.416  65.938  1.00  0.00     0.000 HD 
HETATM   25  O   UNL     1      -5.844  16.993  66.787  1.00  0.00    -0.169 OA 
BRANCH  23  26
HETATM   26  C   UNL     1      -8.122  17.798  66.810  1.00  0.00    -0.239 C  
HETATM   27  H   UNL     1      -8.294  19.289  65.583  1.00  0.00     0.000 HD 
HETATM   28  O   UNL     1      -7.715  18.544  65.692  1.00  0.00    -0.509 OA 
BRANCH  26  29
HETATM   29  C   UNL     1      -9.660  17.507  66.715  1.00  0.00    -0.282 C  
BRANCH  29  30
HETATM   30  O   UNL     1      -9.862  16.804  65.497  1.00  0.00    -0.564 OA 
BRANCH  30  31
HETATM   31  C   UNL     1     -10.597  15.602  65.595  1.00  0.00    -0.378 C  
HETATM   32  O   UNL     1      -9.724  14.517  65.866  1.00  0.00    -0.311 OA 
HETATM   33  C   UNL     1     -10.452  13.304  65.982  1.00  0.00    -0.286 C  
HETATM   34  H   UNL     1     -12.587  16.332  63.088  1.00  0.00     0.000 HD 
HETATM   35  C   UNL     1     -11.083  12.928  64.616  1.00  0.00    -0.324 C  
HETATM   36  O   UNL     1     -10.085  12.781  63.636  1.00  0.00    -0.611 OA 
HETATM   37  C   UNL     1     -12.054  14.054  64.205  1.00  0.00    -0.445 C  
HETATM   38  O   UNL     1     -12.158  16.461  63.925  1.00  0.00    -0.977 OA 
HETATM   39  H   UNL     1     -10.471  12.550  62.799  1.00  0.00     0.000 HD 
HETATM   40  O   UNL     1     -12.583  13.840  62.919  1.00  0.00    -0.944 OA 
HETATM   41  C   UNL     1     -11.295  15.391  64.228  1.00  0.00    -0.126 C  
HETATM   42  H   UNL     1     -13.181  14.533  62.667  1.00  0.00     0.000 HD 
BRANCH  33  43
HETATM   43  C   UNL     1      -9.489  12.221  66.494  1.00  0.00    -0.236 C  
HETATM   44  O   UNL     1      -8.188  12.724  66.639  1.00  0.00    -0.406 OA 
HETATM   45  H   UNL     1      -7.593  12.055  66.956  1.00  0.00     0.000 HD 
ENDBRANCH  33  43
ENDBRANCH  30  31
ENDBRANCH  29  30
BRANCH  29  46
HETATM   46  C   UNL     1     -10.604  18.754  66.840  1.00  0.00    -0.409 C  
HETATM   47  O   UNL     1     -10.715  19.429  65.609  1.00  0.00    -0.468 OA 
HETATM   48  H   UNL     1     -11.286  20.183  65.684  1.00  0.00     0.000 HD 
BRANCH  46  49
HETATM   49  C   UNL     1     -10.269  19.714  68.005  1.00  0.00    -0.457 C  
HETATM   50  H   UNL     1      -9.871  19.591  69.915  1.00  0.00     0.000 HD 
HETATM   51  O   UNL     1     -10.076  19.001  69.199  1.00  0.00    -0.374 OA 
ENDBRANCH  46  49
ENDBRANCH  29  46
ENDBRANCH  26  29
ENDBRANCH  23  26
ENDBRANCH  21  23
ENDBRANCH  20  21
ENDBRANCH  19  20
ENDBRANCH  18  19
ENDBRANCH  16  18
ENDBRANCH  13  16
ENDBRANCH  10  13
ENDBRANCH   7  10
ENDBRANCH   4   7
ENDBRANCH   2   4
TORSDOF 17
ENDMDL
MODEL       62
REMARK 921   NORMALIZED FREE ENERGY PREDICTED BY IDOCK:   -5.59 KCAL/MOL
REMARK 922        TOTAL FREE ENERGY PREDICTED BY IDOCK:  -14.60 KCAL/MOL
REMARK 923 INTER-LIGAND FREE ENERGY PREDICTED BY IDOCK:  -10.74 KCAL/MOL
REMARK 924 INTRA-LIGAND FREE ENERGY PREDICTED BY IDOCK:   -3.85 KCAL/MOL
REMARK 927      BINDING AFFINITY PREDICTED BY RF-SCORE:    0.00 PKD
ROOT
HETATM    1  O   UNL     1     -10.093  16.136  67.593  1.00  0.00    -0.239 OA 
HETATM    2  C   UNL     1     -10.531  16.478  68.880  1.00  0.00    -0.304 C  
HETATM    3  H   UNL     1      -9.270  16.575  67.409  1.00  0.00     0.000 HD 
ENDROOT
BRANCH   2   4
HETATM    4  C   UNL     1     -11.862  15.767  69.178  1.00  0.00    -0.354 C  
HETATM    5  O   UNL     1     -11.988  14.645  68.342  1.00  0.00    -0.461 OA 
HETATM    6  H   UNL     1     -12.810  14.206  68.526  1.00  0.00     0.000 HD 
BRANCH   4   7
HETATM    7  C   UNL     1     -11.949  15.319  70.661  1.00  0.00    -0.343 C  
HETATM    8  H   UNL     1     -11.811  16.154  72.412  1.00  0.00     0.000 HD 
HETATM    9  O   UNL     1     -11.758  16.429  71.504  1.00  0.00    -0.448 OA 
BRANCH   7  10
HETATM   10  C   UNL     1     -13.318  14.665  70.990  1.00  0.00    -0.355 C  
HETATM   11  H   UNL     1     -15.018  15.261  71.685  1.00  0.00     0.000 HD 
HETATM   12  O   UNL     1     -14.180  15.661  71.484  1.00  0.00    -0.508 OA 
BRANCH  10  13
HETATM   13  C   UNL     1     -13.221  13.520  72.036  1.00  0.00    -0.439 C  
HETATM   14  H   UNL     1     -14.344  12.770  73.432  1.00  0.00     0.000 HD 
HETATM   15  O   UNL     1     -14.403  13.470  72.792  1.00  0.00    -0.640 OA 
BRANCH  13  16
HETATM   16  C   UNL     1     -13.007  12.159  71.418  1.00  0.00    -0.257 C  
HETATM   17  O   UNL     1     -13.139  11.156  72.102  1.00  0.00    -0.463 OA 
BRANCH  16  18
HETATM   18  O   UNL     1     -12.660  12.029  70.122  1.00  0.00    -0.081 OA 
BRANCH  18  19
HETATM   19 CA   UNL     1     -10.568  12.979  69.360  1.00  0.00    -0.282 Ca 
BRANCH  19  20
HETATM   20  O   UNL     1      -8.477  13.928  68.600  1.00  0.00    -0.153 OA 
BRANCH  20  21
HETATM   21  C   UNL     1      -7.981  13.152  67.621  1.00  0.00    -0.174 C  
HETATM   22  O   UNL     1      -8.277  13.425  66.470  1.00  0.00     0.216 OA 
BRANCH  21  23
HETATM   23  C   UNL     1      -7.226  11.876  67.921  1.00  0.00    -0.095 C  
HETATM   24  H   UNL     1      -5.985  10.736  66.980  1.00  0.00     0.000 HD 
HETATM   25  O   UNL     1      -6.459  11.537  66.791  1.00  0.00    -0.136 OA 
BRANCH  23  26
HETATM   26  C   UNL     1      -8.126  10.663  68.306  1.00  0.00    -0.118 C  
HETATM   27  H   UNL     1      -9.692  10.355  69.408  1.00  0.00     0.000 HD 
HETATM   28  O   UNL     1      -9.143  11.094  69.174  1.00  0.00    -0.082 OA 
BRANCH  26  29
HETATM   29  C   UNL     1      -8.752   9.830  67.134  1.00  0.00    -0.132 C  
BRANCH  29  30
HETATM   30  O   UNL     1     -10.157  10.027  67.208  1.00  0.00    -0.187 OA 
BRANCH  30  31
HETATM   31  C   UNL     1     -10.775  10.501  66.029  1.00  0.00    -0.016 C  
HETATM   32  O   UNL     1      -9.850  10.486  64.954  1.00  0.00    -0.265 OA 
HETATM   33  C   UNL     1     -10.462  10.946  63.759  1.00  0.00    -0.259 C  
HETATM   34  H   UNL     1     -12.421  12.891  67.564  1.00  0.00     0.000 HD 
HETATM   35  C   UNL     1     -10.836  12.445  63.894  1.00  0.00    -0.420 C  
HETATM   36  O   UNL     1      -9.690  13.217  64.157  1.00  0.00    -0.650 OA 
HETATM   37  C   UNL     1     -11.841  12.590  65.056  1.00  0.00    -0.396 C  
HETATM   38  O   UNL     1     -12.140  12.001  67.389  1.00  0.00    -0.566 OA 
HETATM   39  H   UNL     1      -9.919  14.135  64.240  1.00  0.00     0.000 HD 
HETATM   40  O   UNL     1     -12.142  13.939  65.315  1.00  0.00    -0.368 OA 
HETATM   41  C   UNL     1     -11.231  11.954  66.316  1.00  0.00    -0.337 C  
HETATM   42  H   UNL     1     -12.761  14.029  66.030  1.00  0.00     0.000 HD 
BRANCH  33  43
HETATM   43  C   UNL     1      -9.486  10.694  62.599  1.00  0.00    -0.301 C  
HETATM   44  O   UNL     1      -8.458  11.648  62.582  1.00  0.00    -0.636 OA 
HETATM   45  H   UNL     1      -7.855  11.491  61.866  1.00  0.00     0.000 HD 
ENDBRANCH  33  43
ENDBRANCH  30  31
ENDBRANCH  29  30
BRANCH  29  46
HETATM   46  C   UNL     1      -8.371   8.308  67.093  1.00  0.00    -0.123 C  
HETATM   47  O   UNL     1      -8.282   7.846  65.765  1.00  0.00    -0.115 OA 
HETATM   48  H   UNL     1      -8.051   6.925  65.740  1.00  0.00     0.000 HD 
BRANCH  46  49
HETATM   49  C   UNL     1      -9.247   7.390  67.976  1.00  0.00    -0.132 C  
HETATM   50  H   UNL     1     -10.296   5.753  67.769  1.00  0.00     0.000 HD 
HETATM   51  O   UNL     1      -9.757   6.318  67.227  1.00  0.00    -0.121 OA 
ENDBRANCH  46  49
ENDBRANCH  29  46
ENDBRANCH  26  29
ENDBRANCH  23  26
ENDBRANCH  21  23
ENDBRANCH  20  21
ENDBRANCH  19  20
ENDBRANCH  18  19
ENDBRANCH  16  18
ENDBRANCH  13  16
ENDBRANCH  10  13
ENDBRANCH   7  10
ENDBRANCH   4   7
ENDBRANCH   2   4
TORSDOF 17
ENDMDL
MODEL       63
REMARK 921   NORMALIZED FREE ENERGY PREDICTED BY IDOCK:   -5.59 KCAL/MOL
REMARK 922        TOTAL FREE ENERGY PREDICTED BY IDOCK:  -14.59 KCAL/MOL
REMARK 923 INTER-LIGAND FREE ENERGY PREDICTED BY IDOCK:  -11.15 KCAL/MOL
REMARK 924 INTRA-LIGAND FREE ENERGY PREDICTED BY IDOCK:   -3.44 KCAL/MOL
REMARK 927      BINDING AFFINITY PREDICTED BY RF-SCORE:    0.00 PKD
ROOT
HETATM    1  O   UNL     1      -9.395  16.223  66.572  1.00  0.00    -0.233 OA 
HETATM    2  C   UNL     1     -10.125  17.182  65.857  1.00  0.00    -0.240 C  
HETATM    3  H   UNL     1      -8.609  16.620  66.929  1.00  0.00     0.000 HD 
ENDROOT
BRANCH   2   4
HETATM    4  C   UNL     1     -11.397  16.539  65.278  1.00  0.00     0.211 C  
HETATM    5  O   UNL     1     -11.448  16.774  63.893  1.00  0.00    -1.484 OA 
HETATM    6  H   UNL     1     -12.234  16.376  63.536  1.00  0.00     0.000 HD 
BRANCH   4   7
HETATM    7  C   UNL     1     -11.435  15.011  65.545  1.00  0.00    -0.265 C  
HETATM    8  H   UNL     1     -11.995  13.830  66.985  1.00  0.00     0.000 HD 
HETATM    9  O   UNL     1     -11.973  14.766  66.822  1.00  0.00    -0.327 OA 
BRANCH   7  10
HETATM   10  C   UNL     1     -12.285  14.258  64.487  1.00  0.00    -0.455 C  
HETATM   11  H   UNL     1     -13.761  13.012  64.510  1.00  0.00     0.000 HD 
HETATM   12  O   UNL     1     -13.240  13.473  65.158  1.00  0.00    -0.720 OA 
BRANCH  10  13
HETATM   13  C   UNL     1     -11.444  13.340  63.557  1.00  0.00    -0.153 C  
HETATM   14  H   UNL     1      -9.575  12.852  63.353  1.00  0.00     0.000 HD 
HETATM   15  O   UNL     1     -10.089  13.413  63.921  1.00  0.00    -0.178 OA 
BRANCH  13  16
HETATM   16  C   UNL     1     -11.860  11.889  63.610  1.00  0.00    -0.473 C  
HETATM   17  O   UNL     1     -12.859  11.524  63.009  1.00  0.00    -0.284 OA 
BRANCH  16  18
HETATM   18  O   UNL     1     -11.154  10.987  64.321  1.00  0.00    -0.242 OA 
BRANCH  18  19
HETATM   19 CA   UNL     1      -9.293  11.744  65.669  1.00  0.00    -0.201 Ca 
BRANCH  19  20
HETATM   20  O   UNL     1      -7.432  12.501  67.018  1.00  0.00    -0.114 OA 
BRANCH  20  21
HETATM   21  C   UNL     1      -6.793  11.427  67.513  1.00  0.00    -0.086 C  
HETATM   22  O   UNL     1      -5.864  11.619  68.279  1.00  0.00    -0.046 OA 
BRANCH  21  23
HETATM   23  C   UNL     1      -7.081  10.029  67.015  1.00  0.00    -0.089 C  
HETATM   24  H   UNL     1      -7.908   9.246  65.457  1.00  0.00     0.000 HD 
HETATM   25  O   UNL     1      -7.727  10.124  65.769  1.00  0.00    -0.124 OA 
BRANCH  23  26
HETATM   26  C   UNL     1      -7.954   9.164  67.975  1.00  0.00    -0.101 C  
HETATM   27  H   UNL     1      -7.648   7.886  69.401  1.00  0.00     0.000 HD 
HETATM   28  O   UNL     1      -7.116   8.413  68.816  1.00  0.00    -0.065 OA 
BRANCH  26  29
HETATM   29  C   UNL     1      -9.032   9.909  68.835  1.00  0.00    -0.153 C  
BRANCH  29  30
HETATM   30  O   UNL     1      -9.153   9.179  70.048  1.00  0.00    -0.163 OA 
BRANCH  30  31
HETATM   31  C   UNL     1     -10.399   8.549  70.265  1.00  0.00    -0.205 C  
HETATM   32  O   UNL     1     -11.146   9.266  71.233  1.00  0.00    -0.297 OA 
HETATM   33  C   UNL     1     -12.408   8.652  71.450  1.00  0.00    -0.304 C  
HETATM   34  H   UNL     1      -9.156   5.513  70.159  1.00  0.00     0.000 HD 
HETATM   35  C   UNL     1     -12.217   7.257  72.100  1.00  0.00    -0.223 C  
HETATM   36  O   UNL     1     -11.539   7.373  73.327  1.00  0.00    -0.584 OA 
HETATM   37  C   UNL     1     -11.397   6.380  71.131  1.00  0.00    -0.319 C  
HETATM   38  O   UNL     1      -9.342   6.388  69.844  1.00  0.00    -0.150 OA 
HETATM   39  H   UNL     1     -11.422   6.518  73.724  1.00  0.00     0.000 HD 
HETATM   40  O   UNL     1     -11.084   5.132  71.699  1.00  0.00    -0.067 OA 
HETATM   41  C   UNL     1     -10.095   7.120  70.780  1.00  0.00    -0.190 C  
HETATM   42  H   UNL     1     -10.579   4.592  71.102  1.00  0.00     0.000 HD 
BRANCH  33  43
HETATM   43  C   UNL     1     -13.246   9.592  72.330  1.00  0.00    -0.404 C  
HETATM   44  O   UNL     1     -14.053   8.870  73.222  1.00  0.00    -1.211 OA 
HETATM   45  H   UNL     1     -14.570   9.451  73.766  1.00  0.00     0.000 HD 
ENDBRANCH  33  43
ENDBRANCH  30  31
ENDBRANCH  29  30
BRANCH  29  46
HETATM   46  C   UNL     1     -10.422  10.140  68.145  1.00  0.00    -0.206 C  
HETATM   47  O   UNL     1     -10.354   9.855  66.767  1.00  0.00    -0.229 OA 
HETATM   48  H   UNL     1     -11.195   9.995  66.349  1.00  0.00     0.000 HD 
BRANCH  46  49
HETATM   49  C   UNL     1     -11.073  11.514  68.427  1.00  0.00    -0.235 C  
HETATM   50  H   UNL     1     -12.638  12.525  67.835  1.00  0.00     0.000 HD 
HETATM   51  O   UNL     1     -12.238  11.680  67.661  1.00  0.00    -0.544 OA 
ENDBRANCH  46  49
ENDBRANCH  29  46
ENDBRANCH  26  29
ENDBRANCH  23  26
ENDBRANCH  21  23
ENDBRANCH  20  21
ENDBRANCH  19  20
ENDBRANCH  18  19
ENDBRANCH  16  18
ENDBRANCH  13  16
ENDBRANCH  10  13
ENDBRANCH   7  10
ENDBRANCH   4   7
ENDBRANCH   2   4
TORSDOF 17
ENDMDL
MODEL       64
REMARK 921   NORMALIZED FREE ENERGY PREDICTED BY IDOCK:   -5.59 KCAL/MOL
REMARK 922        TOTAL FREE ENERGY PREDICTED BY IDOCK:  -14.59 KCAL/MOL
REMARK 923 INTER-LIGAND FREE ENERGY PREDICTED BY IDOCK:  -11.15 KCAL/MOL
REMARK 924 INTRA-LIGAND FREE ENERGY PREDICTED BY IDOCK:   -3.44 KCAL/MOL
REMARK 927      BINDING AFFINITY PREDICTED BY RF-SCORE:    0.00 PKD
ROOT
HETATM    1  O   UNL     1      -9.826  12.139  63.917  1.00  0.00    -0.499 OA 
HETATM    2  C   UNL     1      -9.973  10.751  64.038  1.00  0.00    -0.342 C  
HETATM    3  H   UNL     1     -10.462  12.476  63.297  1.00  0.00     0.000 HD 
ENDROOT
BRANCH   2   4
HETATM    4  C   UNL     1      -8.942  10.206  65.041  1.00  0.00    -0.195 C  
HETATM    5  O   UNL     1      -7.658  10.644  64.672  1.00  0.00    -0.342 OA 
HETATM    6  H   UNL     1      -7.022  10.308  65.292  1.00  0.00     0.000 HD 
BRANCH   4   7
HETATM    7  C   UNL     1      -9.252  10.675  66.488  1.00  0.00    -0.166 C  
HETATM    8  H   UNL     1     -10.826  11.156  67.522  1.00  0.00     0.000 HD 
HETATM    9  O   UNL     1     -10.637  10.868  66.636  1.00  0.00    -0.246 OA 
BRANCH   7  10
HETATM   10  C   UNL     1      -8.769   9.648  67.546  1.00  0.00    -0.125 C  
HETATM   11  H   UNL     1      -7.443   8.246  67.628  1.00  0.00     0.000 HD 
HETATM   12  O   UNL     1      -7.738   8.875  66.980  1.00  0.00    -0.096 OA 
BRANCH  10  13
HETATM   13  C   UNL     1      -9.893   8.698  68.045  1.00  0.00    -0.169 C  
HETATM   14  H   UNL     1     -10.252   6.789  68.033  1.00  0.00     0.000 HD 
HETATM   15  O   UNL     1      -9.564   7.370  67.728  1.00  0.00    -0.138 OA 
BRANCH  13  16
HETATM   16  C   UNL     1     -10.128   8.776  69.535  1.00  0.00    -0.202 C  
HETATM   17  O   UNL     1     -10.773   7.901  70.092  1.00  0.00    -0.237 OA 
BRANCH  16  18
HETATM   18  O   UNL     1      -9.645   9.802  70.263  1.00  0.00    -0.249 OA 
BRANCH  18  19
HETATM   19 CA   UNL     1     -11.087  11.685  70.745  1.00  0.00    -0.462 Ca 
BRANCH  19  20
HETATM   20  O   UNL     1     -12.530  13.567  71.227  1.00  0.00    -0.347 OA 
BRANCH  20  21
HETATM   21  C   UNL     1     -12.413  14.466  70.235  1.00  0.00    -0.354 C  
HETATM   22  O   UNL     1     -12.701  15.626  70.478  1.00  0.00    -0.447 OA 
BRANCH  21  23
HETATM   23  C   UNL     1     -12.107  14.049  68.814  1.00  0.00    -0.303 C  
HETATM   24  H   UNL     1     -11.935  12.382  67.856  1.00  0.00     0.000 HD 
HETATM   25  O   UNL     1     -12.127  12.644  68.749  1.00  0.00    -0.269 OA 
BRANCH  23  26
HETATM   26  C   UNL     1     -10.741  14.563  68.265  1.00  0.00    -0.240 C  
HETATM   27  H   UNL     1      -8.917  13.912  68.173  1.00  0.00     0.000 HD 
HETATM   28  O   UNL     1      -9.749  13.599  68.508  1.00  0.00    -0.227 OA 
BRANCH  26  29
HETATM   29  C   UNL     1     -10.689  15.004  66.762  1.00  0.00    -0.308 C  
BRANCH  29  30
HETATM   30  O   UNL     1     -10.595  16.421  66.762  1.00  0.00    -0.299 OA 
BRANCH  30  31
HETATM   31  C   UNL     1      -9.335  16.954  66.407  1.00  0.00    -0.276 C  
HETATM   32  O   UNL     1      -8.344  16.508  67.317  1.00  0.00    -0.165 OA 
HETATM   33  C   UNL     1      -7.069  17.024  66.963  1.00  0.00    -0.193 C  
HETATM   34  H   UNL     1     -10.534  19.912  65.636  1.00  0.00     0.000 HD 
HETATM   35  C   UNL     1      -7.052  18.565  67.134  1.00  0.00    -0.204 C  
HETATM   36  O   UNL     1      -7.343  18.917  68.465  1.00  0.00    -0.276 OA 
HETATM   37  C   UNL     1      -8.113  19.170  66.191  1.00  0.00    -0.264 C  
HETATM   38  O   UNL     1     -10.454  18.967  65.593  1.00  0.00    -0.569 OA 
HETATM   39  H   UNL     1      -7.333  19.861  68.570  1.00  0.00     0.000 HD 
HETATM   40  O   UNL     1      -8.237  20.559  66.372  1.00  0.00    -0.526 OA 
HETATM   41  C   UNL     1      -9.466  18.497  66.477  1.00  0.00    -0.320 C  
HETATM   42  H   UNL     1      -8.890  20.931  65.791  1.00  0.00     0.000 HD 
BRANCH  33  43
HETATM   43  C   UNL     1      -6.017  16.331  67.842  1.00  0.00    -0.127 C  
HETATM   44  O   UNL     1      -6.484  16.155  69.153  1.00  0.00    -0.144 OA 
HETATM   45  H   UNL     1      -5.834  15.726  69.695  1.00  0.00     0.000 HD 
ENDBRANCH  33  43
ENDBRANCH  30  31
ENDBRANCH  29  30
BRANCH  29  46
HETATM   46  C   UNL     1     -11.863  14.491  65.855  1.00  0.00    -0.331 C  
HETATM   47  O   UNL     1     -11.856  13.085  65.767  1.00  0.00    -0.361 OA 
HETATM   48  H   UNL     1     -12.566  12.774  65.219  1.00  0.00     0.000 HD 
BRANCH  46  49
HETATM   49  C   UNL     1     -11.960  15.164  64.466  1.00  0.00    -0.319 C  
HETATM   50  H   UNL     1     -12.684  14.743  62.700  1.00  0.00     0.000 HD 
HETATM   51  O   UNL     1     -12.625  14.330  63.554  1.00  0.00    -0.814 OA 
ENDBRANCH  46  49
ENDBRANCH  29  46
ENDBRANCH  26  29
ENDBRANCH  23  26
ENDBRANCH  21  23
ENDBRANCH  20  21
ENDBRANCH  19  20
ENDBRANCH  18  19
ENDBRANCH  16  18
ENDBRANCH  13  16
ENDBRANCH  10  13
ENDBRANCH   7  10
ENDBRANCH   4   7
ENDBRANCH   2   4
TORSDOF 17
ENDMDL
MODEL       65
REMARK 921   NORMALIZED FREE ENERGY PREDICTED BY IDOCK:   -5.59 KCAL/MOL
REMARK 922        TOTAL FREE ENERGY PREDICTED BY IDOCK:  -14.58 KCAL/MOL
REMARK 923 INTER-LIGAND FREE ENERGY PREDICTED BY IDOCK:  -12.28 KCAL/MOL
REMARK 924 INTRA-LIGAND FREE ENERGY PREDICTED BY IDOCK:   -2.30 KCAL/MOL
REMARK 927      BINDING AFFINITY PREDICTED BY RF-SCORE:    0.00 PKD
ROOT
HETATM    1  O   UNL     1     -13.312   7.315  70.816  1.00  0.00    -0.592 OA 
HETATM    2  C   UNL     1     -11.974   7.078  71.162  1.00  0.00    -0.356 C  
HETATM    3  H   UNL     1     -13.597   6.669  70.181  1.00  0.00     0.000 HD 
ENDROOT
BRANCH   2   4
HETATM    4  C   UNL     1     -11.513   8.124  72.191  1.00  0.00    -0.350 C  
HETATM    5  O   UNL     1     -11.477   7.535  73.467  1.00  0.00    -0.608 OA 
HETATM    6  H   UNL     1     -11.191   8.182  74.103  1.00  0.00     0.000 HD 
BRANCH   4   7
HETATM    7  C   UNL     1     -10.110   8.687  71.842  1.00  0.00    -0.328 C  
HETATM    8  H   UNL     1      -8.434   9.012  72.772  1.00  0.00     0.000 HD 
HETATM    9  O   UNL     1      -9.293   8.667  72.986  1.00  0.00    -0.213 OA 
BRANCH   7  10
HETATM   10  C   UNL     1      -9.421   7.871  70.715  1.00  0.00    -0.158 C  
HETATM   11  H   UNL     1      -8.029   6.537  70.609  1.00  0.00     0.000 HD 
HETATM   12  O   UNL     1      -8.450   7.036  71.299  1.00  0.00    -0.118 OA 
BRANCH  10  13
HETATM   13  C   UNL     1      -8.739   8.758  69.637  1.00  0.00    -0.136 C  
HETATM   14  H   UNL     1      -7.152   8.673  68.522  1.00  0.00     0.000 HD 
HETATM   15  O   UNL     1      -7.569   8.131  69.181  1.00  0.00    -0.092 OA 
BRANCH  13  16
HETATM   16  C   UNL     1      -9.618   9.028  68.439  1.00  0.00    -0.152 C  
HETATM   17  O   UNL     1      -9.206   8.776  67.317  1.00  0.00    -0.136 OA 
BRANCH  16  18
HETATM   18  O   UNL     1     -10.850   9.556  68.583  1.00  0.00    -0.209 OA 
BRANCH  18  19
HETATM   19 CA   UNL     1     -11.710  11.030  66.867  1.00  0.00    -0.306 Ca 
BRANCH  19  20
HETATM   20  O   UNL     1     -12.569  12.503  65.150  1.00  0.00    -0.631 OA 
BRANCH  20  21
HETATM   21  C   UNL     1     -12.658  13.746  65.654  1.00  0.00    -0.509 C  
HETATM   22  O   UNL     1     -13.520  14.483  65.205  1.00  0.00    -0.376 OA 
BRANCH  21  23
HETATM   23  C   UNL     1     -11.628  14.293  66.616  1.00  0.00    -0.383 C  
HETATM   24  H   UNL     1      -9.743  14.030  66.937  1.00  0.00     0.000 HD 
HETATM   25  O   UNL     1     -10.390  13.687  66.333  1.00  0.00    -0.276 OA 
BRANCH  23  26
HETATM   26  C   UNL     1     -11.966  14.079  68.123  1.00  0.00    -0.347 C  
HETATM   27  H   UNL     1     -11.578  12.756  69.487  1.00  0.00     0.000 HD 
HETATM   28  O   UNL     1     -11.371  12.887  68.569  1.00  0.00    -0.249 OA 
BRANCH  26  29
HETATM   29  C   UNL     1     -11.615  15.243  69.112  1.00  0.00    -0.332 C  
BRANCH  29  30
HETATM   30  O   UNL     1     -10.201  15.247  69.242  1.00  0.00    -0.226 OA 
BRANCH  30  31
HETATM   31  C   UNL     1      -9.550  16.438  68.847  1.00  0.00    -0.252 C  
HETATM   32  O   UNL     1     -10.468  17.304  68.200  1.00  0.00    -0.345 OA 
HETATM   33  C   UNL     1      -9.830  18.511  67.811  1.00  0.00    -0.312 C  
HETATM   34  H   UNL     1      -6.813  14.907  67.877  1.00  0.00     0.000 HD 
HETATM   35  C   UNL     1      -8.769  18.226  66.718  1.00  0.00    -0.272 C  
HETATM   36  O   UNL     1      -9.367  17.632  65.591  1.00  0.00    -0.435 OA 
HETATM   37  C   UNL     1      -7.709  17.272  67.309  1.00  0.00    -0.188 C  
HETATM   38  O   UNL     1      -7.504  15.157  68.478  1.00  0.00    -0.113 OA 
HETATM   39  H   UNL     1      -8.716  17.457  64.922  1.00  0.00     0.000 HD 
HETATM   40  O   UNL     1      -6.770  16.874  66.340  1.00  0.00    -0.218 OA 
HETATM   41  C   UNL     1      -8.423  16.029  67.866  1.00  0.00    -0.162 C  
HETATM   42  H   UNL     1      -6.118  16.288  66.704  1.00  0.00     0.000 HD 
BRANCH  33  43
HETATM   43  C   UNL     1     -10.916  19.484  67.325  1.00  0.00    -0.341 C  
HETATM   44  O   UNL     1     -10.638  19.954  66.033  1.00  0.00    -0.476 OA 
HETATM   45  H   UNL     1     -11.309  20.555  65.733  1.00  0.00     0.000 HD 
ENDBRANCH  33  43
ENDBRANCH  30  31
ENDBRANCH  29  30
BRANCH  29  46
HETATM   46  C   UNL     1     -12.336  15.201  70.505  1.00  0.00    -0.358 C  
HETATM   47  O   UNL     1     -13.710  15.481  70.372  1.00  0.00    -0.763 OA 
HETATM   48  H   UNL     1     -14.146  15.455  71.215  1.00  0.00     0.000 HD 
BRANCH  46  49
HETATM   49  C   UNL     1     -11.670  16.050  71.613  1.00  0.00    -0.506 C  
HETATM   50  H   UNL     1     -11.238  15.874  73.511  1.00  0.00     0.000 HD 
HETATM   51  O   UNL     1     -11.647  15.352  72.830  1.00  0.00    -0.454 OA 
ENDBRANCH  46  49
ENDBRANCH  29  46
ENDBRANCH  26  29
ENDBRANCH  23  26
ENDBRANCH  21  23
ENDBRANCH  20  21
ENDBRANCH  19  20
ENDBRANCH  18  19
ENDBRANCH  16  18
ENDBRANCH  13  16
ENDBRANCH  10  13
ENDBRANCH   7  10
ENDBRANCH   4   7
ENDBRANCH   2   4
TORSDOF 17
ENDMDL
MODEL       66
REMARK 921   NORMALIZED FREE ENERGY PREDICTED BY IDOCK:   -5.58 KCAL/MOL
REMARK 922        TOTAL FREE ENERGY PREDICTED BY IDOCK:  -14.57 KCAL/MOL
REMARK 923 INTER-LIGAND FREE ENERGY PREDICTED BY IDOCK:  -11.71 KCAL/MOL
REMARK 924 INTRA-LIGAND FREE ENERGY PREDICTED BY IDOCK:   -2.86 KCAL/MOL
REMARK 927      BINDING AFFINITY PREDICTED BY RF-SCORE:    0.00 PKD
ROOT
HETATM    1  O   UNL     1     -12.749   7.118  70.355  1.00  0.00    -0.591 OA 
HETATM    2  C   UNL     1     -12.218   7.230  71.647  1.00  0.00    -0.343 C  
HETATM    3  H   UNL     1     -13.537   6.588  70.379  1.00  0.00     0.000 HD 
ENDROOT
BRANCH   2   4
HETATM    4  C   UNL     1     -10.942   8.089  71.609  1.00  0.00    -0.239 C  
HETATM    5  O   UNL     1     -10.369   8.127  72.893  1.00  0.00    -0.318 OA 
HETATM    6  H   UNL     1      -9.581   8.657  72.869  1.00  0.00     0.000 HD 
BRANCH   4   7
HETATM    7  C   UNL     1      -9.907   7.528  70.598  1.00  0.00    -0.179 C  
HETATM    8  H   UNL     1      -9.489   5.807  69.796  1.00  0.00     0.000 HD 
HETATM    9  O   UNL     1     -10.123   6.150  70.416  1.00  0.00    -0.179 OA 
BRANCH   7  10
HETATM   10  C   UNL     1      -9.997   8.240  69.222  1.00  0.00    -0.192 C  
HETATM   11  H   UNL     1     -10.755   7.842  67.491  1.00  0.00     0.000 HD 
HETATM   12  O   UNL     1     -10.700   7.406  68.333  1.00  0.00    -0.180 OA 
BRANCH  10  13
HETATM   13  C   UNL     1      -8.610   8.574  68.607  1.00  0.00    -0.135 C  
HETATM   14  H   UNL     1      -7.892   8.967  66.845  1.00  0.00     0.000 HD 
HETATM   15  O   UNL     1      -8.741   8.762  67.221  1.00  0.00    -0.127 OA 
BRANCH  13  16
HETATM   16  C   UNL     1      -7.980   9.819  69.187  1.00  0.00    -0.104 C  
HETATM   17  O   UNL     1      -7.310   9.741  70.204  1.00  0.00    -0.120 OA 
BRANCH  16  18
HETATM   18  O   UNL     1      -8.155  11.023  68.606  1.00  0.00    -0.134 OA 
BRANCH  18  19
HETATM   19 CA   UNL     1     -10.021  12.403  69.291  1.00  0.00    -0.349 Ca 
BRANCH  19  20
HETATM   20  O   UNL     1     -11.887  13.782  69.977  1.00  0.00    -0.293 OA 
BRANCH  20  21
HETATM   21  C   UNL     1     -11.411  14.877  70.595  1.00  0.00    -0.266 C  
HETATM   22  O   UNL     1     -11.299  14.843  71.809  1.00  0.00    -0.313 OA 
BRANCH  21  23
HETATM   23  C   UNL     1     -11.183  16.175  69.854  1.00  0.00    -0.349 C  
HETATM   24  H   UNL     1     -12.109  17.185  68.494  1.00  0.00     0.000 HD 
HETATM   25  O   UNL     1     -12.251  16.370  68.959  1.00  0.00     0.089 OA 
BRANCH  23  26
HETATM   26  C   UNL     1      -9.840  16.248  69.066  1.00  0.00    -0.257 C  
HETATM   27  H   UNL     1      -8.340  15.071  68.715  1.00  0.00     0.000 HD 
HETATM   28  O   UNL     1      -9.158  15.027  69.195  1.00  0.00    -0.202 OA 
BRANCH  26  29
HETATM   29  C   UNL     1      -9.915  16.651  67.553  1.00  0.00    -0.264 C  
BRANCH  29  30
HETATM   30  O   UNL     1      -9.665  15.467  66.809  1.00  0.00    -0.227 OA 
BRANCH  30  31
HETATM   31  C   UNL     1     -10.801  14.687  66.493  1.00  0.00    -0.315 C  
HETATM   32  O   UNL     1     -10.591  13.340  66.881  1.00  0.00    -0.262 OA 
HETATM   33  C   UNL     1     -11.731  12.548  66.583  1.00  0.00    -0.387 C  
HETATM   34  H   UNL     1     -11.304  16.158  63.601  1.00  0.00     0.000 HD 
HETATM   35  C   UNL     1     -11.930  12.457  65.047  1.00  0.00    -0.402 C  
HETATM   36  O   UNL     1     -10.797  11.890  64.436  1.00  0.00    -0.295 OA 
HETATM   37  C   UNL     1     -12.157  13.882  64.503  1.00  0.00    -0.443 C  
HETATM   38  O   UNL     1     -11.187  16.104  64.542  1.00  0.00    -0.583 OA 
HETATM   39  H   UNL     1     -10.919  11.834  63.496  1.00  0.00     0.000 HD 
HETATM   40  O   UNL     1     -12.233  13.896  63.098  1.00  0.00    -1.071 OA 
HETATM   41  C   UNL     1     -10.991  14.775  64.957  1.00  0.00    -0.414 C  
HETATM   42  H   UNL     1     -12.374  14.773  62.763  1.00  0.00     0.000 HD 
BRANCH  33  43
HETATM   43  C   UNL     1     -11.529  11.167  67.225  1.00  0.00    -0.136 C  
HETATM   44  O   UNL     1     -12.273  11.041  68.407  1.00  0.00    -0.770 OA 
HETATM   45  H   UNL     1     -12.148  10.188  68.804  1.00  0.00     0.000 HD 
ENDBRANCH  33  43
ENDBRANCH  30  31
ENDBRANCH  29  30
BRANCH  29  46
HETATM   46  C   UNL     1      -8.982  17.833  67.111  1.00  0.00    -0.246 C  
HETATM   47  O   UNL     1      -8.133  18.227  68.163  1.00  0.00    -0.268 OA 
HETATM   48  H   UNL     1      -7.568  18.942  67.896  1.00  0.00     0.000 HD 
BRANCH  46  49
HETATM   49  C   UNL     1      -9.710  19.035  66.465  1.00  0.00    -0.357 C  
HETATM   50  H   UNL     1     -11.331  20.082  66.774  1.00  0.00     0.000 HD 
HETATM   51  O   UNL     1     -10.883  19.344  67.171  1.00  0.00    -0.484 OA 
ENDBRANCH  46  49
ENDBRANCH  29  46
ENDBRANCH  26  29
ENDBRANCH  23  26
ENDBRANCH  21  23
ENDBRANCH  20  21
ENDBRANCH  19  20
ENDBRANCH  18  19
ENDBRANCH  16  18
ENDBRANCH  13  16
ENDBRANCH  10  13
ENDBRANCH   7  10
ENDBRANCH   4   7
ENDBRANCH   2   4
TORSDOF 17
ENDMDL
MODEL       67
REMARK 921   NORMALIZED FREE ENERGY PREDICTED BY IDOCK:   -5.57 KCAL/MOL
REMARK 922        TOTAL FREE ENERGY PREDICTED BY IDOCK:  -14.54 KCAL/MOL
REMARK 923 INTER-LIGAND FREE ENERGY PREDICTED BY IDOCK:  -10.68 KCAL/MOL
REMARK 924 INTRA-LIGAND FREE ENERGY PREDICTED BY IDOCK:   -3.87 KCAL/MOL
REMARK 927      BINDING AFFINITY PREDICTED BY RF-SCORE:    0.00 PKD
ROOT
HETATM    1  O   UNL     1     -12.950  15.470  70.155  1.00  0.00    -0.637 OA 
HETATM    2  C   UNL     1     -11.627  15.085  69.898  1.00  0.00    -0.293 C  
HETATM    3  H   UNL     1     -13.096  15.505  71.094  1.00  0.00     0.000 HD 
ENDROOT
BRANCH   2   4
HETATM    4  C   UNL     1     -11.391  15.029  68.379  1.00  0.00    -0.309 C  
HETATM    5  O   UNL     1     -10.170  15.656  68.075  1.00  0.00    -0.223 OA 
HETATM    6  H   UNL     1     -10.024  15.622  67.137  1.00  0.00     0.000 HD 
BRANCH   4   7
HETATM    7  C   UNL     1     -11.365  13.567  67.859  1.00  0.00    -0.289 C  
HETATM    8  H   UNL     1     -11.944  11.822  68.490  1.00  0.00     0.000 HD 
HETATM    9  O   UNL     1     -11.960  12.717  68.808  1.00  0.00    -0.307 OA 
BRANCH   7  10
HETATM   10  C   UNL     1     -12.113  13.419  66.508  1.00  0.00    -0.388 C  
HETATM   11  H   UNL     1     -12.806  11.959  65.449  1.00  0.00     0.000 HD 
HETATM   12  O   UNL     1     -12.348  12.050  66.277  1.00  0.00    -0.432 OA 
BRANCH  10  13
HETATM   13  C   UNL     1     -11.330  14.005  65.300  1.00  0.00    -0.321 C  
HETATM   14  H   UNL     1      -9.475  14.335  64.832  1.00  0.00     0.000 HD 
HETATM   15  O   UNL     1      -9.953  13.977  65.571  1.00  0.00    -0.316 OA 
BRANCH  13  16
HETATM   16  C   UNL     1     -11.566  13.254  64.011  1.00  0.00    -0.409 C  
HETATM   17  O   UNL     1     -12.590  13.449  63.375  1.00  0.00    -0.738 OA 
BRANCH  16  18
HETATM   18  O   UNL     1     -10.668  12.360  63.552  1.00  0.00    -0.442 OA 
BRANCH  18  19
HETATM   19 CA   UNL     1      -8.811  11.722  64.966  1.00  0.00    -0.326 Ca 
BRANCH  19  20
HETATM   20  O   UNL     1      -6.953  11.085  66.381  1.00  0.00    -0.134 OA 
BRANCH  20  21
HETATM   21  C   UNL     1      -7.009  11.803  67.515  1.00  0.00    -0.113 C  
HETATM   22  O   UNL     1      -6.659  12.971  67.469  1.00  0.00    -0.151 OA 
BRANCH  21  23
HETATM   23  C   UNL     1      -7.321  11.164  68.850  1.00  0.00    -0.110 C  
HETATM   24  H   UNL     1      -6.399  10.917  70.527  1.00  0.00     0.000 HD 
HETATM   25  O   UNL     1      -6.203  11.319  69.689  1.00  0.00    -0.084 OA 
BRANCH  23  26
HETATM   26  C   UNL     1      -7.694   9.652  68.775  1.00  0.00    -0.080 C  
HETATM   27  H   UNL     1      -7.275   8.039  69.766  1.00  0.00     0.000 HD 
HETATM   28  O   UNL     1      -7.047   8.960  69.811  1.00  0.00    -0.051 OA 
BRANCH  26  29
HETATM   29  C   UNL     1      -9.219   9.287  68.771  1.00  0.00    -0.136 C  
BRANCH  29  30
HETATM   30  O   UNL     1      -9.294   7.875  68.907  1.00  0.00    -0.150 OA 
BRANCH  30  31
HETATM   31  C   UNL     1     -10.389   7.387  69.656  1.00  0.00    -0.223 C  
HETATM   32  O   UNL     1     -11.117   8.467  70.216  1.00  0.00    -0.249 OA 
HETATM   33  C   UNL     1     -12.230   7.990  70.958  1.00  0.00    -0.185 C  
HETATM   34  H   UNL     1      -8.701   4.884  70.946  1.00  0.00     0.000 HD 
HETATM   35  C   UNL     1     -11.743   7.199  72.200  1.00  0.00    -0.284 C  
HETATM   36  O   UNL     1     -10.947   8.015  73.025  1.00  0.00    -0.374 OA 
HETATM   37  C   UNL     1     -10.917   5.991  71.711  1.00  0.00    -0.269 C  
HETATM   38  O   UNL     1      -9.061   5.427  70.256  1.00  0.00    -0.131 OA 
HETATM   39  H   UNL     1     -10.649   7.530  73.785  1.00  0.00     0.000 HD 
HETATM   40  O   UNL     1     -10.344   5.285  72.784  1.00  0.00    -0.180 OA 
HETATM   41  C   UNL     1      -9.802   6.501  70.783  1.00  0.00    -0.184 C  
HETATM   42  H   UNL     1      -9.836   4.541  72.482  1.00  0.00     0.000 HD 
BRANCH  33  43
HETATM   43  C   UNL     1     -13.094   9.201  71.344  1.00  0.00    -0.304 C  
HETATM   44  O   UNL     1     -13.184  10.120  70.289  1.00  0.00    -0.571 OA 
HETATM   45  H   UNL     1     -13.719  10.868  70.528  1.00  0.00     0.000 HD 
ENDBRANCH  33  43
ENDBRANCH  30  31
ENDBRANCH  29  30
BRANCH  29  46
HETATM   46  C   UNL     1     -10.046   9.805  67.542  1.00  0.00    -0.197 C  
HETATM   47  O   UNL     1     -11.380  10.074  67.908  1.00  0.00    -0.505 OA 
HETATM   48  H   UNL     1     -11.880  10.388  67.165  1.00  0.00     0.000 HD 
BRANCH  46  49
HETATM   49  C   UNL     1      -9.953   8.927  66.273  1.00  0.00    -0.266 C  
HETATM   50  H   UNL     1      -9.848   9.183  64.338  1.00  0.00     0.000 HD 
HETATM   51  O   UNL     1      -9.905   9.722  65.118  1.00  0.00    -0.315 OA 
ENDBRANCH  46  49
ENDBRANCH  29  46
ENDBRANCH  26  29
ENDBRANCH  23  26
ENDBRANCH  21  23
ENDBRANCH  20  21
ENDBRANCH  19  20
ENDBRANCH  18  19
ENDBRANCH  16  18
ENDBRANCH  13  16
ENDBRANCH  10  13
ENDBRANCH   7  10
ENDBRANCH   4   7
ENDBRANCH   2   4
TORSDOF 17
ENDMDL
MODEL       68
REMARK 921   NORMALIZED FREE ENERGY PREDICTED BY IDOCK:   -5.55 KCAL/MOL
REMARK 922        TOTAL FREE ENERGY PREDICTED BY IDOCK:  -14.50 KCAL/MOL
REMARK 923 INTER-LIGAND FREE ENERGY PREDICTED BY IDOCK:  -11.10 KCAL/MOL
REMARK 924 INTRA-LIGAND FREE ENERGY PREDICTED BY IDOCK:   -3.41 KCAL/MOL
REMARK 927      BINDING AFFINITY PREDICTED BY RF-SCORE:    0.00 PKD
ROOT
HETATM    1  O   UNL     1      -9.628   6.223  66.030  1.00  0.00    -0.356 OA 
HETATM    2  C   UNL     1     -10.770   5.639  66.595  1.00  0.00    -0.268 C  
HETATM    3  H   UNL     1      -9.705   6.225  65.083  1.00  0.00     0.000 HD 
ENDROOT
BRANCH   2   4
HETATM    4  C   UNL     1     -10.645   5.634  68.128  1.00  0.00    -0.183 C  
HETATM    5  O   UNL     1      -9.705   4.664  68.515  1.00  0.00    -0.153 OA 
HETATM    6  H   UNL     1      -9.628   4.662  69.462  1.00  0.00     0.000 HD 
BRANCH   4   7
HETATM    7  C   UNL     1     -10.209   7.022  68.668  1.00  0.00    -0.176 C  
HETATM    8  H   UNL     1     -10.516   8.887  68.214  1.00  0.00     0.000 HD 
HETATM    9  O   UNL     1     -10.783   8.038  67.883  1.00  0.00    -0.174 OA 
BRANCH   7  10
HETATM   10  C   UNL     1     -10.630   7.227  70.147  1.00  0.00    -0.232 C  
HETATM   11  H   UNL     1     -12.202   6.875  71.213  1.00  0.00     0.000 HD 
HETATM   12  O   UNL     1     -11.944   6.749  70.307  1.00  0.00    -0.352 OA 
BRANCH  10  13
HETATM   13  C   UNL     1     -10.577   8.711  70.606  1.00  0.00    -0.211 C  
HETATM   14  H   UNL     1     -11.249   9.766  72.092  1.00  0.00     0.000 HD 
HETATM   15  O   UNL     1     -11.282   8.859  71.811  1.00  0.00    -0.315 OA 
BRANCH  13  16
HETATM   16  C   UNL     1      -9.172   9.221  70.825  1.00  0.00    -0.253 C  
HETATM   17  O   UNL     1      -8.603   8.995  71.882  1.00  0.00    -0.361 OA 
BRANCH  16  18
HETATM   18  O   UNL     1      -8.534   9.934  69.875  1.00  0.00    -0.186 OA 
BRANCH  18  19
HETATM   19 CA   UNL     1      -9.017   9.493  67.545  1.00  0.00    -0.119 Ca 
BRANCH  19  20
HETATM   20  O   UNL     1      -9.500   9.051  65.216  1.00  0.00    -0.186 OA 
BRANCH  20  21
HETATM   21  C   UNL     1      -9.657  10.224  64.577  1.00  0.00    -0.316 C  
HETATM   22  O   UNL     1      -9.602  10.222  63.359  1.00  0.00    -0.301 OA 
BRANCH  21  23
HETATM   23  C   UNL     1      -9.725  11.536  65.326  1.00  0.00    -0.238 C  
HETATM   24  H   UNL     1      -8.628  12.464  66.615  1.00  0.00     0.000 HD 
HETATM   25  O   UNL     1      -8.585  11.640  66.145  1.00  0.00    -0.153 OA 
BRANCH  23  26
HETATM   26  C   UNL     1     -11.000  11.720  66.203  1.00  0.00    -0.307 C  
HETATM   27  H   UNL     1     -11.503  11.417  68.052  1.00  0.00     0.000 HD 
HETATM   28  O   UNL     1     -10.725  11.305  67.517  1.00  0.00    -0.206 OA 
BRANCH  26  29
HETATM   29  C   UNL     1     -11.658  13.142  66.228  1.00  0.00    -0.356 C  
BRANCH  29  30
HETATM   30  O   UNL     1     -12.258  13.285  67.507  1.00  0.00    -0.304 OA 
BRANCH  30  31
HETATM   31  C   UNL     1     -12.095  14.545  68.126  1.00  0.00    -0.197 C  
HETATM   32  O   UNL     1     -11.141  15.318  67.416  1.00  0.00    -0.320 OA 
HETATM   33  C   UNL     1     -10.979  16.593  68.018  1.00  0.00    -0.311 C  
HETATM   34  H   UNL     1     -12.204  13.332  71.175  1.00  0.00     0.000 HD 
HETATM   35  C   UNL     1     -10.345  16.440  69.425  1.00  0.00    -0.290 C  
HETATM   36  O   UNL     1      -9.093  15.804  69.336  1.00  0.00    -0.253 OA 
HETATM   37  C   UNL     1     -11.298  15.596  70.297  1.00  0.00    -0.344 C  
HETATM   38  O   UNL     1     -12.512  13.497  70.292  1.00  0.00    -0.302 OA 
HETATM   39  H   UNL     1      -8.705  15.711  70.199  1.00  0.00     0.000 HD 
HETATM   40  O   UNL     1     -10.739  15.317  71.557  1.00  0.00    -0.433 OA 
HETATM   41  C   UNL     1     -11.591  14.275  69.567  1.00  0.00    -0.301 C  
HETATM   42  H   UNL     1     -11.326  14.798  72.093  1.00  0.00     0.000 HD 
BRANCH  33  43
HETATM   43  C   UNL     1     -10.114  17.452  67.082  1.00  0.00    -0.307 C  
HETATM   44  O   UNL     1      -9.291  16.654  66.274  1.00  0.00    -0.266 OA 
HETATM   45  H   UNL     1      -8.757  17.185  65.696  1.00  0.00     0.000 HD 
ENDBRANCH  33  43
ENDBRANCH  30  31
ENDBRANCH  29  30
BRANCH  29  46
HETATM   46  C   UNL     1     -12.666  13.453  65.066  1.00  0.00    -0.360 C  
HETATM   47  O   UNL     1     -13.251  12.269  64.575  1.00  0.00    -0.799 OA 
HETATM   48  H   UNL     1     -13.861  12.456  63.872  1.00  0.00     0.000 HD 
BRANCH  46  49
HETATM   49  C   UNL     1     -12.104  14.341  63.931  1.00  0.00    -0.210 C  
HETATM   50  H   UNL     1     -12.389  16.140  63.224  1.00  0.00     0.000 HD 
HETATM   51  O   UNL     1     -12.735  15.595  63.921  1.00  0.00    -0.697 OA 
ENDBRANCH  46  49
ENDBRANCH  29  46
ENDBRANCH  26  29
ENDBRANCH  23  26
ENDBRANCH  21  23
ENDBRANCH  20  21
ENDBRANCH  19  20
ENDBRANCH  18  19
ENDBRANCH  16  18
ENDBRANCH  13  16
ENDBRANCH  10  13
ENDBRANCH   7  10
ENDBRANCH   4   7
ENDBRANCH   2   4
TORSDOF 17
ENDMDL
MODEL       69
REMARK 921   NORMALIZED FREE ENERGY PREDICTED BY IDOCK:   -5.54 KCAL/MOL
REMARK 922        TOTAL FREE ENERGY PREDICTED BY IDOCK:  -14.48 KCAL/MOL
REMARK 923 INTER-LIGAND FREE ENERGY PREDICTED BY IDOCK:  -11.61 KCAL/MOL
REMARK 924 INTRA-LIGAND FREE ENERGY PREDICTED BY IDOCK:   -2.87 KCAL/MOL
REMARK 927      BINDING AFFINITY PREDICTED BY RF-SCORE:    0.00 PKD
ROOT
HETATM    1  O   UNL     1     -13.650  11.997  72.690  1.00  0.00    -0.545 OA 
HETATM    2  C   UNL     1     -12.762  11.703  71.646  1.00  0.00    -0.270 C  
HETATM    3  H   UNL     1     -13.414  12.827  73.087  1.00  0.00     0.000 HD 
ENDROOT
BRANCH   2   4
HETATM    4  C   UNL     1     -13.145  10.359  71.003  1.00  0.00    -0.362 C  
HETATM    5  O   UNL     1     -12.778  10.372  69.646  1.00  0.00    -0.619 OA 
HETATM    6  H   UNL     1     -13.015   9.542  69.249  1.00  0.00     0.000 HD 
BRANCH   4   7
HETATM    7  C   UNL     1     -12.450   9.168  71.715  1.00  0.00    -0.372 C  
HETATM    8  H   UNL     1     -12.996   7.547  72.638  1.00  0.00     0.000 HD 
HETATM    9  O   UNL     1     -13.422   8.276  72.202  1.00  0.00    -0.319 OA 
BRANCH   7  10
HETATM   10  C   UNL     1     -11.492   8.403  70.764  1.00  0.00    -0.255 C  
HETATM   11  H   UNL     1     -11.232   6.566  70.227  1.00  0.00     0.000 HD 
HETATM   12  O   UNL     1     -11.818   7.035  70.810  1.00  0.00    -0.337 OA 
BRANCH  10  13
HETATM   13  C   UNL     1      -9.992   8.575  71.127  1.00  0.00    -0.207 C  
HETATM   14  H   UNL     1      -8.383   7.488  71.079  1.00  0.00     0.000 HD 
HETATM   15  O   UNL     1      -9.301   7.382  70.857  1.00  0.00    -0.155 OA 
BRANCH  13  16
HETATM   16  C   UNL     1      -9.313   9.687  70.363  1.00  0.00    -0.211 C  
HETATM   17  O   UNL     1      -9.934  10.302  69.510  1.00  0.00    -0.223 OA 
BRANCH  16  18
HETATM   18  O   UNL     1      -8.025  10.009  70.599  1.00  0.00    -0.203 OA 
BRANCH  18  19
HETATM   19 CA   UNL     1      -7.235  12.219  70.006  1.00  0.00    -0.333 Ca 
BRANCH  19  20
HETATM   20  O   UNL     1      -6.444  14.428  69.414  1.00  0.00    -0.115 OA 
BRANCH  20  21
HETATM   21  C   UNL     1      -6.544  14.579  68.082  1.00  0.00    -0.136 C  
HETATM   22  O   UNL     1      -6.033  13.730  67.371  1.00  0.00    -0.348 OA 
BRANCH  21  23
HETATM   23  C   UNL     1      -7.109  15.837  67.463  1.00  0.00    -0.186 C  
HETATM   24  H   UNL     1      -6.454  17.240  66.310  1.00  0.00     0.000 HD 
HETATM   25  O   UNL     1      -6.099  16.450  66.699  1.00  0.00    -0.306 OA 
BRANCH  23  26
HETATM   26  C   UNL     1      -7.670  16.871  68.486  1.00  0.00    -0.227 C  
HETATM   27  H   UNL     1      -7.053  18.503  69.333  1.00  0.00     0.000 HD 
HETATM   28  O   UNL     1      -6.711  17.873  68.709  1.00  0.00    -0.221 OA 
BRANCH  26  29
HETATM   29  C   UNL     1      -9.054  17.531  68.159  1.00  0.00    -0.277 C  
BRANCH  29  30
HETATM   30  O   UNL     1      -9.631  16.757  67.117  1.00  0.00    -0.229 OA 
BRANCH  30  31
HETATM   31  C   UNL     1     -10.841  16.101  67.435  1.00  0.00    -0.265 C  
HETATM   32  O   UNL     1     -10.984  15.997  68.842  1.00  0.00    -0.269 OA 
HETATM   33  C   UNL     1     -12.204  15.353  69.176  1.00  0.00    -0.160 C  
HETATM   34  H   UNL     1     -10.564  13.897  65.018  1.00  0.00     0.000 HD 
HETATM   35  C   UNL     1     -12.175  13.876  68.704  1.00  0.00    -0.178 C  
HETATM   36  O   UNL     1     -11.105  13.187  69.305  1.00  0.00    -0.369 OA 
HETATM   37  C   UNL     1     -12.008  13.861  67.170  1.00  0.00    -0.420 C  
HETATM   38  O   UNL     1     -10.610  14.762  65.406  1.00  0.00    -0.325 OA 
HETATM   39  H   UNL     1     -11.087  12.282  69.015  1.00  0.00     0.000 HD 
HETATM   40  O   UNL     1     -11.859  12.553  66.677  1.00  0.00    -0.437 OA 
HETATM   41  C   UNL     1     -10.765  14.689  66.802  1.00  0.00    -0.301 C  
HETATM   42  H   UNL     1     -11.757  12.544  65.732  1.00  0.00     0.000 HD 
BRANCH  33  43
HETATM   43  C   UNL     1     -12.401  15.472  70.695  1.00  0.00    -0.416 C  
HETATM   44  O   UNL     1     -13.752  15.333  71.046  1.00  0.00    -0.628 OA 
HETATM   45  H   UNL     1     -13.874  15.407  71.985  1.00  0.00     0.000 HD 
ENDBRANCH  33  43
ENDBRANCH  30  31
ENDBRANCH  29  30
BRANCH  29  46
HETATM   46  C   UNL     1      -9.019  19.060  67.809  1.00  0.00    -0.293 C  
HETATM   47  O   UNL     1     -10.030  19.759  68.498  1.00  0.00    -0.409 OA 
HETATM   48  H   UNL     1     -10.009  20.684  68.287  1.00  0.00     0.000 HD 
BRANCH  46  49
HETATM   49  C   UNL     1      -9.011  19.385  66.297  1.00  0.00    -0.346 C  
HETATM   50  H   UNL     1      -7.748  20.064  64.968  1.00  0.00     0.000 HD 
HETATM   51  O   UNL     1      -7.753  19.863  65.897  1.00  0.00    -0.335 OA 
ENDBRANCH  46  49
ENDBRANCH  29  46
ENDBRANCH  26  29
ENDBRANCH  23  26
ENDBRANCH  21  23
ENDBRANCH  20  21
ENDBRANCH  19  20
ENDBRANCH  18  19
ENDBRANCH  16  18
ENDBRANCH  13  16
ENDBRANCH  10  13
ENDBRANCH   7  10
ENDBRANCH   4   7
ENDBRANCH   2   4
TORSDOF 17
ENDMDL
MODEL       70
REMARK 921   NORMALIZED FREE ENERGY PREDICTED BY IDOCK:   -5.53 KCAL/MOL
REMARK 922        TOTAL FREE ENERGY PREDICTED BY IDOCK:  -14.47 KCAL/MOL
REMARK 923 INTER-LIGAND FREE ENERGY PREDICTED BY IDOCK:  -11.09 KCAL/MOL
REMARK 924 INTRA-LIGAND FREE ENERGY PREDICTED BY IDOCK:   -3.39 KCAL/MOL
REMARK 927      BINDING AFFINITY PREDICTED BY RF-SCORE:    0.00 PKD
ROOT
HETATM    1  O   UNL     1     -13.747  15.341  70.730  1.00  0.00    -0.713 OA 
HETATM    2  C   UNL     1     -13.026  14.210  71.135  1.00  0.00    -0.349 C  
HETATM    3  H   UNL     1     -14.568  15.384  71.207  1.00  0.00     0.000 HD 
ENDROOT
BRANCH   2   4
HETATM    4  C   UNL     1     -11.697  14.139  70.363  1.00  0.00    -0.243 C  
HETATM    5  O   UNL     1     -11.409  12.797  70.057  1.00  0.00    -0.502 OA 
HETATM    6  H   UNL     1     -10.588  12.754  69.580  1.00  0.00     0.000 HD 
BRANCH   4   7
HETATM    7  C   UNL     1     -11.755  14.967  69.052  1.00  0.00    -0.325 C  
HETATM    8  H   UNL     1     -11.060  16.665  68.409  1.00  0.00     0.000 HD 
HETATM    9  O   UNL     1     -11.024  16.158  69.212  1.00  0.00    -0.271 OA 
BRANCH   7  10
HETATM   10  C   UNL     1     -11.182  14.181  67.844  1.00  0.00    -0.279 C  
HETATM   11  H   UNL     1      -9.449  13.950  67.023  1.00  0.00     0.000 HD 
HETATM   12  O   UNL     1      -9.800  14.432  67.763  1.00  0.00    -0.217 OA 
BRANCH  10  13
HETATM   13  C   UNL     1     -11.841  14.561  66.489  1.00  0.00    -0.352 C  
HETATM   14  H   UNL     1     -11.286  15.379  64.817  1.00  0.00     0.000 HD 
HETATM   15  O   UNL     1     -10.883  15.146  65.645  1.00  0.00    -0.328 OA 
BRANCH  13  16
HETATM   16  C   UNL     1     -12.441  13.381  65.762  1.00  0.00    -0.439 C  
HETATM   17  O   UNL     1     -13.265  13.569  64.879  1.00  0.00    -0.661 OA 
BRANCH  16  18
HETATM   18  O   UNL     1     -12.092  12.118  66.076  1.00  0.00    -0.612 OA 
BRANCH  18  19
HETATM   19 CA   UNL     1     -12.476  11.314  68.327  1.00  0.00    -0.263 Ca 
BRANCH  19  20
HETATM   20  O   UNL     1     -12.860  10.510  70.576  1.00  0.00    -0.345 OA 
BRANCH  20  21
HETATM   21  C   UNL     1     -11.835   9.717  70.932  1.00  0.00    -0.323 C  
HETATM   22  O   UNL     1     -10.705  10.087  70.660  1.00  0.00    -0.303 OA 
BRANCH  21  23
HETATM   23  C   UNL     1     -12.057   8.330  71.492  1.00  0.00    -0.299 C  
HETATM   24  H   UNL     1     -13.271   7.513  72.752  1.00  0.00     0.000 HD 
HETATM   25  O   UNL     1     -13.131   8.384  72.400  1.00  0.00    -0.307 OA 
BRANCH  23  26
HETATM   26  C   UNL     1     -10.818   7.711  72.207  1.00  0.00    -0.267 C  
HETATM   27  H   UNL     1     -10.238   7.416  74.034  1.00  0.00     0.000 HD 
HETATM   28  O   UNL     1     -10.993   7.794  73.599  1.00  0.00    -0.239 OA 
BRANCH  26  29
HETATM   29  C   UNL     1     -10.418   6.247  71.814  1.00  0.00    -0.211 C  
BRANCH  29  30
HETATM   30  O   UNL     1     -10.807   6.074  70.459  1.00  0.00    -0.272 OA 
BRANCH  30  31
HETATM   31  C   UNL     1      -9.811   6.345  69.494  1.00  0.00    -0.154 C  
HETATM   32  O   UNL     1     -10.049   7.605  68.889  1.00  0.00    -0.186 OA 
HETATM   33  C   UNL     1      -9.047   7.897  67.927  1.00  0.00    -0.131 C  
HETATM   34  H   UNL     1      -9.733   3.267  68.357  1.00  0.00     0.000 HD 
HETATM   35  C   UNL     1      -9.139   6.902  66.741  1.00  0.00    -0.145 C  
HETATM   36  O   UNL     1     -10.405   6.977  66.132  1.00  0.00    -0.405 OA 
HETATM   37  C   UNL     1      -8.906   5.478  67.285  1.00  0.00    -0.105 C  
HETATM   38  O   UNL     1      -9.680   3.956  69.008  1.00  0.00    -0.164 OA 
HETATM   39  H   UNL     1     -10.462   6.367  65.405  1.00  0.00     0.000 HD 
HETATM   40  O   UNL     1      -9.087   4.504  66.286  1.00  0.00    -0.116 OA 
HETATM   41  C   UNL     1      -9.899   5.221  68.432  1.00  0.00    -0.153 C  
HETATM   42  H   UNL     1      -8.944   3.627  66.622  1.00  0.00     0.000 HD 
BRANCH  33  43
HETATM   43  C   UNL     1      -9.233   9.355  67.477  1.00  0.00    -0.123 C  
HETATM   44  O   UNL     1     -10.515   9.827  67.795  1.00  0.00    -0.213 OA 
HETATM   45  H   UNL     1     -10.630  10.727  67.517  1.00  0.00     0.000 HD 
ENDBRANCH  33  43
ENDBRANCH  30  31
ENDBRANCH  29  30
BRANCH  29  46
HETATM   46  C   UNL     1     -10.980   5.110  72.739  1.00  0.00    -0.267 C  
HETATM   47  O   UNL     1     -12.361   5.275  72.960  1.00  0.00    -0.485 OA 
HETATM   48  H   UNL     1     -12.702   4.587  73.519  1.00  0.00     0.000 HD 
BRANCH  46  49
HETATM   49  C   UNL     1     -10.199   4.891  74.056  1.00  0.00    -0.226 C  
HETATM   50  H   UNL     1      -9.161   3.469  74.905  1.00  0.00     0.000 HD 
HETATM   51  O   UNL     1      -9.640   3.604  74.096  1.00  0.00    -0.095 OA 
ENDBRANCH  46  49
ENDBRANCH  29  46
ENDBRANCH  26  29
ENDBRANCH  23  26
ENDBRANCH  21  23
ENDBRANCH  20  21
ENDBRANCH  19  20
ENDBRANCH  18  19
ENDBRANCH  16  18
ENDBRANCH  13  16
ENDBRANCH  10  13
ENDBRANCH   7  10
ENDBRANCH   4   7
ENDBRANCH   2   4
TORSDOF 17
ENDMDL
MODEL       71
REMARK 921   NORMALIZED FREE ENERGY PREDICTED BY IDOCK:   -5.53 KCAL/MOL
REMARK 922        TOTAL FREE ENERGY PREDICTED BY IDOCK:  -14.47 KCAL/MOL
REMARK 923 INTER-LIGAND FREE ENERGY PREDICTED BY IDOCK:  -11.93 KCAL/MOL
REMARK 924 INTRA-LIGAND FREE ENERGY PREDICTED BY IDOCK:   -2.53 KCAL/MOL
REMARK 927      BINDING AFFINITY PREDICTED BY RF-SCORE:    0.00 PKD
ROOT
HETATM    1  O   UNL     1      -8.177   4.545  68.022  1.00  0.00    -0.094 OA 
HETATM    2  C   UNL     1      -9.542   4.861  67.978  1.00  0.00    -0.146 C  
HETATM    3  H   UNL     1      -7.845   4.438  67.138  1.00  0.00     0.000 HD 
ENDROOT
BRANCH   2   4
HETATM    4  C   UNL     1     -10.079   5.035  69.409  1.00  0.00    -0.218 C  
HETATM    5  O   UNL     1      -9.806   3.873  70.151  1.00  0.00    -0.200 OA 
HETATM    6  H   UNL     1     -10.138   3.980  71.035  1.00  0.00     0.000 HD 
BRANCH   4   7
HETATM    7  C   UNL     1      -9.440   6.260  70.113  1.00  0.00    -0.159 C  
HETATM    8  H   UNL     1      -8.822   8.032  69.605  1.00  0.00     0.000 HD 
HETATM    9  O   UNL     1      -9.214   7.282  69.173  1.00  0.00    -0.141 OA 
BRANCH   7  10
HETATM   10  C   UNL     1     -10.341   6.811  71.251  1.00  0.00    -0.204 C  
HETATM   11  H   UNL     1     -11.131   6.111  72.868  1.00  0.00     0.000 HD 
HETATM   12  O   UNL     1     -10.580   5.774  72.172  1.00  0.00    -0.205 OA 
BRANCH  10  13
HETATM   13  C   UNL     1     -11.705   7.361  70.749  1.00  0.00    -0.276 C  
HETATM   14  H   UNL     1     -13.586   7.067  71.133  1.00  0.00     0.000 HD 
HETATM   15  O   UNL     1     -12.752   6.730  71.440  1.00  0.00    -0.346 OA 
BRANCH  13  16
HETATM   16  C   UNL     1     -11.856   8.852  70.937  1.00  0.00    -0.240 C  
HETATM   17  O   UNL     1     -11.455   9.615  70.071  1.00  0.00    -0.225 OA 
BRANCH  16  18
HETATM   18  O   UNL     1     -12.418   9.360  72.052  1.00  0.00    -0.369 OA 
BRANCH  18  19
HETATM   19 CA   UNL     1     -12.953  11.719  72.133  1.00  0.00    -0.366 Ca 
BRANCH  19  20
HETATM   20  O   UNL     1     -13.488  14.077  72.214  1.00  0.00    -0.410 OA 
BRANCH  20  21
HETATM   21  C   UNL     1     -13.121  14.644  71.052  1.00  0.00    -0.367 C  
HETATM   22  O   UNL     1     -13.452  15.800  70.851  1.00  0.00    -0.568 OA 
BRANCH  21  23
HETATM   23  C   UNL     1     -12.472  13.843  69.945  1.00  0.00    -0.229 C  
HETATM   24  H   UNL     1     -11.224  12.375  69.834  1.00  0.00     0.000 HD 
HETATM   25  O   UNL     1     -11.631  12.878  70.529  1.00  0.00    -0.047 OA 
BRANCH  23  26
HETATM   26  C   UNL     1     -11.646  14.689  68.929  1.00  0.00    -0.310 C  
HETATM   27  H   UNL     1     -10.125  15.890  68.992  1.00  0.00     0.000 HD 
HETATM   28  O   UNL     1     -10.628  15.375  69.612  1.00  0.00    -0.244 OA 
BRANCH  26  29
HETATM   29  C   UNL     1     -11.038  13.938  67.695  1.00  0.00    -0.277 C  
BRANCH  29  30
HETATM   30  O   UNL     1     -11.744  12.710  67.583  1.00  0.00    -0.335 OA 
BRANCH  30  31
HETATM   31  C   UNL     1     -11.846  12.175  66.279  1.00  0.00    -0.246 C  
HETATM   32  O   UNL     1     -10.611  11.598  65.891  1.00  0.00    -0.255 OA 
HETATM   33  C   UNL     1     -10.704  11.042  64.588  1.00  0.00    -0.248 C  
HETATM   34  H   UNL     1     -13.634  14.677  65.131  1.00  0.00     0.000 HD 
HETATM   35  C   UNL     1     -10.922  12.167  63.543  1.00  0.00    -0.453 C  
HETATM   36  O   UNL     1      -9.860  13.089  63.582  1.00  0.00    -0.694 OA 
HETATM   37  C   UNL     1     -12.247  12.884  63.874  1.00  0.00    -0.449 C  
HETATM   38  O   UNL     1     -13.417  13.955  65.708  1.00  0.00    -0.464 OA 
HETATM   39  H   UNL     1      -9.994  13.778  62.941  1.00  0.00     0.000 HD 
HETATM   40  O   UNL     1     -12.460  13.994  63.036  1.00  0.00    -1.101 OA 
HETATM   41  C   UNL     1     -12.200  13.354  65.338  1.00  0.00    -0.452 C  
HETATM   42  H   UNL     1     -13.276  14.435  63.240  1.00  0.00     0.000 HD 
BRANCH  33  43
HETATM   43  C   UNL     1      -9.418  10.244  64.321  1.00  0.00    -0.307 C  
HETATM   44  O   UNL     1      -8.288  10.920  64.805  1.00  0.00    -0.361 OA 
HETATM   45  H   UNL     1      -7.494  10.426  64.641  1.00  0.00     0.000 HD 
ENDBRANCH  33  43
ENDBRANCH  30  31
ENDBRANCH  29  30
BRANCH  29  46
HETATM   46  C   UNL     1      -9.483  13.724  67.719  1.00  0.00    -0.216 C  
HETATM   47  O   UNL     1      -8.926  13.924  66.441  1.00  0.00    -0.452 OA 
HETATM   48  H   UNL     1      -7.985  13.795  66.456  1.00  0.00     0.000 HD 
BRANCH  46  49
HETATM   49  C   UNL     1      -9.015  12.396  68.360  1.00  0.00    -0.133 C  
HETATM   50  H   UNL     1      -7.599  11.077  68.088  1.00  0.00     0.000 HD 
HETATM   51  O   UNL     1      -7.886  11.893  67.695  1.00  0.00    -0.125 OA 
ENDBRANCH  46  49
ENDBRANCH  29  46
ENDBRANCH  26  29
ENDBRANCH  23  26
ENDBRANCH  21  23
ENDBRANCH  20  21
ENDBRANCH  19  20
ENDBRANCH  18  19
ENDBRANCH  16  18
ENDBRANCH  13  16
ENDBRANCH  10  13
ENDBRANCH   7  10
ENDBRANCH   4   7
ENDBRANCH   2   4
TORSDOF 17
ENDMDL
MODEL       72
REMARK 921   NORMALIZED FREE ENERGY PREDICTED BY IDOCK:   -5.53 KCAL/MOL
REMARK 922        TOTAL FREE ENERGY PREDICTED BY IDOCK:  -14.46 KCAL/MOL
REMARK 923 INTER-LIGAND FREE ENERGY PREDICTED BY IDOCK:  -11.06 KCAL/MOL
REMARK 924 INTRA-LIGAND FREE ENERGY PREDICTED BY IDOCK:   -3.40 KCAL/MOL
REMARK 927      BINDING AFFINITY PREDICTED BY RF-SCORE:    0.00 PKD
ROOT
HETATM    1  O   UNL     1      -7.746  10.800  69.732  1.00  0.00    -0.353 OA 
HETATM    2  C   UNL     1      -7.461   9.679  70.523  1.00  0.00    -0.132 C  
HETATM    3  H   UNL     1      -7.021  11.413  69.773  1.00  0.00     0.000 HD 
ENDROOT
BRANCH   2   4
HETATM    4  C   UNL     1      -8.635   8.687  70.457  1.00  0.00    -0.156 C  
HETATM    5  O   UNL     1      -8.417   7.779  69.406  1.00  0.00    -0.131 OA 
HETATM    6  H   UNL     1      -9.142   7.166  69.365  1.00  0.00     0.000 HD 
BRANCH   4   7
HETATM    7  C   UNL     1      -8.798   7.907  71.788  1.00  0.00    -0.126 C  
HETATM    8  H   UNL     1      -8.158   8.063  73.617  1.00  0.00     0.000 HD 
HETATM    9  O   UNL     1      -8.058   8.541  72.803  1.00  0.00    -0.328 OA 
BRANCH   7  10
HETATM   10  C   UNL     1     -10.283   7.815  72.228  1.00  0.00    -0.228 C  
HETATM   11  H   UNL     1     -11.234   7.589  73.894  1.00  0.00     0.000 HD 
HETATM   12  O   UNL     1     -10.325   7.646  73.625  1.00  0.00    -0.324 OA 
BRANCH  10  13
HETATM   13  C   UNL     1     -11.057   6.647  71.557  1.00  0.00    -0.256 C  
HETATM   14  H   UNL     1     -12.055   6.359  69.916  1.00  0.00     0.000 HD 
HETATM   15  O   UNL     1     -11.583   7.074  70.327  1.00  0.00    -0.299 OA 
BRANCH  13  16
HETATM   16  C   UNL     1     -10.199   5.430  71.298  1.00  0.00    -0.223 C  
HETATM   17  O   UNL     1      -9.892   4.697  72.226  1.00  0.00    -0.155 OA 
BRANCH  16  18
HETATM   18  O   UNL     1      -9.755   5.142  70.058  1.00  0.00    -0.170 OA 
BRANCH  18  19
HETATM   19 CA   UNL     1     -10.040   6.776  68.295  1.00  0.00    -0.139 Ca 
BRANCH  19  20
HETATM   20  O   UNL     1     -10.324   8.408  66.532  1.00  0.00    -0.285 OA 
BRANCH  20  21
HETATM   21  C   UNL     1     -10.340   9.636  67.079  1.00  0.00    -0.248 C  
HETATM   22  O   UNL     1     -11.253   9.910  67.840  1.00  0.00    -0.226 OA 
BRANCH  21  23
HETATM   23  C   UNL     1      -9.373  10.715  66.646  1.00  0.00    -0.165 C  
HETATM   24  H   UNL     1      -7.464  10.992  66.731  1.00  0.00     0.000 HD 
HETATM   25  O   UNL     1      -8.072  10.315  67.003  1.00  0.00    -0.119 OA 
BRANCH  23  26
HETATM   26  C   UNL     1      -9.655  12.123  67.252  1.00  0.00    -0.185 C  
HETATM   27  H   UNL     1      -8.612  13.588  67.978  1.00  0.00     0.000 HD 
HETATM   28  O   UNL     1      -8.439  12.729  67.609  1.00  0.00    -0.154 OA 
BRANCH  26  29
HETATM   29  C   UNL     1     -10.507  13.119  66.391  1.00  0.00    -0.282 C  
BRANCH  29  30
HETATM   30  O   UNL     1     -11.694  13.374  67.129  1.00  0.00    -0.337 OA 
BRANCH  30  31
HETATM   31  C   UNL     1     -11.756  14.627  67.780  1.00  0.00    -0.359 C  
HETATM   32  O   UNL     1     -10.829  15.527  67.196  1.00  0.00    -0.316 OA 
HETATM   33  C   UNL     1     -10.893  16.795  67.832  1.00  0.00    -0.311 C  
HETATM   34  H   UNL     1     -12.065  13.324  70.778  1.00  0.00     0.000 HD 
HETATM   35  C   UNL     1     -10.410  16.680  69.301  1.00  0.00    -0.318 C  
HETATM   36  O   UNL     1      -9.088  16.200  69.350  1.00  0.00    -0.240 OA 
HETATM   37  C   UNL     1     -11.346  15.704  70.043  1.00  0.00    -0.334 C  
HETATM   38  O   UNL     1     -12.288  13.476  69.868  1.00  0.00    -0.298 OA 
HETATM   39  H   UNL     1      -8.793  16.129  70.250  1.00  0.00     0.000 HD 
HETATM   40  O   UNL     1     -10.905  15.458  71.356  1.00  0.00    -0.431 OA 
HETATM   41  C   UNL     1     -11.392  14.378  69.266  1.00  0.00    -0.284 C  
HETATM   42  H   UNL     1     -11.482  14.858  71.813  1.00  0.00     0.000 HD 
BRANCH  33  43
HETATM   43  C   UNL     1     -10.037  17.776  67.015  1.00  0.00    -0.337 C  
HETATM   44  O   UNL     1      -9.964  17.391  65.669  1.00  0.00    -0.559 OA 
HETATM   45  H   UNL     1      -9.436  17.997  65.165  1.00  0.00     0.000 HD 
ENDBRANCH  33  43
ENDBRANCH  30  31
ENDBRANCH  29  30
BRANCH  29  46
HETATM   46  C   UNL     1     -10.812  12.667  64.920  1.00  0.00    -0.298 C  
HETATM   47  O   UNL     1     -10.149  13.492  63.990  1.00  0.00    -0.749 OA 
HETATM   48  H   UNL     1     -10.334  13.218  63.100  1.00  0.00     0.000 HD 
BRANCH  46  49
HETATM   49  C   UNL     1     -12.312  12.497  64.586  1.00  0.00    -0.474 C  
HETATM   50  H   UNL     1     -13.583  13.151  63.252  1.00  0.00     0.000 HD 
HETATM   51  O   UNL     1     -12.661  13.256  63.457  1.00  0.00    -0.728 OA 
ENDBRANCH  46  49
ENDBRANCH  29  46
ENDBRANCH  26  29
ENDBRANCH  23  26
ENDBRANCH  21  23
ENDBRANCH  20  21
ENDBRANCH  19  20
ENDBRANCH  18  19
ENDBRANCH  16  18
ENDBRANCH  13  16
ENDBRANCH  10  13
ENDBRANCH   7  10
ENDBRANCH   4   7
ENDBRANCH   2   4
TORSDOF 17
ENDMDL
MODEL       73
REMARK 921   NORMALIZED FREE ENERGY PREDICTED BY IDOCK:   -5.51 KCAL/MOL
REMARK 922        TOTAL FREE ENERGY PREDICTED BY IDOCK:  -14.43 KCAL/MOL
REMARK 923 INTER-LIGAND FREE ENERGY PREDICTED BY IDOCK:  -10.96 KCAL/MOL
REMARK 924 INTRA-LIGAND FREE ENERGY PREDICTED BY IDOCK:   -3.47 KCAL/MOL
REMARK 927      BINDING AFFINITY PREDICTED BY RF-SCORE:    0.00 PKD
ROOT
HETATM    1  O   UNL     1      -8.617  15.574  69.376  1.00  0.00    -0.249 OA 
HETATM    2  C   UNL     1      -9.782  16.300  69.092  1.00  0.00    -0.265 C  
HETATM    3  H   UNL     1      -7.870  16.160  69.386  1.00  0.00     0.000 HD 
ENDROOT
BRANCH   2   4
HETATM    4  C   UNL     1     -10.993  15.351  69.076  1.00  0.00    -0.252 C  
HETATM    5  O   UNL     1     -10.624  14.139  68.468  1.00  0.00    -0.239 OA 
HETATM    6  H   UNL     1     -11.372  13.553  68.458  1.00  0.00     0.000 HD 
BRANCH   4   7
HETATM    7  C   UNL     1     -11.517  15.072  70.509  1.00  0.00    -0.290 C  
HETATM    8  H   UNL     1     -12.113  16.118  72.036  1.00  0.00     0.000 HD 
HETATM    9  O   UNL     1     -11.792  16.289  71.159  1.00  0.00    -0.401 OA 
BRANCH   7  10
HETATM   10  C   UNL     1     -12.804  14.204  70.497  1.00  0.00    -0.247 C  
HETATM   11  H   UNL     1     -14.643  14.427  71.045  1.00  0.00     0.000 HD 
HETATM   12  O   UNL     1     -13.855  14.958  71.052  1.00  0.00    -0.376 OA 
BRANCH  10  13
HETATM   13  C   UNL     1     -12.663  12.877  71.293  1.00  0.00    -0.278 C  
HETATM   14  H   UNL     1     -13.778  11.788  72.451  1.00  0.00     0.000 HD 
HETATM   15  O   UNL     1     -13.864  12.600  71.965  1.00  0.00    -0.294 OA 
BRANCH  13  16
HETATM   16  C   UNL     1     -12.333  11.688  70.422  1.00  0.00    -0.288 C  
HETATM   17  O   UNL     1     -11.547  10.843  70.823  1.00  0.00    -0.312 OA 
BRANCH  16  18
HETATM   18  O   UNL     1     -12.883  11.546  69.199  1.00  0.00     0.137 OA 
BRANCH  18  19
HETATM   19 CA   UNL     1     -12.213  13.047  67.423  1.00  0.00    -0.309 Ca 
BRANCH  19  20
HETATM   20  O   UNL     1     -11.543  14.548  65.647  1.00  0.00    -0.341 OA 
BRANCH  20  21
HETATM   21  C   UNL     1     -11.971  14.048  64.475  1.00  0.00    -0.448 C  
HETATM   22  O   UNL     1     -12.823  14.673  63.866  1.00  0.00    -0.691 OA 
BRANCH  21  23
HETATM   23  C   UNL     1     -11.556  12.676  63.995  1.00  0.00    -0.418 C  
HETATM   24  H   UNL     1     -12.450  11.113  63.298  1.00  0.00     0.000 HD 
HETATM   25  O   UNL     1     -12.710  11.975  63.600  1.00  0.00    -0.647 OA 
BRANCH  23  26
HETATM   26  C   UNL     1     -10.780  11.826  65.046  1.00  0.00    -0.292 C  
HETATM   27  H   UNL     1     -11.202  10.848  66.667  1.00  0.00     0.000 HD 
HETATM   28  O   UNL     1     -11.675  11.366  66.026  1.00  0.00    -0.223 OA 
BRANCH  26  29
HETATM   29  C   UNL     1      -9.924  10.626  64.511  1.00  0.00    -0.345 C  
BRANCH  29  30
HETATM   30  O   UNL     1      -8.700  10.654  65.230  1.00  0.00    -0.183 OA 
BRANCH  30  31
HETATM   31  C   UNL     1      -8.573   9.702  66.268  1.00  0.00    -0.127 C  
HETATM   32  O   UNL     1      -9.559   8.693  66.126  1.00  0.00    -0.239 OA 
HETATM   33  C   UNL     1      -9.434   7.721  67.153  1.00  0.00    -0.155 C  
HETATM   34  H   UNL     1      -7.949  11.947  68.580  1.00  0.00     0.000 HD 
HETATM   35  C   UNL     1      -9.760   8.356  68.530  1.00  0.00    -0.160 C  
HETATM   36  O   UNL     1     -11.068   8.875  68.537  1.00  0.00    -0.453 OA 
HETATM   37  C   UNL     1      -8.748   9.491  68.792  1.00  0.00    -0.128 C  
HETATM   38  O   UNL     1      -7.823  11.482  67.762  1.00  0.00    -0.115 OA 
HETATM   39  H   UNL     1     -11.268   9.264  69.380  1.00  0.00     0.000 HD 
HETATM   40  O   UNL     1      -9.049  10.192  69.974  1.00  0.00    -0.377 OA 
HETATM   41  C   UNL     1      -8.780  10.463  67.601  1.00  0.00    -0.118 C  
HETATM   42  H   UNL     1      -8.426  10.890  70.135  1.00  0.00     0.000 HD 
BRANCH  33  43
HETATM   43  C   UNL     1     -10.373   6.552  66.817  1.00  0.00    -0.210 C  
HETATM   44  O   UNL     1     -11.650   6.752  67.359  1.00  0.00    -0.704 OA 
HETATM   45  H   UNL     1     -12.231   6.030  67.151  1.00  0.00     0.000 HD 
ENDBRANCH  33  43
ENDBRANCH  30  31
ENDBRANCH  29  30
BRANCH  29  46
HETATM   46  C   UNL     1      -9.696  10.583  62.959  1.00  0.00    -0.294 C  
HETATM   47  O   UNL     1      -9.639   9.255  62.493  1.00  0.00    -0.511 OA 
HETATM   48  H   UNL     1      -9.501   9.229  61.554  1.00  0.00     0.000 HD 
BRANCH  46  49
HETATM   49  C   UNL     1      -8.510  11.434  62.449  1.00  0.00     0.032 C  
HETATM   50  H   UNL     1      -6.616  11.179  62.036  1.00  0.00     0.000 HD 
HETATM   51  O   UNL     1      -7.345  10.656  62.349  1.00  0.00    -0.145 OA 
ENDBRANCH  46  49
ENDBRANCH  29  46
ENDBRANCH  26  29
ENDBRANCH  23  26
ENDBRANCH  21  23
ENDBRANCH  20  21
ENDBRANCH  19  20
ENDBRANCH  18  19
ENDBRANCH  16  18
ENDBRANCH  13  16
ENDBRANCH  10  13
ENDBRANCH   7  10
ENDBRANCH   4   7
ENDBRANCH   2   4
TORSDOF 17
ENDMDL
MODEL       74
REMARK 921   NORMALIZED FREE ENERGY PREDICTED BY IDOCK:   -5.51 KCAL/MOL
REMARK 922        TOTAL FREE ENERGY PREDICTED BY IDOCK:  -14.42 KCAL/MOL
REMARK 923 INTER-LIGAND FREE ENERGY PREDICTED BY IDOCK:  -10.87 KCAL/MOL
REMARK 924 INTRA-LIGAND FREE ENERGY PREDICTED BY IDOCK:   -3.55 KCAL/MOL
REMARK 927      BINDING AFFINITY PREDICTED BY RF-SCORE:    0.00 PKD
ROOT
HETATM    1  O   UNL     1      -8.235   5.326  67.819  1.00  0.00    -0.099 OA 
HETATM    2  C   UNL     1      -9.499   5.042  67.283  1.00  0.00    -0.136 C  
HETATM    3  H   UNL     1      -7.698   4.542  67.804  1.00  0.00     0.000 HD 
ENDROOT
BRANCH   2   4
HETATM    4  C   UNL     1     -10.368   6.310  67.307  1.00  0.00    -0.216 C  
HETATM    5  O   UNL     1     -11.460   6.142  66.437  1.00  0.00    -0.650 OA 
HETATM    6  H   UNL     1     -11.996   6.926  66.452  1.00  0.00     0.000 HD 
BRANCH   4   7
HETATM    7  C   UNL     1     -10.889   6.618  68.736  1.00  0.00    -0.267 C  
HETATM    8  H   UNL     1     -11.150   5.641  70.397  1.00  0.00     0.000 HD 
HETATM    9  O   UNL     1     -10.831   5.452  69.522  1.00  0.00    -0.269 OA 
BRANCH   7  10
HETATM   10  C   UNL     1     -10.062   7.735  69.427  1.00  0.00    -0.195 C  
HETATM   11  H   UNL     1      -8.415   7.834  70.431  1.00  0.00     0.000 HD 
HETATM   12  O   UNL     1      -8.921   7.150  70.008  1.00  0.00    -0.142 OA 
BRANCH  10  13
HETATM   13  C   UNL     1     -10.851   8.499  70.526  1.00  0.00    -0.228 C  
HETATM   14  H   UNL     1     -10.706   8.785  72.442  1.00  0.00     0.000 HD 
HETATM   15  O   UNL     1     -10.224   8.318  71.770  1.00  0.00    -0.195 OA 
BRANCH  13  16
HETATM   16  C   UNL     1     -10.953   9.984  70.269  1.00  0.00    -0.316 C  
HETATM   17  O   UNL     1     -11.487  10.706  71.097  1.00  0.00    -0.196 OA 
BRANCH  16  18
HETATM   18  O   UNL     1     -10.474  10.528  69.133  1.00  0.00    -0.202 OA 
BRANCH  18  19
HETATM   19 CA   UNL     1      -9.054  12.484  69.271  1.00  0.00    -0.367 Ca 
BRANCH  19  20
HETATM   20  O   UNL     1      -7.635  14.438  69.408  1.00  0.00    -0.093 OA 
BRANCH  20  21
HETATM   21  C   UNL     1      -7.275  14.799  68.164  1.00  0.00    -0.122 C  
HETATM   22  O   UNL     1      -6.852  13.931  67.418  1.00  0.00    -0.186 OA 
BRANCH  21  23
HETATM   23  C   UNL     1      -7.221  16.249  67.739  1.00  0.00    -0.134 C  
HETATM   24  H   UNL     1      -5.848  17.491  67.192  1.00  0.00     0.000 HD 
HETATM   25  O   UNL     1      -5.882  16.580  67.459  1.00  0.00    -0.125 OA 
BRANCH  23  26
HETATM   26  C   UNL     1      -7.786  17.256  68.786  1.00  0.00    -0.261 C  
HETATM   27  H   UNL     1      -7.264  18.970  69.527  1.00  0.00     0.000 HD 
HETATM   28  O   UNL     1      -6.919  18.357  68.888  1.00  0.00    -0.271 OA 
BRANCH  26  29
HETATM   29  C   UNL     1      -9.255  17.760  68.579  1.00  0.00    -0.281 C  
BRANCH  29  30
HETATM   30  O   UNL     1      -9.845  16.898  67.617  1.00  0.00    -0.249 OA 
BRANCH  30  31
HETATM   31  C   UNL     1     -11.019  16.228  68.028  1.00  0.00    -0.328 C  
HETATM   32  O   UNL     1     -11.088  16.189  69.444  1.00  0.00    -0.296 OA 
HETATM   33  C   UNL     1     -12.272  15.532  69.870  1.00  0.00    -0.325 C  
HETATM   34  H   UNL     1     -10.804  13.917  65.707  1.00  0.00     0.000 HD 
HETATM   35  C   UNL     1     -12.227  14.036  69.468  1.00  0.00    -0.308 C  
HETATM   36  O   UNL     1     -11.110  13.403  70.045  1.00  0.00    -0.470 OA 
HETATM   37  C   UNL     1     -12.137  13.950  67.930  1.00  0.00    -0.283 C  
HETATM   38  O   UNL     1     -10.854  14.798  66.055  1.00  0.00    -0.303 OA 
HETATM   39  H   UNL     1     -11.082  12.486  69.798  1.00  0.00     0.000 HD 
HETATM   40  O   UNL     1     -11.977  12.623  67.492  1.00  0.00    -0.382 OA 
HETATM   41  C   UNL     1     -10.937  14.789  67.460  1.00  0.00    -0.304 C  
HETATM   42  H   UNL     1     -11.923  12.571  66.545  1.00  0.00     0.000 HD 
BRANCH  33  43
HETATM   43  C   UNL     1     -12.396  15.721  71.391  1.00  0.00    -0.448 C  
HETATM   44  O   UNL     1     -11.267  15.226  72.059  1.00  0.00    -0.472 OA 
HETATM   45  H   UNL     1     -11.344  15.343  72.998  1.00  0.00     0.000 HD 
ENDBRANCH  33  43
ENDBRANCH  30  31
ENDBRANCH  29  30
BRANCH  29  46
HETATM   46  C   UNL     1      -9.414  19.273  68.191  1.00  0.00    -0.346 C  
HETATM   47  O   UNL     1     -10.333  19.919  69.041  1.00  0.00    -0.613 OA 
HETATM   48  H   UNL     1     -10.429  20.833  68.806  1.00  0.00     0.000 HD 
BRANCH  46  49
HETATM   49  C   UNL     1      -9.712  19.537  66.697  1.00  0.00    -0.375 C  
HETATM   50  H   UNL     1      -8.712  19.684  65.024  1.00  0.00     0.000 HD 
HETATM   51  O   UNL     1      -8.529  19.522  65.942  1.00  0.00    -0.417 OA 
ENDBRANCH  46  49
ENDBRANCH  29  46
ENDBRANCH  26  29
ENDBRANCH  23  26
ENDBRANCH  21  23
ENDBRANCH  20  21
ENDBRANCH  19  20
ENDBRANCH  18  19
ENDBRANCH  16  18
ENDBRANCH  13  16
ENDBRANCH  10  13
ENDBRANCH   7  10
ENDBRANCH   4   7
ENDBRANCH   2   4
TORSDOF 17
ENDMDL
MODEL       75
REMARK 921   NORMALIZED FREE ENERGY PREDICTED BY IDOCK:   -5.49 KCAL/MOL
REMARK 922        TOTAL FREE ENERGY PREDICTED BY IDOCK:  -14.38 KCAL/MOL
REMARK 923 INTER-LIGAND FREE ENERGY PREDICTED BY IDOCK:  -11.89 KCAL/MOL
REMARK 924 INTRA-LIGAND FREE ENERGY PREDICTED BY IDOCK:   -2.49 KCAL/MOL
REMARK 927      BINDING AFFINITY PREDICTED BY RF-SCORE:    0.00 PKD
ROOT
HETATM    1  O   UNL     1     -13.655   9.931  70.318  1.00  0.00    -0.456 OA 
HETATM    2  C   UNL     1     -13.187   9.974  71.639  1.00  0.00    -0.419 C  
HETATM    3  H   UNL     1     -13.852  10.811  70.020  1.00  0.00     0.000 HD 
ENDROOT
BRANCH   2   4
HETATM    4  C   UNL     1     -12.868   8.549  72.121  1.00  0.00    -0.369 C  
HETATM    5  O   UNL     1     -14.023   7.754  72.020  1.00  0.00    -0.482 OA 
HETATM    6  H   UNL     1     -13.825   6.874  72.318  1.00  0.00     0.000 HD 
BRANCH   4   7
HETATM    7  C   UNL     1     -11.725   7.908  71.290  1.00  0.00    -0.287 C  
HETATM    8  H   UNL     1      -9.782   7.974  71.252  1.00  0.00     0.000 HD 
HETATM    9  O   UNL     1     -10.482   8.366  71.762  1.00  0.00    -0.238 OA 
BRANCH   7  10
HETATM   10  C   UNL     1     -11.754   6.358  71.362  1.00  0.00    -0.306 C  
HETATM   11  H   UNL     1     -12.192   5.031  72.696  1.00  0.00     0.000 HD 
HETATM   12  O   UNL     1     -12.174   5.980  72.651  1.00  0.00    -0.119 OA 
BRANCH  10  13
HETATM   13  C   UNL     1     -10.377   5.700  71.070  1.00  0.00    -0.233 C  
HETATM   14  H   UNL     1      -9.383   4.148  71.684  1.00  0.00     0.000 HD 
HETATM   15  O   UNL     1     -10.225   4.551  71.863  1.00  0.00    -0.195 OA 
BRANCH  13  16
HETATM   16  C   UNL     1     -10.202   5.293  69.626  1.00  0.00    -0.278 C  
HETATM   17  O   UNL     1      -9.493   4.338  69.348  1.00  0.00    -0.154 OA 
BRANCH  16  18
HETATM   18  O   UNL     1     -10.807   5.973  68.632  1.00  0.00    -0.279 OA 
BRANCH  18  19
HETATM   19 CA   UNL     1      -9.725   7.937  67.720  1.00  0.00    -0.138 Ca 
BRANCH  19  20
HETATM   20  O   UNL     1      -8.644   9.901  66.809  1.00  0.00    -0.127 OA 
BRANCH  20  21
HETATM   21  C   UNL     1      -9.041  10.977  67.510  1.00  0.00    -0.137 C  
HETATM   22  O   UNL     1      -8.182  11.739  67.920  1.00  0.00    -0.132 OA 
BRANCH  21  23
HETATM   23  C   UNL     1     -10.479  11.163  67.939  1.00  0.00    -0.190 C  
HETATM   24  H   UNL     1     -11.908  10.022  68.559  1.00  0.00     0.000 HD 
HETATM   25  O   UNL     1     -11.005   9.906  68.290  1.00  0.00    -0.240 OA 
BRANCH  23  26
HETATM   26  C   UNL     1     -11.399  11.816  66.863  1.00  0.00    -0.320 C  
HETATM   27  H   UNL     1     -12.932  13.004  66.843  1.00  0.00     0.000 HD 
HETATM   28  O   UNL     1     -12.371  12.606  67.499  1.00  0.00    -0.304 OA 
BRANCH  26  29
HETATM   29  C   UNL     1     -10.704  12.647  65.730  1.00  0.00    -0.268 C  
BRANCH  29  30
HETATM   30  O   UNL     1     -11.153  13.986  65.882  1.00  0.00    -0.297 OA 
BRANCH  30  31
HETATM   31  C   UNL     1     -10.145  14.950  66.113  1.00  0.00    -0.298 C  
HETATM   32  O   UNL     1      -9.815  14.990  67.492  1.00  0.00    -0.216 OA 
HETATM   33  C   UNL     1      -8.793  15.944  67.736  1.00  0.00    -0.175 C  
HETATM   34  H   UNL     1     -11.425  17.140  64.029  1.00  0.00     0.000 HD 
HETATM   35  C   UNL     1      -9.318  17.374  67.448  1.00  0.00    -0.237 C  
HETATM   36  O   UNL     1     -10.429  17.665  68.260  1.00  0.00    -0.366 OA 
HETATM   37  C   UNL     1      -9.725  17.450  65.961  1.00  0.00    -0.152 C  
HETATM   38  O   UNL     1     -11.072  16.302  64.303  1.00  0.00    -0.762 OA 
HETATM   39  H   UNL     1     -10.751  18.541  68.083  1.00  0.00     0.000 HD 
HETATM   40  O   UNL     1     -10.320  18.686  65.648  1.00  0.00    -0.572 OA 
HETATM   41  C   UNL     1     -10.722  16.317  65.666  1.00  0.00    -0.286 C  
HETATM   42  H   UNL     1     -10.570  18.733  64.733  1.00  0.00     0.000 HD 
BRANCH  33  43
HETATM   43  C   UNL     1      -8.329  15.779  69.191  1.00  0.00    -0.249 C  
HETATM   44  O   UNL     1      -8.236  14.425  69.546  1.00  0.00    -0.373 OA 
HETATM   45  H   UNL     1      -7.949  14.323  70.445  1.00  0.00     0.000 HD 
ENDBRANCH  33  43
ENDBRANCH  30  31
ENDBRANCH  29  30
BRANCH  29  46
HETATM   46  C   UNL     1     -10.909  12.119  64.267  1.00  0.00    -0.341 C  
HETATM   47  O   UNL     1      -9.923  12.634  63.402  1.00  0.00    -0.627 OA 
HETATM   48  H   UNL     1     -10.047  12.315  62.516  1.00  0.00     0.000 HD 
BRANCH  46  49
HETATM   49  C   UNL     1     -12.336  12.299  63.700  1.00  0.00    -0.562 C  
HETATM   50  H   UNL     1     -13.327  13.627  62.664  1.00  0.00     0.000 HD 
HETATM   51  O   UNL     1     -12.450  13.517  63.012  1.00  0.00    -0.709 OA 
ENDBRANCH  46  49
ENDBRANCH  29  46
ENDBRANCH  26  29
ENDBRANCH  23  26
ENDBRANCH  21  23
ENDBRANCH  20  21
ENDBRANCH  19  20
ENDBRANCH  18  19
ENDBRANCH  16  18
ENDBRANCH  13  16
ENDBRANCH  10  13
ENDBRANCH   7  10
ENDBRANCH   4   7
ENDBRANCH   2   4
TORSDOF 17
ENDMDL
MODEL       76
REMARK 921   NORMALIZED FREE ENERGY PREDICTED BY IDOCK:   -5.49 KCAL/MOL
REMARK 922        TOTAL FREE ENERGY PREDICTED BY IDOCK:  -14.38 KCAL/MOL
REMARK 923 INTER-LIGAND FREE ENERGY PREDICTED BY IDOCK:  -11.82 KCAL/MOL
REMARK 924 INTRA-LIGAND FREE ENERGY PREDICTED BY IDOCK:   -2.56 KCAL/MOL
REMARK 927      BINDING AFFINITY PREDICTED BY RF-SCORE:    0.00 PKD
ROOT
HETATM    1  O   UNL     1     -10.827  18.499  65.234  1.00  0.00    -0.606 OA 
HETATM    2  C   UNL     1     -10.433  17.293  65.830  1.00  0.00    -0.262 C  
HETATM    3  H   UNL     1     -10.353  19.221  65.630  1.00  0.00     0.000 HD 
ENDROOT
BRANCH   2   4
HETATM    4  C   UNL     1     -11.200  16.124  65.190  1.00  0.00    -0.147 C  
HETATM    5  O   UNL     1     -11.603  16.488  63.893  1.00  0.00    -1.598 OA 
HETATM    6  H   UNL     1     -12.077  15.766  63.497  1.00  0.00     0.000 HD 
BRANCH   4   7
HETATM    7  C   UNL     1     -10.330  14.841  65.120  1.00  0.00    -0.410 C  
HETATM    8  H   UNL     1      -9.071  13.911  66.272  1.00  0.00     0.000 HD 
HETATM    9  O   UNL     1      -9.603  14.697  66.316  1.00  0.00    -0.282 OA 
BRANCH   7  10
HETATM   10  C   UNL     1     -11.190  13.569  64.895  1.00  0.00    -0.342 C  
HETATM   11  H   UNL     1     -13.075  13.153  64.821  1.00  0.00     0.000 HD 
HETATM   12  O   UNL     1     -12.548  13.932  64.959  1.00  0.00    -0.563 OA 
BRANCH  10  13
HETATM   13  C   UNL     1     -10.920  12.447  65.935  1.00  0.00    -0.288 C  
HETATM   14  H   UNL     1     -11.973  11.299  67.095  1.00  0.00     0.000 HD 
HETATM   15  O   UNL     1     -12.138  11.986  66.459  1.00  0.00    -0.617 OA 
BRANCH  13  16
HETATM   16  C   UNL     1     -10.183  11.261  65.360  1.00  0.00    -0.270 C  
HETATM   17  O   UNL     1     -10.641  10.675  64.391  1.00  0.00    -0.308 OA 
BRANCH  16  18
HETATM   18  O   UNL     1      -9.029  10.826  65.905  1.00  0.00    -0.171 OA 
BRANCH  18  19
HETATM   19 CA   UNL     1      -9.047   9.956  68.164  1.00  0.00    -0.117 Ca 
BRANCH  19  20
HETATM   20  O   UNL     1      -9.065   9.086  70.421  1.00  0.00    -0.173 OA 
BRANCH  20  21
HETATM   21  C   UNL     1     -10.319   9.151  70.900  1.00  0.00    -0.280 C  
HETATM   22  O   UNL     1     -11.116   9.866  70.315  1.00  0.00    -0.262 OA 
BRANCH  21  23
HETATM   23  C   UNL     1     -10.705   8.511  72.214  1.00  0.00    -0.341 C  
HETATM   24  H   UNL     1      -9.837   8.159  73.902  1.00  0.00     0.000 HD 
HETATM   25  O   UNL     1      -9.594   8.561  73.076  1.00  0.00    -0.198 OA 
BRANCH  23  26
HETATM   26  C   UNL     1     -11.195   7.036  72.100  1.00  0.00    -0.256 C  
HETATM   27  H   UNL     1     -12.586   6.075  71.150  1.00  0.00     0.000 HD 
HETATM   28  O   UNL     1     -12.287   6.974  71.219  1.00  0.00    -0.349 OA 
BRANCH  26  29
HETATM   29  C   UNL     1     -10.133   5.954  71.698  1.00  0.00    -0.190 C  
BRANCH  29  30
HETATM   30  O   UNL     1     -10.644   5.299  70.545  1.00  0.00    -0.262 OA 
BRANCH  30  31
HETATM   31  C   UNL     1      -9.925   5.511  69.348  1.00  0.00    -0.208 C  
HETATM   32  O   UNL     1     -10.508   6.571  68.609  1.00  0.00    -0.180 OA 
HETATM   33  C   UNL     1      -9.785   6.805  67.410  1.00  0.00    -0.133 C  
HETATM   34  H   UNL     1      -9.495   2.310  68.757  1.00  0.00     0.000 HD 
HETATM   35  C   UNL     1      -9.919   5.586  66.461  1.00  0.00    -0.185 C  
HETATM   36  O   UNL     1     -11.271   5.348  66.151  1.00  0.00    -0.761 OA 
HETATM   37  C   UNL     1      -9.322   4.352  67.169  1.00  0.00    -0.155 C  
HETATM   38  O   UNL     1      -9.446   3.118  69.253  1.00  0.00    -0.160 OA 
HETATM   39  H   UNL     1     -11.352   4.601  65.570  1.00  0.00     0.000 HD 
HETATM   40  O   UNL     1      -9.509   3.180  66.416  1.00  0.00    -0.332 OA 
HETATM   41  C   UNL     1     -10.006   4.192  68.538  1.00  0.00     0.098 C  
HETATM   42  H   UNL     1      -9.141   2.420  66.852  1.00  0.00     0.000 HD 
BRANCH  33  43
HETATM   43  C   UNL     1     -10.325   8.096  66.775  1.00  0.00    -0.291 C  
HETATM   44  O   UNL     1     -11.146   8.798  67.669  1.00  0.00    -0.480 OA 
HETATM   45  H   UNL     1     -11.480   9.596  67.277  1.00  0.00     0.000 HD 
ENDBRANCH  33  43
ENDBRANCH  30  31
ENDBRANCH  29  30
BRANCH  29  46
HETATM   46  C   UNL     1      -9.728   4.938  72.823  1.00  0.00    -0.144 C  
HETATM   47  O   UNL     1      -9.229   3.743  72.268  1.00  0.00    -0.110 OA 
HETATM   48  H   UNL     1      -8.984   3.128  72.948  1.00  0.00     0.000 HD 
BRANCH  46  49
HETATM   49  C   UNL     1     -10.815   4.678  73.892  1.00  0.00    -0.291 C  
HETATM   50  H   UNL     1     -12.126   3.292  74.317  1.00  0.00     0.000 HD 
HETATM   51  O   UNL     1     -11.458   3.452  73.660  1.00  0.00    -0.199 OA 
ENDBRANCH  46  49
ENDBRANCH  29  46
ENDBRANCH  26  29
ENDBRANCH  23  26
ENDBRANCH  21  23
ENDBRANCH  20  21
ENDBRANCH  19  20
ENDBRANCH  18  19
ENDBRANCH  16  18
ENDBRANCH  13  16
ENDBRANCH  10  13
ENDBRANCH   7  10
ENDBRANCH   4   7
ENDBRANCH   2   4
TORSDOF 17
ENDMDL
MODEL       77
REMARK 921   NORMALIZED FREE ENERGY PREDICTED BY IDOCK:   -5.48 KCAL/MOL
REMARK 922        TOTAL FREE ENERGY PREDICTED BY IDOCK:  -14.37 KCAL/MOL
REMARK 923 INTER-LIGAND FREE ENERGY PREDICTED BY IDOCK:  -11.76 KCAL/MOL
REMARK 924 INTRA-LIGAND FREE ENERGY PREDICTED BY IDOCK:   -2.60 KCAL/MOL
REMARK 927      BINDING AFFINITY PREDICTED BY RF-SCORE:    0.00 PKD
ROOT
HETATM    1  O   UNL     1     -13.138   9.798  70.570  1.00  0.00    -0.570 OA 
HETATM    2  C   UNL     1     -11.902  10.046  71.182  1.00  0.00    -0.393 C  
HETATM    3  H   UNL     1     -13.817  10.299  71.007  1.00  0.00     0.000 HD 
ENDROOT
BRANCH   2   4
HETATM    4  C   UNL     1     -10.803   9.235  70.474  1.00  0.00    -0.263 C  
HETATM    5  O   UNL     1     -11.394   8.368  69.539  1.00  0.00    -0.438 OA 
HETATM    6  H   UNL     1     -10.715   7.867  69.102  1.00  0.00     0.000 HD 
BRANCH   4   7
HETATM    7  C   UNL     1      -9.788  10.160  69.751  1.00  0.00    -0.208 C  
HETATM    8  H   UNL     1      -7.857  10.282  69.563  1.00  0.00     0.000 HD 
HETATM    9  O   UNL     1      -8.478   9.715  70.005  1.00  0.00    -0.172 OA 
BRANCH   7  10
HETATM   10  C   UNL     1     -10.022  10.191  68.217  1.00  0.00    -0.148 C  
HETATM   11  H   UNL     1     -11.529  10.466  67.041  1.00  0.00     0.000 HD 
HETATM   12  O   UNL     1     -11.386  10.447  67.980  1.00  0.00    -0.302 OA 
BRANCH  10  13
HETATM   13  C   UNL     1      -9.627   8.869  67.504  1.00  0.00    -0.145 C  
HETATM   14  H   UNL     1     -10.533   7.446  66.541  1.00  0.00     0.000 HD 
HETATM   15  O   UNL     1     -10.775   8.255  66.977  1.00  0.00    -0.307 OA 
BRANCH  13  16
HETATM   16  C   UNL     1      -8.646   9.068  66.372  1.00  0.00    -0.125 C  
HETATM   17  O   UNL     1      -7.789   8.225  66.158  1.00  0.00    -0.094 OA 
BRANCH  16  18
HETATM   18  O   UNL     1      -8.693  10.170  65.596  1.00  0.00    -0.147 OA 
BRANCH  18  19
HETATM   19 CA   UNL     1     -10.816  11.277  65.246  1.00  0.00    -0.257 Ca 
BRANCH  19  20
HETATM   20  O   UNL     1     -12.939  12.384  64.897  1.00  0.00    -0.762 OA 
BRANCH  20  21
HETATM   21  C   UNL     1     -12.709  13.679  64.615  1.00  0.00    -0.149 C  
HETATM   22  O   UNL     1     -12.786  14.031  63.451  1.00  0.00    -0.796 OA 
BRANCH  21  23
HETATM   23  C   UNL     1     -12.201  14.644  65.662  1.00  0.00    -0.182 C  
HETATM   24  H   UNL     1     -11.031  16.179  65.693  1.00  0.00     0.000 HD 
HETATM   25  O   UNL     1     -11.350  15.572  65.035  1.00  0.00    -0.354 OA 
BRANCH  23  26
HETATM   26  C   UNL     1     -11.439  13.977  66.847  1.00  0.00    -0.356 C  
HETATM   27  H   UNL     1      -9.738  13.085  67.115  1.00  0.00     0.000 HD 
HETATM   28  O   UNL     1     -10.202  13.491  66.392  1.00  0.00    -0.278 OA 
BRANCH  26  29
HETATM   29  C   UNL     1     -11.223  14.837  68.140  1.00  0.00    -0.294 C  
BRANCH  29  30
HETATM   30  O   UNL     1      -9.852  15.208  68.151  1.00  0.00    -0.213 OA 
BRANCH  30  31
HETATM   31  C   UNL     1      -9.589  16.585  68.333  1.00  0.00    -0.233 C  
HETATM   32  O   UNL     1     -10.073  17.325  67.225  1.00  0.00    -0.283 OA 
HETATM   33  C   UNL     1      -9.828  18.712  67.403  1.00  0.00    -0.318 C  
HETATM   34  H   UNL     1      -6.597  16.092  69.592  1.00  0.00     0.000 HD 
HETATM   35  C   UNL     1      -8.303  18.991  67.386  1.00  0.00    -0.276 C  
HETATM   36  O   UNL     1      -7.738  18.570  66.168  1.00  0.00    -0.310 OA 
HETATM   37  C   UNL     1      -7.656  18.218  68.554  1.00  0.00    -0.300 C  
HETATM   38  O   UNL     1      -7.539  15.999  69.526  1.00  0.00    -0.219 OA 
HETATM   39  H   UNL     1      -6.803  18.741  66.158  1.00  0.00     0.000 HD 
HETATM   40  O   UNL     1      -6.254  18.329  68.538  1.00  0.00    -0.193 OA 
HETATM   41  C   UNL     1      -8.050  16.736  68.441  1.00  0.00    -0.219 C  
HETATM   42  H   UNL     1      -5.857  17.854  69.258  1.00  0.00     0.000 HD 
BRANCH  33  43
HETATM   43  C   UNL     1     -10.569  19.470  66.289  1.00  0.00    -0.481 C  
HETATM   44  O   UNL     1      -9.775  20.495  65.756  1.00  0.00    -0.640 OA 
HETATM   45  H   UNL     1     -10.232  20.963  65.068  1.00  0.00     0.000 HD 
ENDBRANCH  33  43
ENDBRANCH  30  31
ENDBRANCH  29  30
BRANCH  29  46
HETATM   46  C   UNL     1     -11.665  14.171  69.490  1.00  0.00    -0.312 C  
HETATM   47  O   UNL     1     -12.114  12.852  69.280  1.00  0.00    -0.268 OA 
HETATM   48  H   UNL     1     -12.381  12.449  70.096  1.00  0.00     0.000 HD 
BRANCH  46  49
HETATM   49  C   UNL     1     -12.660  15.000  70.335  1.00  0.00    -0.350 C  
HETATM   50  H   UNL     1     -12.596  16.487  71.602  1.00  0.00     0.000 HD 
HETATM   51  O   UNL     1     -11.985  15.978  71.083  1.00  0.00    -0.411 OA 
ENDBRANCH  46  49
ENDBRANCH  29  46
ENDBRANCH  26  29
ENDBRANCH  23  26
ENDBRANCH  21  23
ENDBRANCH  20  21
ENDBRANCH  19  20
ENDBRANCH  18  19
ENDBRANCH  16  18
ENDBRANCH  13  16
ENDBRANCH  10  13
ENDBRANCH   7  10
ENDBRANCH   4   7
ENDBRANCH   2   4
TORSDOF 17
ENDMDL
MODEL       78
REMARK 921   NORMALIZED FREE ENERGY PREDICTED BY IDOCK:   -5.48 KCAL/MOL
REMARK 922        TOTAL FREE ENERGY PREDICTED BY IDOCK:  -14.36 KCAL/MOL
REMARK 923 INTER-LIGAND FREE ENERGY PREDICTED BY IDOCK:  -10.70 KCAL/MOL
REMARK 924 INTRA-LIGAND FREE ENERGY PREDICTED BY IDOCK:   -3.66 KCAL/MOL
REMARK 927      BINDING AFFINITY PREDICTED BY RF-SCORE:    0.00 PKD
ROOT
HETATM    1  O   UNL     1     -10.339  19.261  65.705  1.00  0.00    -0.478 OA 
HETATM    2  C   UNL     1     -10.848  19.815  66.888  1.00  0.00    -0.333 C  
HETATM    3  H   UNL     1     -10.904  19.489  64.976  1.00  0.00     0.000 HD 
ENDROOT
BRANCH   2   4
HETATM    4  C   UNL     1      -9.932  19.446  68.068  1.00  0.00    -0.387 C  
HETATM    5  O   UNL     1     -10.423  20.043  69.242  1.00  0.00    -0.615 OA 
HETATM    6  H   UNL     1      -9.858  19.815  69.970  1.00  0.00     0.000 HD 
BRANCH   4   7
HETATM    7  C   UNL     1      -9.850  17.909  68.266  1.00  0.00    -0.348 C  
HETATM    8  H   UNL     1     -10.888  16.349  67.745  1.00  0.00     0.000 HD 
HETATM    9  O   UNL     1     -10.938  17.290  67.623  1.00  0.00    -0.286 OA 
BRANCH   7  10
HETATM   10  C   UNL     1      -8.529  17.321  67.702  1.00  0.00    -0.209 C  
HETATM   11  H   UNL     1      -7.226  16.016  68.275  1.00  0.00     0.000 HD 
HETATM   12  O   UNL     1      -8.035  16.376  68.620  1.00  0.00    -0.195 OA 
BRANCH  10  13
HETATM   13  C   UNL     1      -7.435  18.394  67.446  1.00  0.00    -0.218 C  
HETATM   14  H   UNL     1      -5.890  19.103  68.386  1.00  0.00     0.000 HD 
HETATM   15  O   UNL     1      -6.560  18.447  68.543  1.00  0.00    -0.220 OA 
BRANCH  13  16
HETATM   16  C   UNL     1      -6.611  18.126  66.208  1.00  0.00    -0.226 C  
HETATM   17  O   UNL     1      -6.717  18.863  65.240  1.00  0.00    -0.436 OA 
BRANCH  16  18
HETATM   18  O   UNL     1      -5.766  17.078  66.147  1.00  0.00    -0.302 OA 
BRANCH  18  19
HETATM   19 CA   UNL     1      -6.209  15.126  67.507  1.00  0.00    -0.105 Ca 
BRANCH  19  20
HETATM   20  O   UNL     1      -6.652  13.174  68.867  1.00  0.00    -0.093 OA 
BRANCH  20  21
HETATM   21  C   UNL     1      -7.557  12.406  68.238  1.00  0.00    -0.131 C  
HETATM   22  O   UNL     1      -8.106  12.864  67.250  1.00  0.00    -0.176 OA 
BRANCH  21  23
HETATM   23  C   UNL     1      -8.022  11.087  68.814  1.00  0.00    -0.144 C  
HETATM   24  H   UNL     1      -7.299   9.756  70.011  1.00  0.00     0.000 HD 
HETATM   25  O   UNL     1      -7.007  10.584  69.648  1.00  0.00    -0.102 OA 
BRANCH  23  26
HETATM   26  C   UNL     1      -8.391  10.007  67.753  1.00  0.00    -0.114 C  
HETATM   27  H   UNL     1      -7.803   8.217  67.291  1.00  0.00     0.000 HD 
HETATM   28  O   UNL     1      -7.578   8.876  67.938  1.00  0.00    -0.092 OA 
BRANCH  26  29
HETATM   29  C   UNL     1      -9.893   9.566  67.666  1.00  0.00    -0.165 C  
BRANCH  29  30
HETATM   30  O   UNL     1     -10.621  10.457  68.499  1.00  0.00    -0.185 OA 
BRANCH  30  31
HETATM   31  C   UNL     1     -11.481  11.359  67.833  1.00  0.00    -0.291 C  
HETATM   32  O   UNL     1     -11.038  11.560  66.501  1.00  0.00    -0.293 OA 
HETATM   33  C   UNL     1     -11.902  12.454  65.814  1.00  0.00    -0.406 C  
HETATM   34  H   UNL     1     -11.813  13.339  70.430  1.00  0.00     0.000 HD 
HETATM   35  C   UNL     1     -11.814  13.869  66.443  1.00  0.00    -0.411 C  
HETATM   36  O   UNL     1     -10.496  14.356  66.380  1.00  0.00    -0.285 OA 
HETATM   37  C   UNL     1     -12.265  13.773  67.915  1.00  0.00    -0.159 C  
HETATM   38  O   UNL     1     -11.846  12.521  69.949  1.00  0.00    -0.325 OA 
HETATM   39  H   UNL     1     -10.443  15.222  66.765  1.00  0.00     0.000 HD 
HETATM   40  O   UNL     1     -12.106  14.998  68.587  1.00  0.00    -0.543 OA 
HETATM   41  C   UNL     1     -11.425  12.694  68.618  1.00  0.00    -0.308 C  
HETATM   42  H   UNL     1     -12.384  14.939  69.494  1.00  0.00     0.000 HD 
BRANCH  33  43
HETATM   43  C   UNL     1     -11.502  12.452  64.330  1.00  0.00    -0.347 C  
HETATM   44  O   UNL     1     -11.868  13.652  63.703  1.00  0.00    -0.669 OA 
HETATM   45  H   UNL     1     -11.620  13.651  62.787  1.00  0.00     0.000 HD 
ENDBRANCH  33  43
ENDBRANCH  30  31
ENDBRANCH  29  30
BRANCH  29  46
HETATM   46  C   UNL     1     -10.189   8.064  68.008  1.00  0.00    -0.210 C  
HETATM   47  O   UNL     1     -11.207   7.549  67.182  1.00  0.00    -0.504 OA 
HETATM   48  H   UNL     1     -11.386   6.640  67.388  1.00  0.00     0.000 HD 
BRANCH  46  49
HETATM   49  C   UNL     1     -10.446   7.771  69.504  1.00  0.00    -0.225 C  
HETATM   50  H   UNL     1     -10.014   6.376  70.803  1.00  0.00     0.000 HD 
HETATM   51  O   UNL     1      -9.855   6.556  69.884  1.00  0.00    -0.165 OA 
ENDBRANCH  46  49
ENDBRANCH  29  46
ENDBRANCH  26  29
ENDBRANCH  23  26
ENDBRANCH  21  23
ENDBRANCH  20  21
ENDBRANCH  19  20
ENDBRANCH  18  19
ENDBRANCH  16  18
ENDBRANCH  13  16
ENDBRANCH  10  13
ENDBRANCH   7  10
ENDBRANCH   4   7
ENDBRANCH   2   4
TORSDOF 17
ENDMDL
MODEL       79
REMARK 921   NORMALIZED FREE ENERGY PREDICTED BY IDOCK:   -5.48 KCAL/MOL
REMARK 922        TOTAL FREE ENERGY PREDICTED BY IDOCK:  -14.36 KCAL/MOL
REMARK 923 INTER-LIGAND FREE ENERGY PREDICTED BY IDOCK:  -12.07 KCAL/MOL
REMARK 924 INTRA-LIGAND FREE ENERGY PREDICTED BY IDOCK:   -2.28 KCAL/MOL
REMARK 927      BINDING AFFINITY PREDICTED BY RF-SCORE:    0.00 PKD
ROOT
HETATM    1  O   UNL     1      -9.039  13.246  68.728  1.00  0.00    -0.385 OA 
HETATM    2  C   UNL     1     -10.094  13.948  68.128  1.00  0.00    -0.250 C  
HETATM    3  H   UNL     1      -9.380  12.675  69.407  1.00  0.00     0.000 HD 
ENDROOT
BRANCH   2   4
HETATM    4  C   UNL     1      -9.542  14.872  67.029  1.00  0.00    -0.238 C  
HETATM    5  O   UNL     1      -9.064  14.091  65.962  1.00  0.00    -0.490 OA 
HETATM    6  H   UNL     1      -8.723  14.661  65.283  1.00  0.00     0.000 HD 
BRANCH   4   7
HETATM    7  C   UNL     1     -10.628  15.850  66.508  1.00  0.00    -0.297 C  
HETATM    8  H   UNL     1     -10.852  17.775  66.350  1.00  0.00     0.000 HD 
HETATM    9  O   UNL     1     -10.187  17.176  66.669  1.00  0.00    -0.302 OA 
BRANCH   7  10
HETATM   10  C   UNL     1     -10.959  15.606  65.012  1.00  0.00    -0.431 C  
HETATM   11  H   UNL     1     -11.397  16.700  63.482  1.00  0.00     0.000 HD 
HETATM   12  O   UNL     1     -11.195  16.850  64.399  1.00  0.00    -1.159 OA 
BRANCH  10  13
HETATM   13  C   UNL     1     -12.198  14.694  64.793  1.00  0.00    -0.394 C  
HETATM   14  H   UNL     1     -13.644  14.545  63.505  1.00  0.00     0.000 HD 
HETATM   15  O   UNL     1     -12.886  15.102  63.639  1.00  0.00    -0.473 OA 
BRANCH  13  16
HETATM   16  C   UNL     1     -11.848  13.234  64.633  1.00  0.00    -0.378 C  
HETATM   17  O   UNL     1     -12.603  12.379  65.069  1.00  0.00    -0.601 OA 
BRANCH  16  18
HETATM   18  O   UNL     1     -10.706  12.854  64.025  1.00  0.00    -0.393 OA 
BRANCH  18  19
HETATM   19 CA   UNL     1      -8.939  11.863  65.348  1.00  0.00    -0.237 Ca 
BRANCH  19  20
HETATM   20  O   UNL     1      -7.172  10.872  66.672  1.00  0.00    -0.124 OA 
BRANCH  20  21
HETATM   21  C   UNL     1      -7.501   9.597  66.945  1.00  0.00    -0.091 C  
HETATM   22  O   UNL     1      -6.678   8.908  67.524  1.00  0.00    -0.064 OA 
BRANCH  21  23
HETATM   23  C   UNL     1      -8.767   8.968  66.410  1.00  0.00    -0.132 C  
HETATM   24  H   UNL     1     -10.008   9.334  64.977  1.00  0.00     0.000 HD 
HETATM   25  O   UNL     1      -9.213   9.729  65.314  1.00  0.00    -0.201 OA 
BRANCH  23  26
HETATM   26  C   UNL     1      -9.924   8.849  67.449  1.00  0.00    -0.209 C  
HETATM   27  H   UNL     1     -11.691   9.610  67.694  1.00  0.00     0.000 HD 
HETATM   28  O   UNL     1     -10.986   9.683  67.061  1.00  0.00    -0.148 OA 
BRANCH  26  29
HETATM   29  C   UNL     1     -10.469   7.412  67.758  1.00  0.00    -0.232 C  
BRANCH  29  30
HETATM   30  O   UNL     1     -10.026   7.088  69.068  1.00  0.00    -0.158 OA 
BRANCH  30  31
HETATM   31  C   UNL     1     -11.042   6.914  70.035  1.00  0.00    -0.299 C  
HETATM   32  O   UNL     1     -11.341   8.152  70.657  1.00  0.00    -0.268 OA 
HETATM   33  C   UNL     1     -12.371   7.995  71.620  1.00  0.00    -0.314 C  
HETATM   34  H   UNL     1      -9.843   4.061  71.132  1.00  0.00     0.000 HD 
HETATM   35  C   UNL     1     -11.873   7.111  72.793  1.00  0.00     0.020 C  
HETATM   36  O   UNL     1     -10.748   7.692  73.406  1.00  0.00    -0.379 OA 
HETATM   37  C   UNL     1     -11.502   5.723  72.231  1.00  0.00    -0.262 C  
HETATM   38  O   UNL     1     -10.177   4.676  70.490  1.00  0.00    -0.223 OA 
HETATM   39  H   UNL     1     -10.443   7.150  74.124  1.00  0.00     0.000 HD 
HETATM   40  O   UNL     1     -10.933   4.898  73.217  1.00  0.00    -0.264 OA 
HETATM   41  C   UNL     1     -10.496   5.911  71.083  1.00  0.00    -0.233 C  
HETATM   42  H   UNL     1     -10.704   4.044  72.870  1.00  0.00     0.000 HD 
BRANCH  33  43
HETATM   43  C   UNL     1     -12.799   9.394  72.089  1.00  0.00    -0.401 C  
HETATM   44  O   UNL     1     -13.891   9.326  72.966  1.00  0.00    -0.905 OA 
HETATM   45  H   UNL     1     -14.155  10.190  73.256  1.00  0.00     0.000 HD 
ENDBRANCH  33  43
ENDBRANCH  30  31
ENDBRANCH  29  30
BRANCH  29  46
HETATM   46  C   UNL     1     -10.096   6.298  66.717  1.00  0.00    -0.180 C  
HETATM   47  O   UNL     1     -11.244   5.604  66.288  1.00  0.00    -0.759 OA 
HETATM   48  H   UNL     1     -11.019   4.930  65.658  1.00  0.00     0.000 HD 
BRANCH  46  49
HETATM   49  C   UNL     1      -8.964   5.342  67.159  1.00  0.00    -0.112 C  
HETATM   50  H   UNL     1      -7.609   4.213  66.315  1.00  0.00     0.000 HD 
HETATM   51  O   UNL     1      -8.304   4.802  66.044  1.00  0.00    -0.111 OA 
ENDBRANCH  46  49
ENDBRANCH  29  46
ENDBRANCH  26  29
ENDBRANCH  23  26
ENDBRANCH  21  23
ENDBRANCH  20  21
ENDBRANCH  19  20
ENDBRANCH  18  19
ENDBRANCH  16  18
ENDBRANCH  13  16
ENDBRANCH  10  13
ENDBRANCH   7  10
ENDBRANCH   4   7
ENDBRANCH   2   4
TORSDOF 17
ENDMDL
MODEL       80
REMARK 921   NORMALIZED FREE ENERGY PREDICTED BY IDOCK:   -5.46 KCAL/MOL
REMARK 922        TOTAL FREE ENERGY PREDICTED BY IDOCK:  -14.33 KCAL/MOL
REMARK 923 INTER-LIGAND FREE ENERGY PREDICTED BY IDOCK:  -11.06 KCAL/MOL
REMARK 924 INTRA-LIGAND FREE ENERGY PREDICTED BY IDOCK:   -3.27 KCAL/MOL
REMARK 927      BINDING AFFINITY PREDICTED BY RF-SCORE:    0.00 PKD
ROOT
HETATM    1  O   UNL     1     -12.241  16.492  72.290  1.00  0.00    -0.555 OA 
HETATM    2  C   UNL     1     -12.046  15.155  71.914  1.00  0.00    -0.378 C  
HETATM    3  H   UNL     1     -11.833  16.649  73.133  1.00  0.00     0.000 HD 
ENDROOT
BRANCH   2   4
HETATM    4  C   UNL     1     -12.706  14.901  70.548  1.00  0.00    -0.347 C  
HETATM    5  O   UNL     1     -13.947  15.560  70.502  1.00  0.00    -0.775 OA 
HETATM    6  H   UNL     1     -14.355  15.402  69.658  1.00  0.00     0.000 HD 
BRANCH   4   7
HETATM    7  C   UNL     1     -11.813  15.398  69.381  1.00  0.00    -0.351 C  
HETATM    8  H   UNL     1     -10.052  16.198  69.178  1.00  0.00     0.000 HD 
HETATM    9  O   UNL     1     -10.599  15.893  69.892  1.00  0.00    -0.286 OA 
BRANCH   7  10
HETATM   10  C   UNL     1     -11.508  14.269  68.361  1.00  0.00    -0.301 C  
HETATM   11  H   UNL     1     -10.000  13.138  67.940  1.00  0.00     0.000 HD 
HETATM   12  O   UNL     1     -10.187  13.830  68.564  1.00  0.00    -0.233 OA 
BRANCH  10  13
HETATM   13  C   UNL     1     -11.669  14.712  66.881  1.00  0.00    -0.350 C  
HETATM   14  H   UNL     1     -10.503  15.233  65.418  1.00  0.00     0.000 HD 
HETATM   15  O   UNL     1     -10.405  14.962  66.323  1.00  0.00    -0.275 OA 
BRANCH  13  16
HETATM   16  C   UNL     1     -12.362  13.684  66.019  1.00  0.00    -0.445 C  
HETATM   17  O   UNL     1     -13.100  14.048  65.117  1.00  0.00    -0.776 OA 
BRANCH  16  18
HETATM   18  O   UNL     1     -12.188  12.364  66.233  1.00  0.00    -0.620 OA 
BRANCH  18  19
HETATM   19 CA   UNL     1      -9.941  11.484  66.417  1.00  0.00    -0.188 Ca 
BRANCH  19  20
HETATM   20  O   UNL     1      -7.694  10.606  66.602  1.00  0.00    -0.119 OA 
BRANCH  20  21
HETATM   21  C   UNL     1      -7.599   9.501  65.842  1.00  0.00    -0.100 C  
HETATM   22  O   UNL     1      -6.658   9.418  65.071  1.00  0.00    -0.079 OA 
BRANCH  21  23
HETATM   23  C   UNL     1      -8.701   8.466  65.798  1.00  0.00    -0.169 C  
HETATM   24  H   UNL     1     -10.580   8.411  66.234  1.00  0.00     0.000 HD 
HETATM   25  O   UNL     1      -9.888   9.061  66.261  1.00  0.00    -0.258 OA 
BRANCH  23  26
HETATM   26  C   UNL     1      -8.418   7.180  66.633  1.00  0.00    -0.121 C  
HETATM   27  H   UNL     1      -7.420   6.720  68.231  1.00  0.00     0.000 HD 
HETATM   28  O   UNL     1      -7.592   7.504  67.722  1.00  0.00    -0.101 OA 
BRANCH  26  29
HETATM   29  C   UNL     1      -9.657   6.363  67.138  1.00  0.00    -0.134 C  
BRANCH  29  30
HETATM   30  O   UNL     1      -9.562   6.324  68.554  1.00  0.00    -0.126 OA 
BRANCH  30  31
HETATM   31  C   UNL     1     -10.603   6.971  69.259  1.00  0.00    -0.224 C  
HETATM   32  O   UNL     1     -10.357   8.366  69.317  1.00  0.00    -0.209 OA 
HETATM   33  C   UNL     1     -11.403   9.031  70.010  1.00  0.00    -0.058 C  
HETATM   34  H   UNL     1     -10.851   4.619  71.535  1.00  0.00     0.000 HD 
HETATM   35  C   UNL     1     -11.413   8.602  71.500  1.00  0.00    -0.295 C  
HETATM   36  O   UNL     1     -10.183   8.908  72.110  1.00  0.00    -0.321 OA 
HETATM   37  C   UNL     1     -11.663   7.081  71.564  1.00  0.00    -0.300 C  
HETATM   38  O   UNL     1     -10.843   4.985  70.660  1.00  0.00    -0.074 OA 
HETATM   39  H   UNL     1     -10.190   8.645  73.023  1.00  0.00     0.000 HD 
HETATM   40  O   UNL     1     -11.573   6.595  72.881  1.00  0.00    -0.478 OA 
HETATM   41  C   UNL     1     -10.615   6.373  70.688  1.00  0.00    -0.237 C  
HETATM   42  H   UNL     1     -11.727   5.658  72.920  1.00  0.00     0.000 HD 
BRANCH  33  43
HETATM   43  C   UNL     1     -11.193  10.544  69.843  1.00  0.00    -0.307 C  
HETATM   44  O   UNL     1     -10.995  10.887  68.498  1.00  0.00    -0.195 OA 
HETATM   45  H   UNL     1     -10.866  11.821  68.395  1.00  0.00     0.000 HD 
ENDBRANCH  33  43
ENDBRANCH  30  31
ENDBRANCH  29  30
BRANCH  29  46
HETATM   46  C   UNL     1      -9.834   4.932  66.518  1.00  0.00    -0.207 C  
HETATM   47  O   UNL     1     -11.094   4.800  65.902  1.00  0.00    -0.738 OA 
HETATM   48  H   UNL     1     -11.201   3.935  65.528  1.00  0.00     0.000 HD 
BRANCH  46  49
HETATM   49  C   UNL     1      -9.528   3.760  67.480  1.00  0.00    -0.191 C  
HETATM   50  H   UNL     1      -8.835   1.936  67.367  1.00  0.00     0.000 HD 
HETATM   51  O   UNL     1      -9.023   2.656  66.776  1.00  0.00    -0.135 OA 
ENDBRANCH  46  49
ENDBRANCH  29  46
ENDBRANCH  26  29
ENDBRANCH  23  26
ENDBRANCH  21  23
ENDBRANCH  20  21
ENDBRANCH  19  20
ENDBRANCH  18  19
ENDBRANCH  16  18
ENDBRANCH  13  16
ENDBRANCH  10  13
ENDBRANCH   7  10
ENDBRANCH   4   7
ENDBRANCH   2   4
TORSDOF 17
ENDMDL
MODEL       81
REMARK 921   NORMALIZED FREE ENERGY PREDICTED BY IDOCK:   -5.46 KCAL/MOL
REMARK 922        TOTAL FREE ENERGY PREDICTED BY IDOCK:  -14.32 KCAL/MOL
REMARK 923 INTER-LIGAND FREE ENERGY PREDICTED BY IDOCK:  -10.77 KCAL/MOL
REMARK 924 INTRA-LIGAND FREE ENERGY PREDICTED BY IDOCK:   -3.55 KCAL/MOL
REMARK 927      BINDING AFFINITY PREDICTED BY RF-SCORE:    0.00 PKD
ROOT
HETATM    1  O   UNL     1     -11.001  11.091  63.736  1.00  0.00    -0.543 OA 
HETATM    2  C   UNL     1     -11.966  12.030  63.347  1.00  0.00    -0.471 C  
HETATM    3  H   UNL     1     -11.114  10.291  63.237  1.00  0.00     0.000 HD 
ENDROOT
BRANCH   2   4
HETATM    4  C   UNL     1     -11.783  13.326  64.156  1.00  0.00    -0.420 C  
HETATM    5  O   UNL     1     -12.372  14.395  63.460  1.00  0.00    -1.091 OA 
HETATM    6  H   UNL     1     -12.259  15.195  63.959  1.00  0.00     0.000 HD 
BRANCH   4   7
HETATM    7  C   UNL     1     -12.421  13.212  65.565  1.00  0.00    -0.458 C  
HETATM    8  H   UNL     1     -12.543  11.872  66.969  1.00  0.00     0.000 HD 
HETATM    9  O   UNL     1     -12.152  11.941  66.106  1.00  0.00    -0.519 OA 
BRANCH   7  10
HETATM   10  C   UNL     1     -11.883  14.298  66.535  1.00  0.00    -0.415 C  
HETATM   11  H   UNL     1     -10.468  15.613  66.512  1.00  0.00     0.000 HD 
HETATM   12  O   UNL     1     -10.798  14.948  65.918  1.00  0.00    -0.315 OA 
BRANCH  10  13
HETATM   13  C   UNL     1     -11.416  13.729  67.903  1.00  0.00    -0.314 C  
HETATM   14  H   UNL     1      -9.729  13.296  68.763  1.00  0.00     0.000 HD 
HETATM   15  O   UNL     1     -10.014  13.644  67.926  1.00  0.00    -0.231 OA 
BRANCH  13  16
HETATM   16  C   UNL     1     -11.849  14.569  69.082  1.00  0.00    -0.319 C  
HETATM   17  O   UNL     1     -12.185  15.730  68.906  1.00  0.00    -0.258 OA 
BRANCH  16  18
HETATM   18  O   UNL     1     -11.863  14.062  70.331  1.00  0.00    -0.302 OA 
BRANCH  18  19
HETATM   19 CA   UNL     1     -12.392  11.722  70.648  1.00  0.00    -0.258 Ca 
BRANCH  19  20
HETATM   20  O   UNL     1     -12.921   9.382  70.965  1.00  0.00    -0.269 OA 
BRANCH  20  21
HETATM   21  C   UNL     1     -11.794   8.725  71.290  1.00  0.00    -0.303 C  
HETATM   22  O   UNL     1     -11.188   9.089  72.284  1.00  0.00    -0.306 OA 
BRANCH  21  23
HETATM   23  C   UNL     1     -11.186   7.686  70.376  1.00  0.00    -0.244 C  
HETATM   24  H   UNL     1     -11.584   5.864  69.876  1.00  0.00     0.000 HD 
HETATM   25  O   UNL     1     -11.966   6.517  70.451  1.00  0.00    -0.397 OA 
BRANCH  23  26
HETATM   26  C   UNL     1      -9.702   7.328  70.695  1.00  0.00    -0.175 C  
HETATM   27  H   UNL     1      -8.511   5.828  70.390  1.00  0.00     0.000 HD 
HETATM   28  O   UNL     1      -9.415   6.046  70.196  1.00  0.00    -0.155 OA 
BRANCH  26  29
HETATM   29  C   UNL     1      -8.600   8.336  70.220  1.00  0.00    -0.127 C  
BRANCH  29  30
HETATM   30  O   UNL     1      -7.669   7.583  69.457  1.00  0.00    -0.099 OA 
BRANCH  30  31
HETATM   31  C   UNL     1      -7.404   8.069  68.156  1.00  0.00    -0.096 C  
HETATM   32  O   UNL     1      -7.928   9.378  68.008  1.00  0.00    -0.092 OA 
HETATM   33  C   UNL     1      -7.655   9.884  66.710  1.00  0.00    -0.095 C  
HETATM   34  H   UNL     1      -8.037   5.199  66.694  1.00  0.00     0.000 HD 
HETATM   35  C   UNL     1      -8.426   9.062  65.644  1.00  0.00    -0.150 C  
HETATM   36  O   UNL     1      -9.811   9.119  65.884  1.00  0.00    -0.318 OA 
HETATM   37  C   UNL     1      -7.943   7.599  65.719  1.00  0.00    -0.116 C  
HETATM   38  O   UNL     1      -7.609   5.791  67.301  1.00  0.00    -0.093 OA 
HETATM   39  H   UNL     1     -10.283   8.615  65.231  1.00  0.00     0.000 HD 
HETATM   40  O   UNL     1      -8.679   6.765  64.858  1.00  0.00    -0.354 OA 
HETATM   41  C   UNL     1      -8.101   7.102  67.166  1.00  0.00    -0.114 C  
HETATM   42  H   UNL     1      -8.381   5.864  64.904  1.00  0.00     0.000 HD 
BRANCH  33  43
HETATM   43  C   UNL     1      -8.045  11.370  66.690  1.00  0.00    -0.155 C  
HETATM   44  O   UNL     1      -8.879  11.663  65.601  1.00  0.00    -0.388 OA 
HETATM   45  H   UNL     1      -9.121  12.582  65.589  1.00  0.00     0.000 HD 
ENDBRANCH  33  43
ENDBRANCH  30  31
ENDBRANCH  29  30
BRANCH  29  46
HETATM   46  C   UNL     1      -7.900   9.170  71.350  1.00  0.00     0.051 C  
HETATM   47  O   UNL     1      -7.217  10.278  70.810  1.00  0.00    -0.415 OA 
HETATM   48  H   UNL     1      -6.793  10.783  71.494  1.00  0.00     0.000 HD 
BRANCH  46  49
HETATM   49  C   UNL     1      -7.013   8.350  72.314  1.00  0.00    -0.090 C  
HETATM   50  H   UNL     1      -6.418   8.448  74.174  1.00  0.00     0.000 HD 
HETATM   51  O   UNL     1      -6.963   8.953  73.581  1.00  0.00    -0.353 OA 
ENDBRANCH  46  49
ENDBRANCH  29  46
ENDBRANCH  26  29
ENDBRANCH  23  26
ENDBRANCH  21  23
ENDBRANCH  20  21
ENDBRANCH  19  20
ENDBRANCH  18  19
ENDBRANCH  16  18
ENDBRANCH  13  16
ENDBRANCH  10  13
ENDBRANCH   7  10
ENDBRANCH   4   7
ENDBRANCH   2   4
TORSDOF 17
ENDMDL
MODEL       82
REMARK 921   NORMALIZED FREE ENERGY PREDICTED BY IDOCK:   -5.45 KCAL/MOL
REMARK 922        TOTAL FREE ENERGY PREDICTED BY IDOCK:  -14.31 KCAL/MOL
REMARK 923 INTER-LIGAND FREE ENERGY PREDICTED BY IDOCK:  -10.45 KCAL/MOL
REMARK 924 INTRA-LIGAND FREE ENERGY PREDICTED BY IDOCK:   -3.87 KCAL/MOL
REMARK 927      BINDING AFFINITY PREDICTED BY RF-SCORE:    0.00 PKD
ROOT
HETATM    1  O   UNL     1      -9.912  13.147  69.076  1.00  0.00    -0.418 OA 
HETATM    2  C   UNL     1     -10.025  14.484  68.671  1.00  0.00    -0.237 C  
HETATM    3  H   UNL     1      -9.031  12.835  68.904  1.00  0.00     0.000 HD 
ENDROOT
BRANCH   2   4
HETATM    4  C   UNL     1     -11.451  14.989  68.948  1.00  0.00    -0.314 C  
HETATM    5  O   UNL     1     -12.378  14.101  68.376  1.00  0.00    -0.559 OA 
HETATM    6  H   UNL     1     -13.259  14.413  68.548  1.00  0.00     0.000 HD 
BRANCH   4   7
HETATM    7  C   UNL     1     -11.726  15.113  70.470  1.00  0.00    -0.302 C  
HETATM    8  H   UNL     1     -11.768  16.533  71.798  1.00  0.00     0.000 HD 
HETATM    9  O   UNL     1     -11.600  16.458  70.866  1.00  0.00    -0.358 OA 
BRANCH   7  10
HETATM   10  C   UNL     1     -13.144  14.607  70.847  1.00  0.00    -0.358 C  
HETATM   11  H   UNL     1     -14.798  15.405  71.445  1.00  0.00     0.000 HD 
HETATM   12  O   UNL     1     -13.930  15.715  71.215  1.00  0.00    -0.570 OA 
BRANCH  10  13
HETATM   13  C   UNL     1     -13.144  13.581  72.014  1.00  0.00    -0.387 C  
HETATM   14  H   UNL     1     -14.368  13.019  73.414  1.00  0.00     0.000 HD 
HETATM   15  O   UNL     1     -14.368  13.647  72.700  1.00  0.00    -0.703 OA 
BRANCH  13  16
HETATM   16  C   UNL     1     -12.944  12.155  71.559  1.00  0.00    -0.295 C  
HETATM   17  O   UNL     1     -13.559  11.253  72.106  1.00  0.00    -0.288 OA 
BRANCH  16  18
HETATM   18  O   UNL     1     -12.085  11.856  70.564  1.00  0.00    -0.366 OA 
BRANCH  18  19
HETATM   19 CA   UNL     1     -10.265  10.321  70.998  1.00  0.00    -0.259 Ca 
BRANCH  19  20
HETATM   20  O   UNL     1      -8.445   8.787  71.433  1.00  0.00    -0.172 OA 
BRANCH  20  21
HETATM   21  C   UNL     1      -7.588   8.830  70.399  1.00  0.00    -0.082 C  
HETATM   22  O   UNL     1      -6.400   8.953  70.647  1.00  0.00    -0.037 OA 
BRANCH  21  23
HETATM   23  C   UNL     1      -8.069   8.902  68.967  1.00  0.00    -0.115 C  
HETATM   24  H   UNL     1      -9.646   9.542  68.057  1.00  0.00     0.000 HD 
HETATM   25  O   UNL     1      -9.344   9.497  68.956  1.00  0.00    -0.147 OA 
BRANCH  23  26
HETATM   26  C   UNL     1      -8.143   7.527  68.236  1.00  0.00    -0.124 C  
HETATM   27  H   UNL     1      -7.242   5.814  68.347  1.00  0.00     0.000 HD 
HETATM   28  O   UNL     1      -7.196   6.652  68.793  1.00  0.00    -0.079 OA 
BRANCH  26  29
HETATM   29  C   UNL     1      -9.540   6.820  68.173  1.00  0.00    -0.122 C  
BRANCH  29  30
HETATM   30  O   UNL     1      -9.439   5.658  68.983  1.00  0.00    -0.120 OA 
BRANCH  30  31
HETATM   31  C   UNL     1     -10.403   5.537  70.009  1.00  0.00    -0.288 C  
HETATM   32  O   UNL     1     -10.969   6.804  70.298  1.00  0.00    -0.254 OA 
HETATM   33  C   UNL     1     -11.951   6.695  71.317  1.00  0.00    -0.355 C  
HETATM   34  H   UNL     1      -8.628   3.399  71.757  1.00  0.00     0.000 HD 
HETATM   35  C   UNL     1     -11.287   6.281  72.656  1.00  0.00    -0.247 C  
HETATM   36  O   UNL     1     -10.320   7.228  73.040  1.00  0.00    -0.228 OA 
HETATM   37  C   UNL     1     -10.618   4.904  72.459  1.00  0.00    -0.210 C  
HETATM   38  O   UNL     1      -9.080   3.735  70.993  1.00  0.00    -0.095 OA 
HETATM   39  H   UNL     1      -9.913   6.974  73.860  1.00  0.00     0.000 HD 
HETATM   40  O   UNL     1      -9.895   4.511  73.599  1.00  0.00    -0.129 OA 
HETATM   41  C   UNL     1      -9.665   4.988  71.255  1.00  0.00    -0.173 C  
HETATM   42  H   UNL     1      -9.484   3.663  73.478  1.00  0.00     0.000 HD 
BRANCH  33  43
HETATM   43  C   UNL     1     -12.676   8.046  71.423  1.00  0.00    -0.280 C  
HETATM   44  O   UNL     1     -12.149   8.979  70.519  1.00  0.00    -0.475 OA 
HETATM   45  H   UNL     1     -12.597   9.814  70.584  1.00  0.00     0.000 HD 
ENDBRANCH  33  43
ENDBRANCH  30  31
ENDBRANCH  29  30
BRANCH  29  46
HETATM   46  C   UNL     1     -10.080   6.492  66.736  1.00  0.00    -0.176 C  
HETATM   47  O   UNL     1     -11.482   6.361  66.741  1.00  0.00    -0.733 OA 
HETATM   48  H   UNL     1     -11.809   6.163  65.872  1.00  0.00     0.000 HD 
BRANCH  46  49
HETATM   49  C   UNL     1      -9.383   5.306  66.030  1.00  0.00    -0.158 C  
HETATM   50  H   UNL     1      -9.885   3.577  65.267  1.00  0.00     0.000 HD 
HETATM   51  O   UNL     1     -10.312   4.307  65.701  1.00  0.00    -0.235 OA 
ENDBRANCH  46  49
ENDBRANCH  29  46
ENDBRANCH  26  29
ENDBRANCH  23  26
ENDBRANCH  21  23
ENDBRANCH  20  21
ENDBRANCH  19  20
ENDBRANCH  18  19
ENDBRANCH  16  18
ENDBRANCH  13  16
ENDBRANCH  10  13
ENDBRANCH   7  10
ENDBRANCH   4   7
ENDBRANCH   2   4
TORSDOF 17
ENDMDL
MODEL       83
REMARK 921   NORMALIZED FREE ENERGY PREDICTED BY IDOCK:   -5.44 KCAL/MOL
REMARK 922        TOTAL FREE ENERGY PREDICTED BY IDOCK:  -14.30 KCAL/MOL
REMARK 923 INTER-LIGAND FREE ENERGY PREDICTED BY IDOCK:  -11.61 KCAL/MOL
REMARK 924 INTRA-LIGAND FREE ENERGY PREDICTED BY IDOCK:   -2.69 KCAL/MOL
REMARK 927      BINDING AFFINITY PREDICTED BY RF-SCORE:    0.00 PKD
ROOT
HETATM    1  O   UNL     1      -6.270  11.695  70.744  1.00  0.00    -0.511 OA 
HETATM    2  C   UNL     1      -6.538  10.478  70.103  1.00  0.00    -0.149 C  
HETATM    3  H   UNL     1      -5.350  11.737  70.979  1.00  0.00     0.000 HD 
ENDROOT
BRANCH   2   4
HETATM    4  C   UNL     1      -8.027  10.410  69.723  1.00  0.00    -0.067 C  
HETATM    5  O   UNL     1      -8.143  10.171  68.342  1.00  0.00    -0.100 OA 
HETATM    6  H   UNL     1      -9.063  10.129  68.108  1.00  0.00     0.000 HD 
BRANCH   4   7
HETATM    7  C   UNL     1      -8.765   9.292  70.505  1.00  0.00    -0.236 C  
HETATM    8  H   UNL     1      -8.657   8.479  72.268  1.00  0.00     0.000 HD 
HETATM    9  O   UNL     1      -8.205   9.163  71.789  1.00  0.00    -0.340 OA 
BRANCH   7  10
HETATM   10  C   UNL     1     -10.283   9.586  70.644  1.00  0.00    -0.297 C  
HETATM   11  H   UNL     1     -11.672   9.179  71.922  1.00  0.00     0.000 HD 
HETATM   12  O   UNL     1     -10.743   8.999  71.837  1.00  0.00    -0.347 OA 
BRANCH  10  13
HETATM   13  C   UNL     1     -11.128   9.044  69.458  1.00  0.00    -0.024 C  
HETATM   14  H   UNL     1     -11.663   9.657  67.695  1.00  0.00     0.000 HD 
HETATM   15  O   UNL     1     -11.146   9.989  68.420  1.00  0.00    -0.237 OA 
BRANCH  13  16
HETATM   16  C   UNL     1     -10.606   7.744  68.894  1.00  0.00    -0.150 C  
HETATM   17  O   UNL     1     -10.943   6.685  69.400  1.00  0.00    -0.265 OA 
BRANCH  16  18
HETATM   18  O   UNL     1      -9.762   7.730  67.843  1.00  0.00    -0.146 OA 
BRANCH  18  19
HETATM   19 CA   UNL     1      -9.712   9.631  66.346  1.00  0.00    -0.146 Ca 
BRANCH  19  20
HETATM   20  O   UNL     1      -9.661  11.533  64.851  1.00  0.00    -0.245 OA 
BRANCH  20  21
HETATM   21  C   UNL     1     -10.897  11.729  64.360  1.00  0.00    -0.334 C  
HETATM   22  O   UNL     1     -11.170  11.227  63.283  1.00  0.00    -0.238 OA 
BRANCH  21  23
HETATM   23  C   UNL     1     -11.874  12.680  65.016  1.00  0.00    -0.395 C  
HETATM   24  H   UNL     1     -13.775  13.002  64.933  1.00  0.00     0.000 HD 
HETATM   25  O   UNL     1     -13.162  12.406  64.521  1.00  0.00    -0.834 OA 
BRANCH  23  26
HETATM   26  C   UNL     1     -11.556  14.190  64.798  1.00  0.00    -0.396 C  
HETATM   27  H   UNL     1     -12.452  15.729  64.030  1.00  0.00     0.000 HD 
HETATM   28  O   UNL     1     -12.646  14.808  64.162  1.00  0.00    -0.784 OA 
BRANCH  26  29
HETATM   29  C   UNL     1     -11.139  15.027  66.057  1.00  0.00    -0.329 C  
BRANCH  29  30
HETATM   30  O   UNL     1      -9.768  15.355  65.884  1.00  0.00    -0.311 OA 
BRANCH  30  31
HETATM   31  C   UNL     1      -9.302  16.463  66.628  1.00  0.00    -0.259 C  
HETATM   32  O   UNL     1      -9.810  17.667  66.079  1.00  0.00    -0.478 OA 
HETATM   33  C   UNL     1      -9.362  18.788  66.827  1.00  0.00    -0.318 C  
HETATM   34  H   UNL     1      -6.276  15.246  67.003  1.00  0.00     0.000 HD 
HETATM   35  C   UNL     1      -7.826  18.945  66.684  1.00  0.00    -0.259 C  
HETATM   36  O   UNL     1      -7.471  19.113  65.333  1.00  0.00    -0.436 OA 
HETATM   37  C   UNL     1      -7.156  17.673  67.244  1.00  0.00    -0.177 C  
HETATM   38  O   UNL     1      -7.224  15.256  67.060  1.00  0.00    -0.171 OA 
HETATM   39  H   UNL     1      -6.530  19.209  65.246  1.00  0.00     0.000 HD 
HETATM   40  O   UNL     1      -5.763  17.689  67.046  1.00  0.00    -0.127 OA 
HETATM   41  C   UNL     1      -7.756  16.447  66.534  1.00  0.00    -0.260 C  
HETATM   42  H   UNL     1      -5.351  16.907  67.391  1.00  0.00     0.000 HD 
BRANCH  33  43
HETATM   43  C   UNL     1     -10.121  20.026  66.324  1.00  0.00    -0.486 C  
HETATM   44  O   UNL     1     -11.025  19.691  65.305  1.00  0.00    -0.422 OA 
HETATM   45  H   UNL     1     -11.493  20.456  64.995  1.00  0.00     0.000 HD 
ENDBRANCH  33  43
ENDBRANCH  30  31
ENDBRANCH  29  30
BRANCH  29  46
HETATM   46  C   UNL     1     -11.414  14.356  67.449  1.00  0.00    -0.358 C  
HETATM   47  O   UNL     1     -12.326  15.118  68.206  1.00  0.00    -0.538 OA 
HETATM   48  H   UNL     1     -12.493  14.712  69.047  1.00  0.00     0.000 HD 
BRANCH  46  49
HETATM   49  C   UNL     1     -10.149  13.985  68.258  1.00  0.00    -0.246 C  
HETATM   50  H   UNL     1      -8.869  12.510  68.350  1.00  0.00     0.000 HD 
HETATM   51  O   UNL     1      -9.646  12.739  67.853  1.00  0.00    -0.198 OA 
ENDBRANCH  46  49
ENDBRANCH  29  46
ENDBRANCH  26  29
ENDBRANCH  23  26
ENDBRANCH  21  23
ENDBRANCH  20  21
ENDBRANCH  19  20
ENDBRANCH  18  19
ENDBRANCH  16  18
ENDBRANCH  13  16
ENDBRANCH  10  13
ENDBRANCH   7  10
ENDBRANCH   4   7
ENDBRANCH   2   4
TORSDOF 17
ENDMDL
MODEL       84
REMARK 921   NORMALIZED FREE ENERGY PREDICTED BY IDOCK:   -5.44 KCAL/MOL
REMARK 922        TOTAL FREE ENERGY PREDICTED BY IDOCK:  -14.29 KCAL/MOL
REMARK 923 INTER-LIGAND FREE ENERGY PREDICTED BY IDOCK:  -11.82 KCAL/MOL
REMARK 924 INTRA-LIGAND FREE ENERGY PREDICTED BY IDOCK:   -2.47 KCAL/MOL
REMARK 927      BINDING AFFINITY PREDICTED BY RF-SCORE:    0.00 PKD
ROOT
HETATM    1  O   UNL     1      -5.284  17.646  68.999  1.00  0.00    -0.164 OA 
HETATM    2  C   UNL     1      -5.902  18.520  69.903  1.00  0.00    -0.236 C  
HETATM    3  H   UNL     1      -4.729  17.036  69.472  1.00  0.00     0.000 HD 
ENDROOT
BRANCH   2   4
HETATM    4  C   UNL     1      -6.799  19.507  69.137  1.00  0.00    -0.346 C  
HETATM    5  O   UNL     1      -5.994  20.375  68.379  1.00  0.00    -0.252 OA 
HETATM    6  H   UNL     1      -6.548  20.984  67.906  1.00  0.00     0.000 HD 
BRANCH   4   7
HETATM    7  C   UNL     1      -7.789  18.767  68.198  1.00  0.00    -0.288 C  
HETATM    8  H   UNL     1      -8.748  17.076  68.188  1.00  0.00     0.000 HD 
HETATM    9  O   UNL     1      -8.142  17.529  68.764  1.00  0.00    -0.275 OA 
BRANCH   7  10
HETATM   10  C   UNL     1      -9.078  19.594  67.946  1.00  0.00    -0.327 C  
HETATM   11  H   UNL     1     -10.968  19.367  68.274  1.00  0.00     0.000 HD 
HETATM   12  O   UNL     1     -10.178  18.861  68.428  1.00  0.00    -0.378 OA 
BRANCH  10  13
HETATM   13  C   UNL     1      -9.314  19.931  66.448  1.00  0.00    -0.397 C  
HETATM   14  H   UNL     1      -8.224  20.275  64.878  1.00  0.00     0.000 HD 
HETATM   15  O   UNL     1      -8.079  20.069  65.795  1.00  0.00    -0.310 OA 
BRANCH  13  16
HETATM   16  C   UNL     1     -10.112  18.878  65.715  1.00  0.00    -0.052 C  
HETATM   17  O   UNL     1     -11.123  19.198  65.109  1.00  0.00    -0.387 OA 
BRANCH  16  18
HETATM   18  O   UNL     1      -9.734  17.584  65.727  1.00  0.00    -0.534 OA 
BRANCH  18  19
HETATM   19 CA   UNL     1     -11.164  15.929  64.692  1.00  0.00    -0.330 Ca 
BRANCH  19  20
HETATM   20  O   UNL     1     -12.594  14.273  63.659  1.00  0.00    -0.831 OA 
BRANCH  20  21
HETATM   21  C   UNL     1     -12.070  13.054  63.875  1.00  0.00    -0.471 C  
HETATM   22  O   UNL     1     -12.690  12.086  63.468  1.00  0.00    -0.688 OA 
BRANCH  21  23
HETATM   23  C   UNL     1     -10.848  12.855  64.743  1.00  0.00    -0.327 C  
HETATM   24  H   UNL     1      -9.498  11.492  64.959  1.00  0.00     0.000 HD 
HETATM   25  O   UNL     1     -10.266  11.617  64.414  1.00  0.00    -0.264 OA 
BRANCH  23  26
HETATM   26  C   UNL     1     -11.126  12.894  66.276  1.00  0.00    -0.288 C  
HETATM   27  H   UNL     1     -12.329  12.020  67.520  1.00  0.00     0.000 HD 
HETATM   28  O   UNL     1     -12.160  11.996  66.586  1.00  0.00    -0.615 OA 
BRANCH  26  29
HETATM   29  C   UNL     1      -9.909  12.647  67.234  1.00  0.00    -0.206 C  
BRANCH  29  30
HETATM   30  O   UNL     1     -10.436  12.032  68.401  1.00  0.00    -0.206 OA 
BRANCH  30  31
HETATM   31  C   UNL     1      -9.908  10.760  68.719  1.00  0.00    -0.194 C  
HETATM   32  O   UNL     1      -9.515  10.086  67.535  1.00  0.00    -0.146 OA 
HETATM   33  C   UNL     1      -8.967   8.812  67.841  1.00  0.00    -0.140 C  
HETATM   34  H   UNL     1     -12.146  10.141  71.039  1.00  0.00     0.000 HD 
HETATM   35  C   UNL     1     -10.063   7.890  68.437  1.00  0.00    -0.194 C  
HETATM   36  O   UNL     1     -11.125   7.734  67.528  1.00  0.00    -0.519 OA 
HETATM   37  C   UNL     1     -10.582   8.534  69.739  1.00  0.00    -0.224 C  
HETATM   38  O   UNL     1     -11.456  10.625  70.603  1.00  0.00    -0.324 OA 
HETATM   39  H   UNL     1     -11.795   7.169  67.893  1.00  0.00     0.000 HD 
HETATM   40  O   UNL     1     -11.661   7.812  70.281  1.00  0.00    -0.458 OA 
HETATM   41  C   UNL     1     -11.036   9.971  69.430  1.00  0.00    -0.244 C  
HETATM   42  H   UNL     1     -11.980   8.209  71.083  1.00  0.00     0.000 HD 
BRANCH  33  43
HETATM   43  C   UNL     1      -8.362   8.235  66.552  1.00  0.00    -0.112 C  
HETATM   44  O   UNL     1      -9.202   8.455  65.451  1.00  0.00    -0.406 OA 
HETATM   45  H   UNL     1      -8.828   8.099  64.655  1.00  0.00     0.000 HD 
ENDBRANCH  33  43
ENDBRANCH  30  31
ENDBRANCH  29  30
BRANCH  29  46
HETATM   46  C   UNL     1      -9.036  13.905  67.574  1.00  0.00    -0.197 C  
HETATM   47  O   UNL     1      -9.399  15.004  66.771  1.00  0.00    -0.223 OA 
HETATM   48  H   UNL     1      -8.871  15.765  66.977  1.00  0.00     0.000 HD 
BRANCH  46  49
HETATM   49  C   UNL     1      -7.509  13.661  67.575  1.00  0.00    -0.170 C  
HETATM   50  H   UNL     1      -6.124  13.151  68.857  1.00  0.00     0.000 HD 
HETATM   51  O   UNL     1      -7.062  13.301  68.856  1.00  0.00    -0.103 OA 
ENDBRANCH  46  49
ENDBRANCH  29  46
ENDBRANCH  26  29
ENDBRANCH  23  26
ENDBRANCH  21  23
ENDBRANCH  20  21
ENDBRANCH  19  20
ENDBRANCH  18  19
ENDBRANCH  16  18
ENDBRANCH  13  16
ENDBRANCH  10  13
ENDBRANCH   7  10
ENDBRANCH   4   7
ENDBRANCH   2   4
TORSDOF 17
ENDMDL
MODEL       85
REMARK 921   NORMALIZED FREE ENERGY PREDICTED BY IDOCK:   -5.44 KCAL/MOL
REMARK 922        TOTAL FREE ENERGY PREDICTED BY IDOCK:  -14.28 KCAL/MOL
REMARK 923 INTER-LIGAND FREE ENERGY PREDICTED BY IDOCK:  -10.55 KCAL/MOL
REMARK 924 INTRA-LIGAND FREE ENERGY PREDICTED BY IDOCK:   -3.73 KCAL/MOL
REMARK 927      BINDING AFFINITY PREDICTED BY RF-SCORE:    0.00 PKD
ROOT
HETATM    1  O   UNL     1     -10.219   6.624  66.247  1.00  0.00    -0.431 OA 
HETATM    2  C   UNL     1     -10.556   5.442  66.922  1.00  0.00    -0.250 C  
HETATM    3  H   UNL     1     -10.882   6.819  65.594  1.00  0.00     0.000 HD 
ENDROOT
BRANCH   2   4
HETATM    4  C   UNL     1      -9.483   5.126  67.977  1.00  0.00    -0.127 C  
HETATM    5  O   UNL     1      -8.588   6.206  68.068  1.00  0.00    -0.116 OA 
HETATM    6  H   UNL     1      -7.925   6.011  68.720  1.00  0.00     0.000 HD 
BRANCH   4   7
HETATM    7  C   UNL     1     -10.114   4.860  69.369  1.00  0.00    -0.200 C  
HETATM    8  H   UNL     1      -9.530   4.158  71.086  1.00  0.00     0.000 HD 
HETATM    9  O   UNL     1      -9.143   4.321  70.234  1.00  0.00    -0.085 OA 
BRANCH   7  10
HETATM   10  C   UNL     1     -10.692   6.154  70.002  1.00  0.00    -0.305 C  
HETATM   11  H   UNL     1     -11.254   7.888  69.364  1.00  0.00     0.000 HD 
HETATM   12  O   UNL     1     -10.900   7.096  68.977  1.00  0.00    -0.209 OA 
BRANCH  10  13
HETATM   13  C   UNL     1      -9.767   6.781  71.081  1.00  0.00    -0.174 C  
HETATM   14  H   UNL     1      -8.346   8.104  71.142  1.00  0.00     0.000 HD 
HETATM   15  O   UNL     1      -8.912   7.720  70.482  1.00  0.00    -0.147 OA 
BRANCH  13  16
HETATM   16  C   UNL     1     -10.523   7.481  72.186  1.00  0.00    -0.214 C  
HETATM   17  O   UNL     1     -11.302   6.847  72.882  1.00  0.00    -0.245 OA 
BRANCH  16  18
HETATM   18  O   UNL     1     -10.363   8.800  72.413  1.00  0.00    -0.300 OA 
BRANCH  18  19
HETATM   19 CA   UNL     1      -9.020  10.105  70.880  1.00  0.00    -0.253 Ca 
BRANCH  19  20
HETATM   20  O   UNL     1      -7.677  11.410  69.347  1.00  0.00    -0.007 OA 
BRANCH  20  21
HETATM   21  C   UNL     1      -7.967  11.033  68.090  1.00  0.00    -0.119 C  
HETATM   22  O   UNL     1      -7.492  11.684  67.175  1.00  0.00    -0.131 OA 
BRANCH  21  23
HETATM   23  C   UNL     1      -8.984   9.953  67.796  1.00  0.00    -0.131 C  
HETATM   24  H   UNL     1      -8.990   8.256  66.878  1.00  0.00     0.000 HD 
HETATM   25  O   UNL     1      -8.352   8.934  67.062  1.00  0.00    -0.105 OA 
BRANCH  23  26
HETATM   26  C   UNL     1     -10.241  10.440  67.012  1.00  0.00    -0.225 C  
HETATM   27  H   UNL     1     -11.274   9.844  65.483  1.00  0.00     0.000 HD 
HETATM   28  O   UNL     1     -10.508   9.547  65.961  1.00  0.00    -0.146 OA 
BRANCH  26  29
HETATM   29  C   UNL     1     -11.551  10.690  67.835  1.00  0.00    -0.047 C  
BRANCH  29  30
HETATM   30  O   UNL     1     -12.075  11.933  67.389  1.00  0.00    -0.577 OA 
BRANCH  30  31
HETATM   31  C   UNL     1     -11.299  12.616  66.425  1.00  0.00    -0.331 C  
HETATM   32  O   UNL     1     -10.484  13.589  67.057  1.00  0.00    -0.262 OA 
HETATM   33  C   UNL     1      -9.687  14.273  66.101  1.00  0.00    -0.303 C  
HETATM   34  H   UNL     1     -13.736  12.786  64.232  1.00  0.00     0.000 HD 
HETATM   35  C   UNL     1     -10.589  15.113  65.160  1.00  0.00    -0.424 C  
HETATM   36  O   UNL     1     -11.338  16.048  65.897  1.00  0.00     0.027 OA 
HETATM   37  C   UNL     1     -11.541  14.152  64.417  1.00  0.00    -0.362 C  
HETATM   38  O   UNL     1     -13.127  12.364  64.825  1.00  0.00    -0.806 OA 
HETATM   39  H   UNL     1     -11.890  16.562  65.320  1.00  0.00     0.000 HD 
HETATM   40  O   UNL     1     -12.470  14.851  63.626  1.00  0.00    -1.055 OA 
HETATM   41  C   UNL     1     -12.294  13.305  65.457  1.00  0.00    -0.480 C  
HETATM   42  H   UNL     1     -13.056  14.259  63.168  1.00  0.00     0.000 HD 
BRANCH  33  43
HETATM   43  C   UNL     1      -8.676  15.144  66.864  1.00  0.00    -0.259 C  
HETATM   44  O   UNL     1      -8.423  16.344  66.185  1.00  0.00    -0.324 OA 
HETATM   45  H   UNL     1      -7.798  16.882  66.656  1.00  0.00     0.000 HD 
ENDBRANCH  33  43
ENDBRANCH  30  31
ENDBRANCH  29  30
BRANCH  29  46
HETATM   46  C   UNL     1     -11.401  10.640  69.397  1.00  0.00    -0.284 C  
HETATM   47  O   UNL     1     -11.967   9.462  69.921  1.00  0.00    -0.447 OA 
HETATM   48  H   UNL     1     -11.876   9.432  70.866  1.00  0.00     0.000 HD 
BRANCH  46  49
HETATM   49  C   UNL     1     -11.888  11.905  70.142  1.00  0.00    -0.308 C  
HETATM   50  H   UNL     1     -13.069  12.341  71.637  1.00  0.00     0.000 HD 
HETATM   51  O   UNL     1     -12.770  11.564  71.179  1.00  0.00    -0.393 OA 
ENDBRANCH  46  49
ENDBRANCH  29  46
ENDBRANCH  26  29
ENDBRANCH  23  26
ENDBRANCH  21  23
ENDBRANCH  20  21
ENDBRANCH  19  20
ENDBRANCH  18  19
ENDBRANCH  16  18
ENDBRANCH  13  16
ENDBRANCH  10  13
ENDBRANCH   7  10
ENDBRANCH   4   7
ENDBRANCH   2   4
TORSDOF 17
ENDMDL
MODEL       86
REMARK 921   NORMALIZED FREE ENERGY PREDICTED BY IDOCK:   -5.41 KCAL/MOL
REMARK 922        TOTAL FREE ENERGY PREDICTED BY IDOCK:  -14.23 KCAL/MOL
REMARK 923 INTER-LIGAND FREE ENERGY PREDICTED BY IDOCK:  -11.37 KCAL/MOL
REMARK 924 INTRA-LIGAND FREE ENERGY PREDICTED BY IDOCK:   -2.86 KCAL/MOL
REMARK 927      BINDING AFFINITY PREDICTED BY RF-SCORE:    0.00 PKD
ROOT
HETATM    1  O   UNL     1     -11.754   8.959  70.377  1.00  0.00    -0.441 OA 
HETATM    2  C   UNL     1     -11.147   9.076  71.635  1.00  0.00    -0.363 C  
HETATM    3  H   UNL     1     -12.699   8.960  70.477  1.00  0.00     0.000 HD 
ENDROOT
BRANCH   2   4
HETATM    4  C   UNL     1      -9.617   9.074  71.473  1.00  0.00    -0.270 C  
HETATM    5  O   UNL     1      -9.019   8.799  72.715  1.00  0.00    -0.361 OA 
HETATM    6  H   UNL     1      -8.074   8.798  72.615  1.00  0.00     0.000 HD 
BRANCH   4   7
HETATM    7  C   UNL     1      -9.155   8.021  70.432  1.00  0.00    -0.150 C  
HETATM    8  H   UNL     1      -7.739   7.851  69.111  1.00  0.00     0.000 HD 
HETATM    9  O   UNL     1      -8.021   8.496  69.749  1.00  0.00    -0.098 OA 
BRANCH   7  10
HETATM   10  C   UNL     1      -8.812   6.661  71.097  1.00  0.00    -0.137 C  
HETATM   11  H   UNL     1      -7.325   5.429  71.066  1.00  0.00     0.000 HD 
HETATM   12  O   UNL     1      -7.535   6.261  70.659  1.00  0.00    -0.083 OA 
BRANCH  10  13
HETATM   13  C   UNL     1      -9.831   5.536  70.767  1.00  0.00    -0.188 C  
HETATM   14  H   UNL     1     -11.535   4.913  71.459  1.00  0.00     0.000 HD 
HETATM   15  O   UNL     1     -10.912   5.601  71.661  1.00  0.00    -0.253 OA 
BRANCH  13  16
HETATM   16  C   UNL     1     -10.384   5.620  69.363  1.00  0.00    -0.273 C  
HETATM   17  O   UNL     1      -9.776   5.099  68.441  1.00  0.00    -0.133 OA 
BRANCH  16  18
HETATM   18  O   UNL     1     -11.536   6.271  69.106  1.00  0.00    -0.394 OA 
BRANCH  18  19
HETATM   19 CA   UNL     1     -11.445   8.533  68.251  1.00  0.00    -0.441 Ca 
BRANCH  19  20
HETATM   20  O   UNL     1     -11.354  10.795  67.395  1.00  0.00    -0.416 OA 
BRANCH  20  21
HETATM   21  C   UNL     1     -10.549  11.524  68.187  1.00  0.00    -0.196 C  
HETATM   22  O   UNL     1      -9.363  11.242  68.210  1.00  0.00    -0.166 OA 
BRANCH  21  23
HETATM   23  C   UNL     1     -11.098  12.547  69.156  1.00  0.00    -0.196 C  
HETATM   24  H   UNL     1     -12.249  12.523  70.705  1.00  0.00     0.000 HD 
HETATM   25  O   UNL     1     -11.905  11.881  70.096  1.00  0.00    -0.329 OA 
BRANCH  23  26
HETATM   26  C   UNL     1     -11.927  13.690  68.495  1.00  0.00    -0.361 C  
HETATM   27  H   UNL     1     -12.604  15.432  69.014  1.00  0.00     0.000 HD 
HETATM   28  O   UNL     1     -12.098  14.735  69.417  1.00  0.00    -0.303 OA 
BRANCH  26  29
HETATM   29  C   UNL     1     -11.400  14.268  67.136  1.00  0.00    -0.337 C  
BRANCH  29  30
HETATM   30  O   UNL     1     -11.179  15.655  67.349  1.00  0.00    -0.306 OA 
BRANCH  30  31
HETATM   31  C   UNL     1      -9.853  16.103  67.156  1.00  0.00    -0.241 C  
HETATM   32  O   UNL     1      -9.180  16.185  68.402  1.00  0.00    -0.193 OA 
HETATM   33  C   UNL     1      -7.841  16.619  68.222  1.00  0.00    -0.182 C  
HETATM   34  H   UNL     1     -10.675  18.320  64.880  1.00  0.00     0.000 HD 
HETATM   35  C   UNL     1      -7.819  18.080  67.702  1.00  0.00    -0.220 C  
HETATM   36  O   UNL     1      -8.468  18.937  68.610  1.00  0.00    -0.346 OA 
HETATM   37  C   UNL     1      -8.543  18.120  66.340  1.00  0.00    -0.229 C  
HETATM   38  O   UNL     1     -10.620  17.460  65.276  1.00  0.00    -0.667 OA 
HETATM   39  H   UNL     1      -8.455  19.831  68.292  1.00  0.00     0.000 HD 
HETATM   40  O   UNL     1      -8.666  19.435  65.856  1.00  0.00    -0.427 OA 
HETATM   41  C   UNL     1      -9.944  17.508  66.509  1.00  0.00    -0.321 C  
HETATM   42  H   UNL     1      -9.111  19.459  65.017  1.00  0.00     0.000 HD 
BRANCH  33  43
HETATM   43  C   UNL     1      -7.110  16.471  69.565  1.00  0.00    -0.091 C  
HETATM   44  O   UNL     1      -5.755  16.813  69.449  1.00  0.00    -0.147 OA 
HETATM   45  H   UNL     1      -5.303  16.722  70.279  1.00  0.00     0.000 HD 
ENDBRANCH  33  43
ENDBRANCH  30  31
ENDBRANCH  29  30
BRANCH  29  46
HETATM   46  C   UNL     1     -12.302  14.001  65.880  1.00  0.00    -0.486 C  
HETATM   47  O   UNL     1     -12.685  12.647  65.812  1.00  0.00    -0.481 OA 
HETATM   48  H   UNL     1     -13.231  12.485  65.053  1.00  0.00     0.000 HD 
BRANCH  46  49
HETATM   49  C   UNL     1     -11.726  14.514  64.540  1.00  0.00    -0.410 C  
HETATM   50  H   UNL     1     -12.335  15.565  63.009  1.00  0.00     0.000 HD 
HETATM   51  O   UNL     1     -12.689  15.250  63.832  1.00  0.00    -0.732 OA 
ENDBRANCH  46  49
ENDBRANCH  29  46
ENDBRANCH  26  29
ENDBRANCH  23  26
ENDBRANCH  21  23
ENDBRANCH  20  21
ENDBRANCH  19  20
ENDBRANCH  18  19
ENDBRANCH  16  18
ENDBRANCH  13  16
ENDBRANCH  10  13
ENDBRANCH   7  10
ENDBRANCH   4   7
ENDBRANCH   2   4
TORSDOF 17
ENDMDL
MODEL       87
REMARK 921   NORMALIZED FREE ENERGY PREDICTED BY IDOCK:   -5.40 KCAL/MOL
REMARK 922        TOTAL FREE ENERGY PREDICTED BY IDOCK:  -14.21 KCAL/MOL
REMARK 923 INTER-LIGAND FREE ENERGY PREDICTED BY IDOCK:  -11.19 KCAL/MOL
REMARK 924 INTRA-LIGAND FREE ENERGY PREDICTED BY IDOCK:   -3.01 KCAL/MOL
REMARK 927      BINDING AFFINITY PREDICTED BY RF-SCORE:    0.00 PKD
ROOT
HETATM    1  O   UNL     1     -11.494   6.467  68.024  1.00  0.00    -0.597 OA 
HETATM    2  C   UNL     1     -10.435   6.656  67.126  1.00  0.00    -0.288 C  
HETATM    3  H   UNL     1     -11.728   5.546  68.053  1.00  0.00     0.000 HD 
ENDROOT
BRANCH   2   4
HETATM    4  C   UNL     1     -10.057   8.146  67.078  1.00  0.00    -0.280 C  
HETATM    5  O   UNL     1     -11.177   8.921  67.426  1.00  0.00    -0.337 OA 
HETATM    6  H   UNL     1     -10.944   9.842  67.397  1.00  0.00     0.000 HD 
BRANCH   4   7
HETATM    7  C   UNL     1      -8.885   8.469  68.042  1.00  0.00    -0.142 C  
HETATM    8  H   UNL     1      -7.112   9.257  67.915  1.00  0.00     0.000 HD 
HETATM    9  O   UNL     1      -7.830   9.060  67.324  1.00  0.00    -0.098 OA 
BRANCH   7  10
HETATM   10  C   UNL     1      -9.319   9.427  69.183  1.00  0.00    -0.159 C  
HETATM   11  H   UNL     1      -8.591  10.997  70.040  1.00  0.00     0.000 HD 
HETATM   12  O   UNL     1      -8.325  10.410  69.342  1.00  0.00    -0.160 OA 
BRANCH  10  13
HETATM   13  C   UNL     1      -9.541   8.711  70.543  1.00  0.00    -0.181 C  
HETATM   14  H   UNL     1      -8.844   8.844  72.351  1.00  0.00     0.000 HD 
HETATM   15  O   UNL     1      -8.708   9.282  71.519  1.00  0.00    -0.323 OA 
BRANCH  13  16
HETATM   16  C   UNL     1     -10.965   8.795  71.041  1.00  0.00    -0.268 C  
HETATM   17  O   UNL     1     -11.183   8.877  72.240  1.00  0.00    -0.340 OA 
BRANCH  16  18
HETATM   18  O   UNL     1     -12.005   8.768  70.184  1.00  0.00     0.118 OA 
BRANCH  18  19
HETATM   19 CA   UNL     1     -12.140  10.444  68.443  1.00  0.00    -0.417 Ca 
BRANCH  19  20
HETATM   20  O   UNL     1     -12.275  12.120  66.703  1.00  0.00    -0.566 OA 
BRANCH  20  21
HETATM   21  C   UNL     1     -11.031  12.411  66.286  1.00  0.00    -0.286 C  
HETATM   22  O   UNL     1     -10.225  11.498  66.213  1.00  0.00    -0.217 OA 
BRANCH  21  23
HETATM   23  C   UNL     1     -10.572  13.837  66.080  1.00  0.00    -0.290 C  
HETATM   24  H   UNL     1      -9.607  14.808  64.719  1.00  0.00     0.000 HD 
HETATM   25  O   UNL     1      -9.894  13.912  64.849  1.00  0.00    -0.219 OA 
BRANCH  23  26
HETATM   26  C   UNL     1      -9.647  14.393  67.204  1.00  0.00    -0.250 C  
HETATM   27  H   UNL     1      -7.905  15.236  67.317  1.00  0.00     0.000 HD 
HETATM   28  O   UNL     1      -8.468  14.897  66.631  1.00  0.00    -0.221 OA 
BRANCH  26  29
HETATM   29  C   UNL     1     -10.258  15.461  68.177  1.00  0.00    -0.230 C  
BRANCH  29  30
HETATM   30  O   UNL     1      -9.160  16.153  68.753  1.00  0.00    -0.206 OA 
BRANCH  30  31
HETATM   31  C   UNL     1      -9.115  17.545  68.510  1.00  0.00    -0.277 C  
HETATM   32  O   UNL     1      -9.823  17.856  67.322  1.00  0.00    -0.290 OA 
HETATM   33  C   UNL     1      -9.798  19.253  67.074  1.00  0.00    -0.340 C  
HETATM   34  H   UNL     1      -5.974  17.845  69.417  1.00  0.00     0.000 HD 
HETATM   35  C   UNL     1      -8.351  19.714  66.764  1.00  0.00    -0.308 C  
HETATM   36  O   UNL     1      -7.845  19.033  65.641  1.00  0.00    -0.457 OA 
HETATM   37  C   UNL     1      -7.472  19.412  67.996  1.00  0.00    -0.281 C  
HETATM   38  O   UNL     1      -6.889  17.613  69.514  1.00  0.00    -0.189 OA 
HETATM   39  H   UNL     1      -6.958  19.316  65.452  1.00  0.00     0.000 HD 
HETATM   40  O   UNL     1      -6.117  19.699  67.750  1.00  0.00    -0.200 OA 
HETATM   41  C   UNL     1      -7.621  17.924  68.352  1.00  0.00    -0.282 C  
HETATM   42  H   UNL     1      -5.576  19.513  68.509  1.00  0.00     0.000 HD 
BRANCH  33  43
HETATM   43  C   UNL     1     -10.761  19.545  65.912  1.00  0.00    -0.420 C  
HETATM   44  O   UNL     1     -10.817  18.469  65.014  1.00  0.00    -0.596 OA 
HETATM   45  H   UNL     1     -11.412  18.650  64.297  1.00  0.00     0.000 HD 
ENDBRANCH  33  43
ENDBRANCH  30  31
ENDBRANCH  29  30
BRANCH  29  46
HETATM   46  C   UNL     1     -11.247  14.912  69.265  1.00  0.00    -0.284 C  
HETATM   47  O   UNL     1     -12.510  14.636  68.707  1.00  0.00    -0.579 OA 
HETATM   48  H   UNL     1     -13.108  14.304  69.365  1.00  0.00     0.000 HD 
BRANCH  46  49
HETATM   49  C   UNL     1     -11.349  15.770  70.548  1.00  0.00    -0.380 C  
HETATM   50  H   UNL     1     -11.646  15.488  72.459  1.00  0.00     0.000 HD 
HETATM   51  O   UNL     1     -11.583  14.961  71.671  1.00  0.00    -0.352 OA 
ENDBRANCH  46  49
ENDBRANCH  29  46
ENDBRANCH  26  29
ENDBRANCH  23  26
ENDBRANCH  21  23
ENDBRANCH  20  21
ENDBRANCH  19  20
ENDBRANCH  18  19
ENDBRANCH  16  18
ENDBRANCH  13  16
ENDBRANCH  10  13
ENDBRANCH   7  10
ENDBRANCH   4   7
ENDBRANCH   2   4
TORSDOF 17
ENDMDL
MODEL       88
REMARK 921   NORMALIZED FREE ENERGY PREDICTED BY IDOCK:   -5.40 KCAL/MOL
REMARK 922        TOTAL FREE ENERGY PREDICTED BY IDOCK:  -14.20 KCAL/MOL
REMARK 923 INTER-LIGAND FREE ENERGY PREDICTED BY IDOCK:  -10.78 KCAL/MOL
REMARK 924 INTRA-LIGAND FREE ENERGY PREDICTED BY IDOCK:   -3.42 KCAL/MOL
REMARK 927      BINDING AFFINITY PREDICTED BY RF-SCORE:    0.00 PKD
ROOT
HETATM    1  O   UNL     1      -9.341  12.191  63.241  1.00  0.00    -0.668 OA 
HETATM    2  C   UNL     1     -10.560  11.744  63.770  1.00  0.00    -0.415 C  
HETATM    3  H   UNL     1      -8.658  11.559  63.434  1.00  0.00     0.000 HD 
ENDROOT
BRANCH   2   4
HETATM    4  C   UNL     1     -11.666  12.767  63.458  1.00  0.00    -0.530 C  
HETATM    5  O   UNL     1     -12.915  12.123  63.480  1.00  0.00    -0.794 OA 
HETATM    6  H   UNL     1     -13.597  12.755  63.287  1.00  0.00     0.000 HD 
BRANCH   4   7
HETATM    7  C   UNL     1     -11.668  13.934  64.482  1.00  0.00    -0.410 C  
HETATM    8  H   UNL     1     -12.934  15.262  65.123  1.00  0.00     0.000 HD 
HETATM    9  O   UNL     1     -12.933  14.548  64.497  1.00  0.00    -0.536 OA 
BRANCH   7  10
HETATM   10  C   UNL     1     -11.325  13.448  65.915  1.00  0.00    -0.309 C  
HETATM   11  H   UNL     1     -12.097  12.226  67.197  1.00  0.00     0.000 HD 
HETATM   12  O   UNL     1     -12.306  12.523  66.319  1.00  0.00    -0.570 OA 
BRANCH  10  13
HETATM   13  C   UNL     1     -11.258  14.597  66.958  1.00  0.00    -0.344 C  
HETATM   14  H   UNL     1     -11.772  14.868  68.811  1.00  0.00     0.000 HD 
HETATM   15  O   UNL     1     -11.814  14.165  68.173  1.00  0.00    -0.331 OA 
BRANCH  13  16
HETATM   16  C   UNL     1      -9.851  15.074  67.235  1.00  0.00    -0.228 C  
HETATM   17  O   UNL     1      -9.675  16.115  67.849  1.00  0.00    -0.222 OA 
BRANCH  16  18
HETATM   18  O   UNL     1      -8.782  14.375  66.806  1.00  0.00    -0.223 OA 
BRANCH  18  19
HETATM   19 CA   UNL     1      -8.159  12.343  67.963  1.00  0.00    -0.108 Ca 
BRANCH  19  20
HETATM   20  O   UNL     1      -7.536  10.311  69.120  1.00  0.00    -0.089 OA 
BRANCH  20  21
HETATM   21  C   UNL     1      -7.716   9.269  68.290  1.00  0.00    -0.087 C  
HETATM   22  O   UNL     1      -6.915   8.352  68.343  1.00  0.00    -0.067 OA 
BRANCH  21  23
HETATM   23  C   UNL     1      -8.764   9.291  67.199  1.00  0.00    -0.127 C  
HETATM   24  H   UNL     1      -9.290  10.507  65.796  1.00  0.00     0.000 HD 
HETATM   25  O   UNL     1      -8.633  10.493  66.481  1.00  0.00    -0.132 OA 
BRANCH  23  26
HETATM   26  C   UNL     1     -10.232   9.158  67.705  1.00  0.00    -0.236 C  
HETATM   27  H   UNL     1     -11.586   7.771  67.775  1.00  0.00     0.000 HD 
HETATM   28  O   UNL     1     -10.691   7.852  67.466  1.00  0.00    -0.247 OA 
BRANCH  26  29
HETATM   29  C   UNL     1     -10.519   9.553  69.195  1.00  0.00    -0.210 C  
BRANCH  29  30
HETATM   30  O   UNL     1     -11.277   8.489  69.753  1.00  0.00    -0.129 OA 
BRANCH  30  31
HETATM   31  C   UNL     1     -10.706   7.850  70.876  1.00  0.00    -0.221 C  
HETATM   32  O   UNL     1      -9.527   7.158  70.497  1.00  0.00    -0.162 OA 
HETATM   33  C   UNL     1      -8.934   6.524  71.620  1.00  0.00    -0.143 C  
HETATM   34  H   UNL     1     -13.596   6.892  72.103  1.00  0.00     0.000 HD 
HETATM   35  C   UNL     1      -9.861   5.398  72.147  1.00  0.00    -0.169 C  
HETATM   36  O   UNL     1     -10.097   4.442  71.143  1.00  0.00    -0.186 OA 
HETATM   37  C   UNL     1     -11.197   6.035  72.584  1.00  0.00    -0.285 C  
HETATM   38  O   UNL     1     -12.949   7.505  71.778  1.00  0.00    -0.335 OA 
HETATM   39  H   UNL     1     -10.664   3.752  71.466  1.00  0.00     0.000 HD 
HETATM   40  O   UNL     1     -12.135   5.061  72.969  1.00  0.00    -0.424 OA 
HETATM   41  C   UNL     1     -11.762   6.848  71.407  1.00  0.00    -0.316 C  
HETATM   42  H   UNL     1     -12.957   5.453  73.238  1.00  0.00     0.000 HD 
BRANCH  33  43
HETATM   43  C   UNL     1      -7.559   5.989  71.191  1.00  0.00    -0.100 C  
HETATM   44  O   UNL     1      -7.461   5.898  69.795  1.00  0.00    -0.076 OA 
HETATM   45  H   UNL     1      -6.611   5.569  69.529  1.00  0.00     0.000 HD 
ENDBRANCH  33  43
ENDBRANCH  30  31
ENDBRANCH  29  30
BRANCH  29  46
HETATM   46  C   UNL     1     -11.205  10.946  69.416  1.00  0.00    -0.272 C  
HETATM   47  O   UNL     1     -10.262  11.990  69.352  1.00  0.00    -0.396 OA 
HETATM   48  H   UNL     1     -10.677  12.833  69.485  1.00  0.00     0.000 HD 
BRANCH  46  49
HETATM   49  C   UNL     1     -12.099  11.043  70.674  1.00  0.00    -0.373 C  
HETATM   50  H   UNL     1     -12.823  12.440  71.834  1.00  0.00     0.000 HD 
HETATM   51  O   UNL     1     -12.274  12.381  71.060  1.00  0.00    -0.305 OA 
ENDBRANCH  46  49
ENDBRANCH  29  46
ENDBRANCH  26  29
ENDBRANCH  23  26
ENDBRANCH  21  23
ENDBRANCH  20  21
ENDBRANCH  19  20
ENDBRANCH  18  19
ENDBRANCH  16  18
ENDBRANCH  13  16
ENDBRANCH  10  13
ENDBRANCH   7  10
ENDBRANCH   4   7
ENDBRANCH   2   4
TORSDOF 17
ENDMDL
MODEL       89
REMARK 921   NORMALIZED FREE ENERGY PREDICTED BY IDOCK:   -5.39 KCAL/MOL
REMARK 922        TOTAL FREE ENERGY PREDICTED BY IDOCK:  -14.19 KCAL/MOL
REMARK 923 INTER-LIGAND FREE ENERGY PREDICTED BY IDOCK:  -10.21 KCAL/MOL
REMARK 924 INTRA-LIGAND FREE ENERGY PREDICTED BY IDOCK:   -3.98 KCAL/MOL
REMARK 927      BINDING AFFINITY PREDICTED BY RF-SCORE:    0.00 PKD
ROOT
HETATM    1  O   UNL     1     -11.288  12.667  70.161  1.00  0.00    -0.499 OA 
HETATM    2  C   UNL     1     -12.059  13.815  69.929  1.00  0.00    -0.348 C  
HETATM    3  H   UNL     1     -11.230  12.504  71.095  1.00  0.00     0.000 HD 
ENDROOT
BRANCH   2   4
HETATM    4  C   UNL     1     -12.153  14.078  68.417  1.00  0.00    -0.283 C  
HETATM    5  O   UNL     1     -11.448  15.253  68.105  1.00  0.00    -0.328 OA 
HETATM    6  H   UNL     1     -11.507  15.416  67.170  1.00  0.00     0.000 HD 
BRANCH   4   7
HETATM    7  C   UNL     1     -11.576  12.895  67.595  1.00  0.00    -0.355 C  
HETATM    8  H   UNL     1     -11.986  11.013  67.328  1.00  0.00     0.000 HD 
HETATM    9  O   UNL     1     -12.340  11.737  67.831  1.00  0.00    -0.399 OA 
BRANCH   7  10
HETATM   10  C   UNL     1     -11.571  13.195  66.072  1.00  0.00    -0.353 C  
HETATM   11  H   UNL     1     -12.656  12.710  64.550  1.00  0.00     0.000 HD 
HETATM   12  O   UNL     1     -12.660  12.526  65.483  1.00  0.00    -0.642 OA 
BRANCH  10  13
HETATM   13  C   UNL     1     -10.263  12.752  65.359  1.00  0.00    -0.283 C  
HETATM   14  H   UNL     1      -8.377  12.622  65.801  1.00  0.00     0.000 HD 
HETATM   15  O   UNL     1      -9.176  12.892  66.237  1.00  0.00    -0.190 OA 
BRANCH  13  16
HETATM   16  C   UNL     1     -10.295  11.319  64.884  1.00  0.00    -0.304 C  
HETATM   17  O   UNL     1     -10.530  11.075  63.710  1.00  0.00    -0.363 OA 
BRANCH  16  18
HETATM   18  O   UNL     1     -10.078  10.298  65.736  1.00  0.00    -0.254 OA 
BRANCH  18  19
HETATM   19 CA   UNL     1      -8.474  10.577  67.528  1.00  0.00    -0.112 Ca 
BRANCH  19  20
HETATM   20  O   UNL     1      -6.871  10.857  69.318  1.00  0.00    -0.081 OA 
BRANCH  20  21
HETATM   21  C   UNL     1      -7.201  10.032  70.326  1.00  0.00    -0.147 C  
HETATM   22  O   UNL     1      -6.534  10.082  71.346  1.00  0.00    -0.323 OA 
BRANCH  21  23
HETATM   23  C   UNL     1      -8.245   8.950  70.162  1.00  0.00    -0.125 C  
HETATM   24  H   UNL     1      -8.795   7.746  68.757  1.00  0.00     0.000 HD 
HETATM   25  O   UNL     1      -8.139   8.425  68.861  1.00  0.00    -0.110 OA 
BRANCH  23  26
HETATM   26  C   UNL     1      -9.712   9.419  70.403  1.00  0.00    -0.261 C  
HETATM   27  H   UNL     1     -11.121  10.252  69.364  1.00  0.00     0.000 HD 
HETATM   28  O   UNL     1     -10.227   9.966  69.216  1.00  0.00    -0.184 OA 
BRANCH  26  29
HETATM   29  C   UNL     1     -10.719   8.364  70.978  1.00  0.00    -0.223 C  
BRANCH  29  30
HETATM   30  O   UNL     1     -11.376   7.786  69.859  1.00  0.00    -0.139 OA 
BRANCH  30  31
HETATM   31  C   UNL     1     -11.161   6.402  69.668  1.00  0.00    -0.418 C  
HETATM   32  O   UNL     1     -10.320   5.893  70.690  1.00  0.00    -0.209 OA 
HETATM   33  C   UNL     1     -10.108   4.500  70.518  1.00  0.00    -0.162 C  
HETATM   34  H   UNL     1     -10.865   6.652  66.408  1.00  0.00     0.000 HD 
HETATM   35  C   UNL     1      -9.301   4.239  69.221  1.00  0.00    -0.162 C  
HETATM   36  O   UNL     1      -8.058   4.895  69.272  1.00  0.00    -0.077 OA 
HETATM   37  C   UNL     1     -10.121   4.768  68.026  1.00  0.00    -0.047 C  
HETATM   38  O   UNL     1     -11.284   6.751  67.254  1.00  0.00    -0.348 OA 
HETATM   39  H   UNL     1      -7.563   4.735  68.477  1.00  0.00     0.000 HD 
HETATM   40  O   UNL     1      -9.403   4.670  66.820  1.00  0.00    -0.129 OA 
HETATM   41  C   UNL     1     -10.477   6.241  68.287  1.00  0.00    -0.228 C  
HETATM   42  H   UNL     1      -9.908   4.996  66.084  1.00  0.00     0.000 HD 
BRANCH  33  43
HETATM   43  C   UNL     1      -9.384   3.974  71.768  1.00  0.00    -0.132 C  
HETATM   44  O   UNL     1      -8.508   4.935  72.291  1.00  0.00    -0.120 OA 
HETATM   45  H   UNL     1      -8.061   4.610  73.063  1.00  0.00     0.000 HD 
ENDBRANCH  33  43
ENDBRANCH  30  31
ENDBRANCH  29  30
BRANCH  29  46
HETATM   46  C   UNL     1     -11.736   8.898  72.047  1.00  0.00    -0.367 C  
HETATM   47  O   UNL     1     -12.067   7.892  72.976  1.00  0.00    -0.626 OA 
HETATM   48  H   UNL     1     -12.682   8.214  73.623  1.00  0.00     0.000 HD 
BRANCH  46  49
HETATM   49  C   UNL     1     -12.990   9.595  71.468  1.00  0.00    -0.395 C  
HETATM   50  H   UNL     1     -13.816  11.365  71.519  1.00  0.00     0.000 HD 
HETATM   51  O   UNL     1     -13.046  10.937  71.874  1.00  0.00    -0.482 OA 
ENDBRANCH  46  49
ENDBRANCH  29  46
ENDBRANCH  26  29
ENDBRANCH  23  26
ENDBRANCH  21  23
ENDBRANCH  20  21
ENDBRANCH  19  20
ENDBRANCH  18  19
ENDBRANCH  16  18
ENDBRANCH  13  16
ENDBRANCH  10  13
ENDBRANCH   7  10
ENDBRANCH   4   7
ENDBRANCH   2   4
TORSDOF 17
ENDMDL
MODEL       90
REMARK 921   NORMALIZED FREE ENERGY PREDICTED BY IDOCK:   -5.38 KCAL/MOL
REMARK 922        TOTAL FREE ENERGY PREDICTED BY IDOCK:  -14.17 KCAL/MOL
REMARK 923 INTER-LIGAND FREE ENERGY PREDICTED BY IDOCK:  -11.94 KCAL/MOL
REMARK 924 INTRA-LIGAND FREE ENERGY PREDICTED BY IDOCK:   -2.22 KCAL/MOL
REMARK 927      BINDING AFFINITY PREDICTED BY RF-SCORE:    0.00 PKD
ROOT
HETATM    1  O   UNL     1      -8.689   5.373  68.616  1.00  0.00    -0.098 OA 
HETATM    2  C   UNL     1      -9.305   4.380  69.390  1.00  0.00    -0.156 C  
HETATM    3  H   UNL     1      -8.363   4.992  67.809  1.00  0.00     0.000 HD 
ENDROOT
BRANCH   2   4
HETATM    4  C   UNL     1      -9.834   4.997  70.696  1.00  0.00    -0.212 C  
HETATM    5  O   UNL     1      -8.748   5.357  71.513  1.00  0.00    -0.132 OA 
HETATM    6  H   UNL     1      -9.074   5.738  72.320  1.00  0.00     0.000 HD 
BRANCH   4   7
HETATM    7  C   UNL     1     -10.712   6.246  70.423  1.00  0.00    -0.271 C  
HETATM    8  H   UNL     1     -11.946   6.845  69.045  1.00  0.00     0.000 HD 
HETATM    9  O   UNL     1     -11.409   6.079  69.212  1.00  0.00    -0.384 OA 
BRANCH   7  10
HETATM   10  C   UNL     1     -11.734   6.498  71.563  1.00  0.00    -0.324 C  
HETATM   11  H   UNL     1     -13.621   6.887  71.686  1.00  0.00     0.000 HD 
HETATM   12  O   UNL     1     -12.996   6.733  70.987  1.00  0.00    -0.254 OA 
BRANCH  10  13
HETATM   13  C   UNL     1     -11.363   7.704  72.471  1.00  0.00    -0.355 C  
HETATM   14  H   UNL     1      -9.782   8.767  72.847  1.00  0.00     0.000 HD 
HETATM   15  O   UNL     1     -10.009   8.030  72.293  1.00  0.00    -0.197 OA 
BRANCH  13  16
HETATM   16  C   UNL     1     -12.180   8.942  72.187  1.00  0.00    -0.367 C  
HETATM   17  O   UNL     1     -13.157   9.193  72.875  1.00  0.00    -0.304 OA 
BRANCH  16  18
HETATM   18  O   UNL     1     -11.857   9.773  71.176  1.00  0.00    -0.322 OA 
BRANCH  18  19
HETATM   19 CA   UNL     1     -12.021  12.164  71.518  1.00  0.00    -0.237 Ca 
BRANCH  19  20
HETATM   20  O   UNL     1     -12.185  14.554  71.859  1.00  0.00    -0.337 OA 
BRANCH  20  21
HETATM   21  C   UNL     1     -12.772  15.104  70.782  1.00  0.00    -0.405 C  
HETATM   22  O   UNL     1     -13.770  15.782  70.961  1.00  0.00    -0.539 OA 
BRANCH  21  23
HETATM   23  C   UNL     1     -12.334  14.766  69.375  1.00  0.00    -0.149 C  
HETATM   24  H   UNL     1     -11.840  13.166  68.415  1.00  0.00     0.000 HD 
HETATM   25  O   UNL     1     -12.115  13.379  69.299  1.00  0.00    -0.311 OA 
BRANCH  23  26
HETATM   26  C   UNL     1     -11.050  15.511  68.897  1.00  0.00    -0.282 C  
HETATM   27  H   UNL     1      -9.138  15.191  68.917  1.00  0.00     0.000 HD 
HETATM   28  O   UNL     1      -9.920  14.737  69.209  1.00  0.00    -0.209 OA 
BRANCH  26  29
HETATM   29  C   UNL     1     -10.990  15.947  67.392  1.00  0.00    -0.257 C  
BRANCH  29  30
HETATM   30  O   UNL     1     -10.171  14.994  66.730  1.00  0.00    -0.252 OA 
BRANCH  30  31
HETATM   31  C   UNL     1     -10.834  13.843  66.248  1.00  0.00    -0.290 C  
HETATM   32  O   UNL     1     -10.026  12.695  66.449  1.00  0.00    -0.243 OA 
HETATM   33  C   UNL     1     -10.686  11.528  65.983  1.00  0.00    -0.281 C  
HETATM   34  H   UNL     1     -12.009  15.343  63.575  1.00  0.00     0.000 HD 
HETATM   35  C   UNL     1     -10.852  11.589  64.442  1.00  0.00    -0.342 C  
HETATM   36  O   UNL     1      -9.598  11.696  63.814  1.00  0.00    -0.405 OA 
HETATM   37  C   UNL     1     -11.715  12.821  64.097  1.00  0.00    -0.401 C  
HETATM   38  O   UNL     1     -11.862  15.207  64.503  1.00  0.00    -0.416 OA 
HETATM   39  H   UNL     1      -9.700  11.734  62.871  1.00  0.00     0.000 HD 
HETATM   40  O   UNL     1     -11.817  13.010  62.707  1.00  0.00    -0.698 OA 
HETATM   41  C   UNL     1     -11.073  14.065  64.733  1.00  0.00    -0.387 C  
HETATM   42  H   UNL     1     -12.348  13.768  62.494  1.00  0.00     0.000 HD 
BRANCH  33  43
HETATM   43  C   UNL     1      -9.865  10.309  66.430  1.00  0.00    -0.217 C  
HETATM   44  O   UNL     1     -10.008   9.241  65.532  1.00  0.00    -0.440 OA 
HETATM   45  H   UNL     1      -9.501   8.488  65.808  1.00  0.00     0.000 HD 
ENDBRANCH  33  43
ENDBRANCH  30  31
ENDBRANCH  29  30
BRANCH  29  46
HETATM   46  C   UNL     1     -10.517  17.419  67.123  1.00  0.00    -0.305 C  
HETATM   47  O   UNL     1     -10.394  17.665  65.742  1.00  0.00    -0.558 OA 
HETATM   48  H   UNL     1     -10.108  18.556  65.579  1.00  0.00     0.000 HD 
BRANCH  46  49
HETATM   49  C   UNL     1      -9.260  17.857  67.910  1.00  0.00    -0.263 C  
HETATM   50  H   UNL     1      -8.702  19.358  69.031  1.00  0.00     0.000 HD 
HETATM   51  O   UNL     1      -9.475  19.089  68.548  1.00  0.00    -0.343 OA 
ENDBRANCH  46  49
ENDBRANCH  29  46
ENDBRANCH  26  29
ENDBRANCH  23  26
ENDBRANCH  21  23
ENDBRANCH  20  21
ENDBRANCH  19  20
ENDBRANCH  18  19
ENDBRANCH  16  18
ENDBRANCH  13  16
ENDBRANCH  10  13
ENDBRANCH   7  10
ENDBRANCH   4   7
ENDBRANCH   2   4
TORSDOF 17
ENDMDL
MODEL       91
REMARK 921   NORMALIZED FREE ENERGY PREDICTED BY IDOCK:   -5.38 KCAL/MOL
REMARK 922        TOTAL FREE ENERGY PREDICTED BY IDOCK:  -14.16 KCAL/MOL
REMARK 923 INTER-LIGAND FREE ENERGY PREDICTED BY IDOCK:  -11.42 KCAL/MOL
REMARK 924 INTRA-LIGAND FREE ENERGY PREDICTED BY IDOCK:   -2.74 KCAL/MOL
REMARK 927      BINDING AFFINITY PREDICTED BY RF-SCORE:    0.00 PKD
ROOT
HETATM    1  O   UNL     1     -11.390   7.127  72.192  1.00  0.00    -0.249 OA 
HETATM    2  C   UNL     1     -10.464   7.857  71.433  1.00  0.00    -0.206 C  
HETATM    3  H   UNL     1     -11.246   7.293  73.116  1.00  0.00     0.000 HD 
ENDROOT
BRANCH   2   4
HETATM    4  C   UNL     1     -10.696   7.589  69.936  1.00  0.00    -0.246 C  
HETATM    5  O   UNL     1     -11.963   7.005  69.760  1.00  0.00    -0.588 OA 
HETATM    6  H   UNL     1     -12.106   6.839  68.835  1.00  0.00     0.000 HD 
BRANCH   4   7
HETATM    7  C   UNL     1     -10.609   8.895  69.103  1.00  0.00    -0.195 C  
HETATM    8  H   UNL     1      -9.559  10.531  69.126  1.00  0.00     0.000 HD 
HETATM    9  O   UNL     1      -9.612   9.731  69.637  1.00  0.00    -0.193 OA 
BRANCH   7  10
HETATM   10  C   UNL     1     -10.284   8.610  67.612  1.00  0.00    -0.239 C  
HETATM   11  H   UNL     1     -10.558   7.151  66.377  1.00  0.00     0.000 HD 
HETATM   12  O   UNL     1     -10.757   7.325  67.290  1.00  0.00    -0.297 OA 
BRANCH  10  13
HETATM   13  C   UNL     1      -8.767   8.685  67.284  1.00  0.00    -0.129 C  
HETATM   14  H   UNL     1      -7.266   7.454  67.209  1.00  0.00     0.000 HD 
HETATM   15  O   UNL     1      -8.194   7.409  67.410  1.00  0.00    -0.111 OA 
BRANCH  13  16
HETATM   16  C   UNL     1      -8.479   9.188  65.889  1.00  0.00    -0.141 C  
HETATM   17  O   UNL     1      -7.402   9.710  65.645  1.00  0.00    -0.095 OA 
BRANCH  16  18
HETATM   18  O   UNL     1      -9.396   9.081  64.907  1.00  0.00    -0.104 OA 
BRANCH  18  19
HETATM   19 CA   UNL     1     -11.096  10.790  64.690  1.00  0.00    -0.309 Ca 
BRANCH  19  20
HETATM   20  O   UNL     1     -12.796  12.498  64.474  1.00  0.00    -0.701 OA 
BRANCH  20  21
HETATM   21  C   UNL     1     -12.206  13.704  64.540  1.00  0.00    -0.401 C  
HETATM   22  O   UNL     1     -12.731  14.629  63.943  1.00  0.00    -0.788 OA 
BRANCH  21  23
HETATM   23  C   UNL     1     -10.849  13.895  65.179  1.00  0.00    -0.358 C  
HETATM   24  H   UNL     1      -9.220  12.869  65.325  1.00  0.00     0.000 HD 
HETATM   25  O   UNL     1     -10.073  12.749  64.924  1.00  0.00    -0.274 OA 
BRANCH  23  26
HETATM   26  C   UNL     1     -10.884  14.152  66.716  1.00  0.00    -0.296 C  
HETATM   27  H   UNL     1     -11.142  13.097  68.323  1.00  0.00     0.000 HD 
HETATM   28  O   UNL     1     -11.121  12.940  67.386  1.00  0.00    -0.256 OA 
BRANCH  26  29
HETATM   29  C   UNL     1      -9.645  14.872  67.354  1.00  0.00    -0.206 C  
BRANCH  29  30
HETATM   30  O   UNL     1      -8.931  15.468  66.281  1.00  0.00    -0.297 OA 
BRANCH  30  31
HETATM   31  C   UNL     1      -8.635  16.842  66.427  1.00  0.00    -0.293 C  
HETATM   32  O   UNL     1      -7.978  17.070  67.663  1.00  0.00    -0.172 OA 
HETATM   33  C   UNL     1      -7.661  18.445  67.816  1.00  0.00    -0.231 C  
HETATM   34  H   UNL     1     -11.499  17.841  65.170  1.00  0.00     0.000 HD 
HETATM   35  C   UNL     1      -8.960  19.282  67.938  1.00  0.00    -0.311 C  
HETATM   36  O   UNL     1      -9.722  18.854  69.041  1.00  0.00    -0.363 OA 
HETATM   37  C   UNL     1      -9.776  19.101  66.640  1.00  0.00    -0.346 C  
HETATM   38  O   UNL     1     -10.670  17.378  65.187  1.00  0.00    -0.684 OA 
HETATM   39  H   UNL     1     -10.518  19.367  69.115  1.00  0.00     0.000 HD 
HETATM   40  O   UNL     1     -11.026  19.741  66.719  1.00  0.00    -0.429 OA 
HETATM   41  C   UNL     1      -9.988  17.598  66.398  1.00  0.00    -0.334 C  
HETATM   42  H   UNL     1     -11.528  19.629  65.920  1.00  0.00     0.000 HD 
BRANCH  33  43
HETATM   43  C   UNL     1      -6.761  18.589  69.053  1.00  0.00    -0.272 C  
HETATM   44  O   UNL     1      -6.987  19.808  69.709  1.00  0.00    -0.317 OA 
HETATM   45  H   UNL     1      -6.431  19.896  70.474  1.00  0.00     0.000 HD 
ENDBRANCH  33  43
ENDBRANCH  30  31
ENDBRANCH  29  30
BRANCH  29  46
HETATM   46  C   UNL     1      -8.720  13.978  68.254  1.00  0.00    -0.182 C  
HETATM   47  O   UNL     1      -8.329  14.669  69.418  1.00  0.00    -0.360 OA 
HETATM   48  H   UNL     1      -7.770  14.128  69.962  1.00  0.00     0.000 HD 
BRANCH  46  49
HETATM   49  C   UNL     1      -7.519  13.336  67.522  1.00  0.00    -0.157 C  
HETATM   50  H   UNL     1      -5.662  13.790  67.111  1.00  0.00     0.000 HD 
HETATM   51  O   UNL     1      -6.401  14.184  67.561  1.00  0.00    -0.289 OA 
ENDBRANCH  46  49
ENDBRANCH  29  46
ENDBRANCH  26  29
ENDBRANCH  23  26
ENDBRANCH  21  23
ENDBRANCH  20  21
ENDBRANCH  19  20
ENDBRANCH  18  19
ENDBRANCH  16  18
ENDBRANCH  13  16
ENDBRANCH  10  13
ENDBRANCH   7  10
ENDBRANCH   4   7
ENDBRANCH   2   4
TORSDOF 17
ENDMDL
MODEL       92
REMARK 921   NORMALIZED FREE ENERGY PREDICTED BY IDOCK:   -5.36 KCAL/MOL
REMARK 922        TOTAL FREE ENERGY PREDICTED BY IDOCK:  -14.14 KCAL/MOL
REMARK 923 INTER-LIGAND FREE ENERGY PREDICTED BY IDOCK:  -10.28 KCAL/MOL
REMARK 924 INTRA-LIGAND FREE ENERGY PREDICTED BY IDOCK:   -3.85 KCAL/MOL
REMARK 927      BINDING AFFINITY PREDICTED BY RF-SCORE:    0.00 PKD
ROOT
HETATM    1  O   UNL     1      -9.561  14.057  69.199  1.00  0.00    -0.411 OA 
HETATM    2  C   UNL     1     -10.173  14.957  68.315  1.00  0.00    -0.225 C  
HETATM    3  H   UNL     1      -8.687  13.850  68.889  1.00  0.00     0.000 HD 
ENDROOT
BRANCH   2   4
HETATM    4  C   UNL     1     -11.588  15.292  68.817  1.00  0.00    -0.362 C  
HETATM    5  O   UNL     1     -12.506  14.383  68.262  1.00  0.00    -0.587 OA 
HETATM    6  H   UNL     1     -13.379  14.590  68.572  1.00  0.00     0.000 HD 
BRANCH   4   7
HETATM    7  C   UNL     1     -11.673  15.234  70.365  1.00  0.00    -0.310 C  
HETATM    8  H   UNL     1     -11.485  16.475  71.849  1.00  0.00     0.000 HD 
HETATM    9  O   UNL     1     -11.433  16.512  70.901  1.00  0.00    -0.311 OA 
BRANCH   7  10
HETATM   10  C   UNL     1     -13.060  14.734  70.851  1.00  0.00    -0.363 C  
HETATM   11  H   UNL     1     -14.632  15.531  71.641  1.00  0.00     0.000 HD 
HETATM   12  O   UNL     1     -13.783  15.837  71.343  1.00  0.00    -0.531 OA 
BRANCH  10  13
HETATM   13  C   UNL     1     -12.972  13.653  71.964  1.00  0.00    -0.334 C  
HETATM   14  H   UNL     1     -14.091  13.016  73.418  1.00  0.00     0.000 HD 
HETATM   15  O   UNL     1     -14.144  13.677  72.738  1.00  0.00    -0.711 OA 
BRANCH  13  16
HETATM   16  C   UNL     1     -12.799  12.252  71.427  1.00  0.00    -0.271 C  
HETATM   17  O   UNL     1     -13.358  11.318  71.981  1.00  0.00    -0.462 OA 
BRANCH  16  18
HETATM   18  O   UNL     1     -12.027  12.010  70.349  1.00  0.00    -0.348 OA 
BRANCH  18  19
HETATM   19 CA   UNL     1     -10.152  10.495  70.558  1.00  0.00    -0.328 Ca 
BRANCH  19  20
HETATM   20  O   UNL     1      -8.277   8.980  70.769  1.00  0.00    -0.148 OA 
BRANCH  20  21
HETATM   21  C   UNL     1      -7.289   9.401  69.960  1.00  0.00    -0.101 C  
HETATM   22  O   UNL     1      -6.139   9.248  70.336  1.00  0.00    -0.038 OA 
BRANCH  21  23
HETATM   23  C   UNL     1      -7.570  10.197  68.705  1.00  0.00    -0.089 C  
HETATM   24  H   UNL     1      -8.787  11.604  68.191  1.00  0.00     0.000 HD 
HETATM   25  O   UNL     1      -8.610  11.104  68.979  1.00  0.00    -0.125 OA 
BRANCH  23  26
HETATM   26  C   UNL     1      -7.959   9.338  67.464  1.00  0.00    -0.099 C  
HETATM   27  H   UNL     1      -7.322   7.719  66.606  1.00  0.00     0.000 HD 
HETATM   28  O   UNL     1      -7.085   8.243  67.363  1.00  0.00    -0.077 OA 
BRANCH  26  29
HETATM   29  C   UNL     1      -9.442   8.838  67.370  1.00  0.00    -0.146 C  
BRANCH  29  30
HETATM   30  O   UNL     1      -9.381   7.425  67.232  1.00  0.00    -0.127 OA 
BRANCH  30  31
HETATM   31  C   UNL     1     -10.110   6.682  68.188  1.00  0.00    -0.158 C  
HETATM   32  O   UNL     1     -10.611   7.543  69.197  1.00  0.00    -0.219 OA 
HETATM   33  C   UNL     1     -11.358   6.811  70.156  1.00  0.00    -0.350 C  
HETATM   34  H   UNL     1      -7.995   4.171  68.202  1.00  0.00     0.000 HD 
HETATM   35  C   UNL     1     -10.426   5.846  70.934  1.00  0.00    -0.244 C  
HETATM   36  O   UNL     1      -9.407   6.563  71.587  1.00  0.00    -0.148 OA 
HETATM   37  C   UNL     1      -9.804   4.856  69.927  1.00  0.00    -0.225 C  
HETATM   38  O   UNL     1      -8.598   4.798  67.824  1.00  0.00    -0.103 OA 
HETATM   39  H   UNL     1      -8.836   5.972  72.063  1.00  0.00     0.000 HD 
HETATM   40  O   UNL     1      -8.857   4.018  70.541  1.00  0.00    -0.076 OA 
HETATM   41  C   UNL     1      -9.123   5.659  68.806  1.00  0.00    -0.118 C  
HETATM   42  H   UNL     1      -8.474   3.408  69.920  1.00  0.00     0.000 HD 
BRANCH  33  43
HETATM   43  C   UNL     1     -12.054   7.819  71.084  1.00  0.00    -0.286 C  
HETATM   44  O   UNL     1     -12.190   9.070  70.466  1.00  0.00    -0.485 OA 
HETATM   45  H   UNL     1     -12.621   9.693  71.039  1.00  0.00     0.000 HD 
ENDBRANCH  33  43
ENDBRANCH  30  31
ENDBRANCH  29  30
BRANCH  29  46
HETATM   46  C   UNL     1     -10.321   9.503  66.253  1.00  0.00    -0.156 C  
HETATM   47  O   UNL     1      -9.762   9.292  64.978  1.00  0.00    -0.446 OA 
HETATM   48  H   UNL     1     -10.294   9.694  64.302  1.00  0.00     0.000 HD 
BRANCH  46  49
HETATM   49  C   UNL     1     -10.677  10.987  66.498  1.00  0.00    -0.241 C  
HETATM   50  H   UNL     1     -12.097  12.013  67.365  1.00  0.00     0.000 HD 
HETATM   51  O   UNL     1     -11.878  11.100  67.215  1.00  0.00    -0.525 OA 
ENDBRANCH  46  49
ENDBRANCH  29  46
ENDBRANCH  26  29
ENDBRANCH  23  26
ENDBRANCH  21  23
ENDBRANCH  20  21
ENDBRANCH  19  20
ENDBRANCH  18  19
ENDBRANCH  16  18
ENDBRANCH  13  16
ENDBRANCH  10  13
ENDBRANCH   7  10
ENDBRANCH   4   7
ENDBRANCH   2   4
TORSDOF 17
ENDMDL
MODEL       93
REMARK 921   NORMALIZED FREE ENERGY PREDICTED BY IDOCK:   -5.36 KCAL/MOL
REMARK 922        TOTAL FREE ENERGY PREDICTED BY IDOCK:  -14.13 KCAL/MOL
REMARK 923 INTER-LIGAND FREE ENERGY PREDICTED BY IDOCK:   -9.91 KCAL/MOL
REMARK 924 INTRA-LIGAND FREE ENERGY PREDICTED BY IDOCK:   -4.22 KCAL/MOL
REMARK 927      BINDING AFFINITY PREDICTED BY RF-SCORE:    0.00 PKD
ROOT
HETATM    1  O   UNL     1     -11.994  16.593  72.217  1.00  0.00    -0.613 OA 
HETATM    2  C   UNL     1     -11.769  15.254  71.871  1.00  0.00    -0.433 C  
HETATM    3  H   UNL     1     -11.446  16.829  72.957  1.00  0.00     0.000 HD 
ENDROOT
BRANCH   2   4
HETATM    4  C   UNL     1     -12.655  14.873  70.672  1.00  0.00    -0.363 C  
HETATM    5  O   UNL     1     -13.904  15.506  70.798  1.00  0.00    -0.867 OA 
HETATM    6  H   UNL     1     -14.451  15.271  70.058  1.00  0.00     0.000 HD 
BRANCH   4   7
HETATM    7  C   UNL     1     -12.001  15.283  69.327  1.00  0.00    -0.299 C  
HETATM    8  H   UNL     1     -10.485  16.355  68.749  1.00  0.00     0.000 HD 
HETATM    9  O   UNL     1     -10.885  16.104  69.573  1.00  0.00    -0.280 OA 
BRANCH   7  10
HETATM   10  C   UNL     1     -11.547  14.049  68.502  1.00  0.00    -0.322 C  
HETATM   11  H   UNL     1      -9.901  13.074  68.239  1.00  0.00     0.000 HD 
HETATM   12  O   UNL     1     -10.178  13.830  68.744  1.00  0.00    -0.226 OA 
BRANCH  10  13
HETATM   13  C   UNL     1     -11.768  14.211  66.973  1.00  0.00    -0.405 C  
HETATM   14  H   UNL     1     -10.724  14.783  65.438  1.00  0.00     0.000 HD 
HETATM   15  O   UNL     1     -10.589  14.684  66.373  1.00  0.00    -0.290 OA 
BRANCH  13  16
HETATM   16  C   UNL     1     -12.156  12.925  66.283  1.00  0.00    -0.365 C  
HETATM   17  O   UNL     1     -12.794  12.965  65.242  1.00  0.00    -0.668 OA 
BRANCH  16  18
HETATM   18  O   UNL     1     -11.820  11.727  66.802  1.00  0.00    -0.586 OA 
BRANCH  18  19
HETATM   19 CA   UNL     1      -9.763  11.523  68.060  1.00  0.00    -0.154 Ca 
BRANCH  19  20
HETATM   20  O   UNL     1      -7.706  11.319  69.318  1.00  0.00    -0.092 OA 
BRANCH  20  21
HETATM   21  C   UNL     1      -6.669  11.505  68.483  1.00  0.00    -0.067 C  
HETATM   22  O   UNL     1      -5.555  11.601  68.969  1.00  0.00    -0.050 OA 
BRANCH  21  23
HETATM   23  C   UNL     1      -6.871  11.767  67.007  1.00  0.00    -0.137 C  
HETATM   24  H   UNL     1      -8.084  12.813  65.930  1.00  0.00     0.000 HD 
HETATM   25  O   UNL     1      -7.957  12.648  66.856  1.00  0.00    -0.101 OA 
BRANCH  23  26
HETATM   26  C   UNL     1      -7.129  10.491  66.150  1.00  0.00    -0.135 C  
HETATM   27  H   UNL     1      -6.655   8.612  66.229  1.00  0.00     0.000 HD 
HETATM   28  O   UNL     1      -6.498   9.390  66.752  1.00  0.00    -0.065 OA 
BRANCH  26  29
HETATM   29  C   UNL     1      -8.620  10.131  65.826  1.00  0.00    -0.149 C  
BRANCH  29  30
HETATM   30  O   UNL     1      -8.772   8.750  66.121  1.00  0.00    -0.142 OA 
BRANCH  30  31
HETATM   31  C   UNL     1      -9.823   8.423  67.008  1.00  0.00    -0.230 C  
HETATM   32  O   UNL     1      -9.694   9.163  68.211  1.00  0.00    -0.149 OA 
HETATM   33  C   UNL     1     -10.753   8.856  69.105  1.00  0.00    -0.143 C  
HETATM   34  H   UNL     1      -9.745   5.218  66.304  1.00  0.00     0.000 HD 
HETATM   35  C   UNL     1     -10.644   7.382  69.574  1.00  0.00    -0.237 C  
HETATM   36  O   UNL     1      -9.412   7.157  70.215  1.00  0.00    -0.162 OA 
HETATM   37  C   UNL     1     -10.759   6.470  68.334  1.00  0.00    -0.279 C  
HETATM   38  O   UNL     1      -9.816   6.147  66.123  1.00  0.00    -0.086 OA 
HETATM   39  H   UNL     1      -9.346   6.254  70.502  1.00  0.00     0.000 HD 
HETATM   40  O   UNL     1     -10.556   5.118  68.663  1.00  0.00    -0.098 OA 
HETATM   41  C   UNL     1      -9.706   6.907  67.303  1.00  0.00    -0.146 C  
HETATM   42  H   UNL     1     -10.628   4.557  67.900  1.00  0.00     0.000 HD 
BRANCH  33  43
HETATM   43  C   UNL     1     -10.682   9.844  70.280  1.00  0.00    -0.310 C  
HETATM   44  O   UNL     1     -11.088  11.129  69.891  1.00  0.00    -0.393 OA 
HETATM   45  H   UNL     1     -11.044  11.739  70.616  1.00  0.00     0.000 HD 
ENDBRANCH  33  43
ENDBRANCH  30  31
ENDBRANCH  29  30
BRANCH  29  46
HETATM   46  C   UNL     1      -9.112  10.482  64.377  1.00  0.00    -0.225 C  
HETATM   47  O   UNL     1     -10.462  10.884  64.387  1.00  0.00    -0.355 OA 
HETATM   48  H   UNL     1     -10.760  11.097  63.511  1.00  0.00     0.000 HD 
BRANCH  46  49
HETATM   49  C   UNL     1      -8.832   9.399  63.310  1.00  0.00    -0.182 C  
HETATM   50  H   UNL     1      -7.380   8.898  62.100  1.00  0.00     0.000 HD 
HETATM   51  O   UNL     1      -7.553   9.564  62.756  1.00  0.00    -0.109 OA 
ENDBRANCH  46  49
ENDBRANCH  29  46
ENDBRANCH  26  29
ENDBRANCH  23  26
ENDBRANCH  21  23
ENDBRANCH  20  21
ENDBRANCH  19  20
ENDBRANCH  18  19
ENDBRANCH  16  18
ENDBRANCH  13  16
ENDBRANCH  10  13
ENDBRANCH   7  10
ENDBRANCH   4   7
ENDBRANCH   2   4
TORSDOF 17
ENDMDL
MODEL       94
REMARK 921   NORMALIZED FREE ENERGY PREDICTED BY IDOCK:   -5.36 KCAL/MOL
REMARK 922        TOTAL FREE ENERGY PREDICTED BY IDOCK:  -14.13 KCAL/MOL
REMARK 923 INTER-LIGAND FREE ENERGY PREDICTED BY IDOCK:  -11.31 KCAL/MOL
REMARK 924 INTRA-LIGAND FREE ENERGY PREDICTED BY IDOCK:   -2.82 KCAL/MOL
REMARK 927      BINDING AFFINITY PREDICTED BY RF-SCORE:    0.00 PKD
ROOT
HETATM    1  O   UNL     1     -12.455   6.693  70.254  1.00  0.00    -0.509 OA 
HETATM    2  C   UNL     1     -11.230   6.203  69.779  1.00  0.00    -0.423 C  
HETATM    3  H   UNL     1     -12.935   5.993  70.680  1.00  0.00     0.000 HD 
ENDROOT
BRANCH   2   4
HETATM    4  C   UNL     1     -10.452   7.337  69.089  1.00  0.00    -0.215 C  
HETATM    5  O   UNL     1     -11.185   8.532  69.191  1.00  0.00    -0.423 OA 
HETATM    6  H   UNL     1     -10.704   9.232  68.765  1.00  0.00     0.000 HD 
BRANCH   4   7
HETATM    7  C   UNL     1      -9.050   7.534  69.724  1.00  0.00    -0.140 C  
HETATM    8  H   UNL     1      -7.269   8.025  69.118  1.00  0.00     0.000 HD 
HETATM    9  O   UNL     1      -8.127   7.905  68.729  1.00  0.00    -0.122 OA 
BRANCH   7  10
HETATM   10  C   UNL     1      -9.063   8.622  70.831  1.00  0.00    -0.187 C  
HETATM   11  H   UNL     1      -7.874  10.024  71.425  1.00  0.00     0.000 HD 
HETATM   12  O   UNL     1      -7.866   9.358  70.747  1.00  0.00    -0.175 OA 
BRANCH  10  13
HETATM   13  C   UNL     1      -9.197   8.043  72.266  1.00  0.00    -0.182 C  
HETATM   14  H   UNL     1      -8.573   8.499  74.048  1.00  0.00     0.000 HD 
HETATM   15  O   UNL     1      -8.491   8.853  73.170  1.00  0.00    -0.309 OA 
BRANCH  13  16
HETATM   16  C   UNL     1     -10.627   7.950  72.745  1.00  0.00    -0.353 C  
HETATM   17  O   UNL     1     -10.909   7.197  73.664  1.00  0.00    -0.352 OA 
BRANCH  16  18
HETATM   18  O   UNL     1     -11.603   8.676  72.166  1.00  0.00    -0.342 OA 
BRANCH  18  19
HETATM   19 CA   UNL     1     -11.007  10.382  70.555  1.00  0.00    -0.222 Ca 
BRANCH  19  20
HETATM   20  O   UNL     1     -10.412  12.086  68.944  1.00  0.00    -0.202 OA 
BRANCH  20  21
HETATM   21  C   UNL     1     -11.456  12.286  68.121  1.00  0.00    -0.316 C  
HETATM   22  O   UNL     1     -12.233  11.362  67.952  1.00  0.00    -0.592 OA 
BRANCH  21  23
HETATM   23  C   UNL     1     -11.585  13.541  67.289  1.00  0.00    -0.362 C  
HETATM   24  H   UNL     1     -12.400  14.020  65.606  1.00  0.00     0.000 HD 
HETATM   25  O   UNL     1     -12.319  13.232  66.129  1.00  0.00    -0.412 OA 
BRANCH  23  26
HETATM   26  C   UNL     1     -10.229  14.190  66.874  1.00  0.00    -0.267 C  
HETATM   27  H   UNL     1      -9.298  14.592  65.221  1.00  0.00     0.000 HD 
HETATM   28  O   UNL     1     -10.124  14.196  65.474  1.00  0.00    -0.329 OA 
BRANCH  26  29
HETATM   29  C   UNL     1      -9.916  15.621  67.432  1.00  0.00    -0.232 C  
BRANCH  29  30
HETATM   30  O   UNL     1      -8.795  16.100  66.702  1.00  0.00    -0.212 OA 
BRANCH  30  31
HETATM   31  C   UNL     1      -8.252  17.327  67.145  1.00  0.00    -0.204 C  
HETATM   32  O   UNL     1      -9.145  18.389  66.855  1.00  0.00    -0.271 OA 
HETATM   33  C   UNL     1      -8.618  19.627  67.308  1.00  0.00    -0.308 C  
HETATM   34  H   UNL     1      -5.202  16.606  66.167  1.00  0.00     0.000 HD 
HETATM   35  C   UNL     1      -7.347  19.993  66.500  1.00  0.00    -0.267 C  
HETATM   36  O   UNL     1      -7.644  20.088  65.128  1.00  0.00    -0.356 OA 
HETATM   37  C   UNL     1      -6.293  18.889  66.729  1.00  0.00    -0.186 C  
HETATM   38  O   UNL     1      -6.018  16.481  66.636  1.00  0.00    -0.319 OA 
HETATM   39  H   UNL     1      -6.865  20.312  64.633  1.00  0.00     0.000 HD 
HETATM   40  O   UNL     1      -5.149  19.091  65.936  1.00  0.00    -0.136 OA 
HETATM   41  C   UNL     1      -6.920  17.530  66.378  1.00  0.00    -0.280 C  
HETATM   42  H   UNL     1      -4.500  18.412  66.078  1.00  0.00     0.000 HD 
BRANCH  33  43
HETATM   43  C   UNL     1      -9.719  20.690  67.170  1.00  0.00    -0.390 C  
HETATM   44  O   UNL     1     -10.370  20.591  65.932  1.00  0.00    -0.415 OA 
HETATM   45  H   UNL     1     -11.050  21.248  65.846  1.00  0.00     0.000 HD 
ENDBRANCH  33  43
ENDBRANCH  30  31
ENDBRANCH  29  30
BRANCH  29  46
HETATM   46  C   UNL     1      -9.697  15.721  68.983  1.00  0.00    -0.242 C  
HETATM   47  O   UNL     1      -9.109  14.544  69.486  1.00  0.00    -0.386 OA 
HETATM   48  H   UNL     1      -8.976  14.604  70.424  1.00  0.00     0.000 HD 
BRANCH  46  49
HETATM   49  C   UNL     1     -10.942  16.147  69.794  1.00  0.00    -0.349 C  
HETATM   50  H   UNL     1     -11.919  15.539  71.374  1.00  0.00     0.000 HD 
HETATM   51  O   UNL     1     -11.153  15.278  70.876  1.00  0.00    -0.321 OA 
ENDBRANCH  46  49
ENDBRANCH  29  46
ENDBRANCH  26  29
ENDBRANCH  23  26
ENDBRANCH  21  23
ENDBRANCH  20  21
ENDBRANCH  19  20
ENDBRANCH  18  19
ENDBRANCH  16  18
ENDBRANCH  13  16
ENDBRANCH  10  13
ENDBRANCH   7  10
ENDBRANCH   4   7
ENDBRANCH   2   4
TORSDOF 17
ENDMDL
MODEL       95
REMARK 921   NORMALIZED FREE ENERGY PREDICTED BY IDOCK:   -5.36 KCAL/MOL
REMARK 922        TOTAL FREE ENERGY PREDICTED BY IDOCK:  -14.12 KCAL/MOL
REMARK 923 INTER-LIGAND FREE ENERGY PREDICTED BY IDOCK:  -11.29 KCAL/MOL
REMARK 924 INTRA-LIGAND FREE ENERGY PREDICTED BY IDOCK:   -2.83 KCAL/MOL
REMARK 927      BINDING AFFINITY PREDICTED BY RF-SCORE:    0.00 PKD
ROOT
HETATM    1  O   UNL     1     -11.493   6.431  66.941  1.00  0.00    -0.710 OA 
HETATM    2  C   UNL     1     -10.190   5.959  67.151  1.00  0.00    -0.203 C  
HETATM    3  H   UNL     1     -11.571   6.771  66.057  1.00  0.00     0.000 HD 
ENDROOT
BRANCH   2   4
HETATM    4  C   UNL     1     -10.062   5.409  68.581  1.00  0.00    -0.179 C  
HETATM    5  O   UNL     1      -8.779   4.862  68.756  1.00  0.00    -0.092 OA 
HETATM    6  H   UNL     1      -8.701   4.522  69.640  1.00  0.00     0.000 HD 
BRANCH   4   7
HETATM    7  C   UNL     1     -10.301   6.517  69.641  1.00  0.00    -0.196 C  
HETATM    8  H   UNL     1     -11.656   7.859  70.018  1.00  0.00     0.000 HD 
HETATM    9  O   UNL     1     -11.511   7.181  69.368  1.00  0.00    -0.041 OA 
BRANCH   7  10
HETATM   10  C   UNL     1     -10.355   5.940  71.081  1.00  0.00    -0.221 C  
HETATM   11  H   UNL     1     -10.304   4.184  71.884  1.00  0.00     0.000 HD 
HETATM   12  O   UNL     1     -10.271   4.537  71.003  1.00  0.00    -0.183 OA 
BRANCH  10  13
HETATM   13  C   UNL     1     -11.647   6.324  71.853  1.00  0.00    -0.317 C  
HETATM   14  H   UNL     1     -12.638   5.660  73.386  1.00  0.00     0.000 HD 
HETATM   15  O   UNL     1     -11.848   5.425  72.914  1.00  0.00    -0.263 OA 
BRANCH  13  16
HETATM   16  C   UNL     1     -11.610   7.720  72.428  1.00  0.00    -0.356 C  
HETATM   17  O   UNL     1     -10.547   8.195  72.797  1.00  0.00    -0.332 OA 
BRANCH  16  18
HETATM   18  O   UNL     1     -12.736   8.452  72.554  1.00  0.00    -0.327 OA 
BRANCH  18  19
HETATM   19 CA   UNL     1     -12.697  10.790  71.930  1.00  0.00    -0.307 Ca 
BRANCH  19  20
HETATM   20  O   UNL     1     -12.659  13.127  71.305  1.00  0.00    -0.357 OA 
BRANCH  20  21
HETATM   21  C   UNL     1     -12.083  13.241  70.096  1.00  0.00    -0.333 C  
HETATM   22  O   UNL     1     -12.044  12.250  69.387  1.00  0.00    -0.260 OA 
BRANCH  21  23
HETATM   23  C   UNL     1     -11.346  14.495  69.680  1.00  0.00    -0.273 C  
HETATM   24  H   UNL     1     -11.087  16.265  70.403  1.00  0.00     0.000 HD 
HETATM   25  O   UNL     1     -11.550  15.478  70.665  1.00  0.00    -0.285 OA 
BRANCH  23  26
HETATM   26  C   UNL     1     -11.770  15.068  68.293  1.00  0.00    -0.314 C  
HETATM   27  H   UNL     1     -11.576  16.742  67.334  1.00  0.00     0.000 HD 
HETATM   28  O   UNL     1     -11.317  16.393  68.179  1.00  0.00    -0.324 OA 
BRANCH  26  29
HETATM   29  C   UNL     1     -11.349  14.256  67.020  1.00  0.00    -0.341 C  
BRANCH  29  30
HETATM   30  O   UNL     1      -9.934  14.344  66.937  1.00  0.00    -0.251 OA 
BRANCH  30  31
HETATM   31  C   UNL     1      -9.238  13.115  66.987  1.00  0.00    -0.233 C  
HETATM   32  O   UNL     1     -10.156  12.037  67.060  1.00  0.00    -0.202 OA 
HETATM   33  C   UNL     1      -9.470  10.795  67.095  1.00  0.00    -0.160 C  
HETATM   34  H   UNL     1      -6.904  14.241  69.002  1.00  0.00     0.000 HD 
HETATM   35  C   UNL     1      -8.658  10.670  68.410  1.00  0.00    -0.134 C  
HETATM   36  O   UNL     1      -9.510  10.763  69.526  1.00  0.00    -0.413 OA 
HETATM   37  C   UNL     1      -7.622  11.812  68.450  1.00  0.00    -0.123 C  
HETATM   38  O   UNL     1      -7.444  14.220  68.221  1.00  0.00    -0.106 OA 
HETATM   39  H   UNL     1      -9.013  10.686  70.332  1.00  0.00     0.000 HD 
HETATM   40  O   UNL     1      -6.921  11.835  69.669  1.00  0.00    -0.317 OA 
HETATM   41  C   UNL     1      -8.357  13.150  68.261  1.00  0.00    -0.152 C  
HETATM   42  H   UNL     1      -6.283  12.538  69.693  1.00  0.00     0.000 HD 
BRANCH  33  43
HETATM   43  C   UNL     1     -10.511   9.674  66.947  1.00  0.00    -0.212 C  
HETATM   44  O   UNL     1     -11.620   9.897  67.776  1.00  0.00    -0.542 OA 
HETATM   45  H   UNL     1     -12.264   9.205  67.685  1.00  0.00     0.000 HD 
ENDBRANCH  33  43
ENDBRANCH  30  31
ENDBRANCH  29  30
BRANCH  29  46
HETATM   46  C   UNL     1     -12.045  14.676  65.677  1.00  0.00    -0.211 C  
HETATM   47  O   UNL     1     -12.856  13.636  65.182  1.00  0.00    -0.687 OA 
HETATM   48  H   UNL     1     -13.277  13.890  64.370  1.00  0.00     0.000 HD 
BRANCH  46  49
HETATM   49  C   UNL     1     -11.095  15.242  64.597  1.00  0.00    -0.332 C  
HETATM   50  H   UNL     1     -10.851  16.915  63.614  1.00  0.00     0.000 HD 
HETATM   51  O   UNL     1     -11.435  16.567  64.279  1.00  0.00    -1.000 OA 
ENDBRANCH  46  49
ENDBRANCH  29  46
ENDBRANCH  26  29
ENDBRANCH  23  26
ENDBRANCH  21  23
ENDBRANCH  20  21
ENDBRANCH  19  20
ENDBRANCH  18  19
ENDBRANCH  16  18
ENDBRANCH  13  16
ENDBRANCH  10  13
ENDBRANCH   7  10
ENDBRANCH   4   7
ENDBRANCH   2   4
TORSDOF 17
ENDMDL
MODEL       96
REMARK 921   NORMALIZED FREE ENERGY PREDICTED BY IDOCK:   -5.35 KCAL/MOL
REMARK 922        TOTAL FREE ENERGY PREDICTED BY IDOCK:  -14.11 KCAL/MOL
REMARK 923 INTER-LIGAND FREE ENERGY PREDICTED BY IDOCK:  -10.21 KCAL/MOL
REMARK 924 INTRA-LIGAND FREE ENERGY PREDICTED BY IDOCK:   -3.90 KCAL/MOL
REMARK 927      BINDING AFFINITY PREDICTED BY RF-SCORE:    0.00 PKD
ROOT
HETATM    1  O   UNL     1     -11.205  11.818  70.146  1.00  0.00    -0.489 OA 
HETATM    2  C   UNL     1     -11.673  12.951  69.466  1.00  0.00    -0.323 C  
HETATM    3  H   UNL     1     -11.835  11.562  70.811  1.00  0.00     0.000 HD 
ENDROOT
BRANCH   2   4
HETATM    4  C   UNL     1     -10.654  13.365  68.391  1.00  0.00    -0.248 C  
HETATM    5  O   UNL     1      -9.380  12.895  68.752  1.00  0.00    -0.406 OA 
HETATM    6  H   UNL     1      -8.751  13.151  68.088  1.00  0.00     0.000 HD 
BRANCH   4   7
HETATM    7  C   UNL     1     -11.036  12.803  66.996  1.00  0.00    -0.278 C  
HETATM    8  H   UNL     1     -12.341  11.556  66.273  1.00  0.00     0.000 HD 
HETATM    9  O   UNL     1     -12.108  11.900  67.127  1.00  0.00    -0.590 OA 
BRANCH   7  10
HETATM   10  C   UNL     1     -11.442  13.928  66.008  1.00  0.00    -0.340 C  
HETATM   11  H   UNL     1     -13.092  14.741  65.418  1.00  0.00     0.000 HD 
HETATM   12  O   UNL     1     -12.844  14.051  66.024  1.00  0.00    -0.438 OA 
BRANCH  10  13
HETATM   13  C   UNL     1     -10.977  13.668  64.548  1.00  0.00    -0.396 C  
HETATM   14  H   UNL     1      -9.567  12.669  63.662  1.00  0.00     0.000 HD 
HETATM   15  O   UNL     1      -9.851  12.828  64.555  1.00  0.00    -0.166 OA 
BRANCH  13  16
HETATM   16  C   UNL     1     -12.035  13.019  63.688  1.00  0.00    -0.539 C  
HETATM   17  O   UNL     1     -12.744  13.712  62.974  1.00  0.00    -0.681 OA 
BRANCH  16  18
HETATM   18  O   UNL     1     -12.222  11.684  63.701  1.00  0.00    -0.404 OA 
BRANCH  18  19
HETATM   19 CA   UNL     1     -10.329  10.234  64.113  1.00  0.00    -0.303 Ca 
BRANCH  19  20
HETATM   20  O   UNL     1      -8.436   8.783  64.524  1.00  0.00    -0.171 OA 
BRANCH  20  21
HETATM   21  C   UNL     1      -7.418   9.525  64.995  1.00  0.00    -0.110 C  
HETATM   22  O   UNL     1      -6.849  10.271  64.217  1.00  0.00    -0.124 OA 
BRANCH  21  23
HETATM   23  C   UNL     1      -6.868   9.328  66.390  1.00  0.00    -0.083 C  
HETATM   24  H   UNL     1      -6.696   7.855  67.626  1.00  0.00     0.000 HD 
HETATM   25  O   UNL     1      -7.042   7.979  66.750  1.00  0.00    -0.077 OA 
BRANCH  23  26
HETATM   26  C   UNL     1      -7.518  10.233  67.480  1.00  0.00    -0.090 C  
HETATM   27  H   UNL     1      -8.748  11.732  67.526  1.00  0.00     0.000 HD 
HETATM   28  O   UNL     1      -8.351  11.180  66.862  1.00  0.00    -0.135 OA 
BRANCH  26  29
HETATM   29  C   UNL     1      -8.300   9.519  68.636  1.00  0.00    -0.117 C  
BRANCH  29  30
HETATM   30  O   UNL     1      -9.665   9.878  68.478  1.00  0.00    -0.149 OA 
BRANCH  30  31
HETATM   31  C   UNL     1     -10.607   8.889  68.843  1.00  0.00    -0.165 C  
HETATM   32  O   UNL     1     -10.560   8.663  70.242  1.00  0.00    -0.212 OA 
HETATM   33  C   UNL     1     -11.513   7.683  70.624  1.00  0.00    -0.258 C  
HETATM   34  H   UNL     1     -10.000   7.003  66.225  1.00  0.00     0.000 HD 
HETATM   35  C   UNL     1     -11.131   6.306  70.022  1.00  0.00    -0.388 C  
HETATM   36  O   UNL     1      -9.854   5.911  70.463  1.00  0.00    -0.173 OA 
HETATM   37  C   UNL     1     -11.136   6.431  68.484  1.00  0.00    -0.300 C  
HETATM   38  O   UNL     1     -10.240   7.795  66.691  1.00  0.00    -0.269 OA 
HETATM   39  H   UNL     1      -9.621   5.068  70.094  1.00  0.00     0.000 HD 
HETATM   40  O   UNL     1     -10.687   5.250  67.866  1.00  0.00    -0.096 OA 
HETATM   41  C   UNL     1     -10.216   7.596  68.083  1.00  0.00    -0.196 C  
HETATM   42  H   UNL     1     -10.691   5.327  66.919  1.00  0.00     0.000 HD 
BRANCH  33  43
HETATM   43  C   UNL     1     -11.568   7.649  72.159  1.00  0.00    -0.308 C  
HETATM   44  O   UNL     1     -11.756   6.343  72.634  1.00  0.00    -0.452 OA 
HETATM   45  H   UNL     1     -11.789   6.323  73.583  1.00  0.00     0.000 HD 
ENDBRANCH  33  43
ENDBRANCH  30  31
ENDBRANCH  29  30
BRANCH  29  46
HETATM   46  C   UNL     1      -7.781   9.799  70.090  1.00  0.00    -0.177 C  
HETATM   47  O   UNL     1      -7.221  11.088  70.188  1.00  0.00    -0.437 OA 
HETATM   48  H   UNL     1      -6.907  11.257  71.068  1.00  0.00     0.000 HD 
BRANCH  46  49
HETATM   49  C   UNL     1      -6.848   8.711  70.673  1.00  0.00    -0.045 C  
HETATM   50  H   UNL     1      -7.020   7.038  71.669  1.00  0.00     0.000 HD 
HETATM   51  O   UNL     1      -7.593   7.706  71.311  1.00  0.00    -0.077 OA 
ENDBRANCH  46  49
ENDBRANCH  29  46
ENDBRANCH  26  29
ENDBRANCH  23  26
ENDBRANCH  21  23
ENDBRANCH  20  21
ENDBRANCH  19  20
ENDBRANCH  18  19
ENDBRANCH  16  18
ENDBRANCH  13  16
ENDBRANCH  10  13
ENDBRANCH   7  10
ENDBRANCH   4   7
ENDBRANCH   2   4
TORSDOF 17
ENDMDL
MODEL       97
REMARK 921   NORMALIZED FREE ENERGY PREDICTED BY IDOCK:   -5.35 KCAL/MOL
REMARK 922        TOTAL FREE ENERGY PREDICTED BY IDOCK:  -14.10 KCAL/MOL
REMARK 923 INTER-LIGAND FREE ENERGY PREDICTED BY IDOCK:   -9.92 KCAL/MOL
REMARK 924 INTRA-LIGAND FREE ENERGY PREDICTED BY IDOCK:   -4.19 KCAL/MOL
REMARK 927      BINDING AFFINITY PREDICTED BY RF-SCORE:    0.00 PKD
ROOT
HETATM    1  O   UNL     1      -9.136   9.090  63.330  1.00  0.00    -0.418 OA 
HETATM    2  C   UNL     1      -8.059   8.206  63.182  1.00  0.00    -0.127 C  
HETATM    3  H   UNL     1      -9.763   8.951  62.630  1.00  0.00     0.000 HD 
ENDROOT
BRANCH   2   4
HETATM    4  C   UNL     1      -7.044   8.432  64.315  1.00  0.00    -0.082 C  
HETATM    5  O   UNL     1      -7.464   9.516  65.105  1.00  0.00    -0.102 OA 
HETATM    6  H   UNL     1      -6.837   9.655  65.805  1.00  0.00     0.000 HD 
BRANCH   4   7
HETATM    7  C   UNL     1      -6.894   7.170  65.206  1.00  0.00    -0.051 C  
HETATM    8  H   UNL     1      -5.700   6.554  66.611  1.00  0.00     0.000 HD 
HETATM    9  O   UNL     1      -5.792   7.327  66.066  1.00  0.00    -0.034 OA 
BRANCH   7  10
HETATM   10  C   UNL     1      -8.165   6.906  66.056  1.00  0.00    -0.125 C  
HETATM   11  H   UNL     1      -8.785   7.377  67.823  1.00  0.00     0.000 HD 
HETATM   12  O   UNL     1      -8.007   7.539  67.303  1.00  0.00    -0.114 OA 
BRANCH  10  13
HETATM   13  C   UNL     1      -8.449   5.396  66.291  1.00  0.00    -0.117 C  
HETATM   14  H   UNL     1      -8.355   4.145  67.773  1.00  0.00     0.000 HD 
HETATM   15  O   UNL     1      -8.181   5.068  67.630  1.00  0.00    -0.105 OA 
BRANCH  13  16
HETATM   16  C   UNL     1      -9.877   5.001  65.993  1.00  0.00    -0.188 C  
HETATM   17  O   UNL     1     -10.107   4.168  65.131  1.00  0.00    -0.205 OA 
BRANCH  16  18
HETATM   18  O   UNL     1     -10.907   5.562  66.657  1.00  0.00    -0.288 OA 
BRANCH  18  19
HETATM   19 CA   UNL     1     -10.571   7.675  67.788  1.00  0.00    -0.178 Ca 
BRANCH  19  20
HETATM   20  O   UNL     1     -10.235   9.787  68.920  1.00  0.00    -0.183 OA 
BRANCH  20  21
HETATM   21  C   UNL     1      -9.792  10.689  68.028  1.00  0.00    -0.160 C  
HETATM   22  O   UNL     1      -8.954  11.494  68.398  1.00  0.00    -0.167 OA 
BRANCH  21  23
HETATM   23  C   UNL     1     -10.423  10.834  66.661  1.00  0.00    -0.246 C  
HETATM   24  H   UNL     1     -10.661   9.710  65.109  1.00  0.00     0.000 HD 
HETATM   25  O   UNL     1     -10.265   9.620  65.968  1.00  0.00    -0.265 OA 
BRANCH  23  26
HETATM   26  C   UNL     1      -9.840  11.992  65.795  1.00  0.00    -0.242 C  
HETATM   27  H   UNL     1      -9.309  12.250  63.948  1.00  0.00     0.000 HD 
HETATM   28  O   UNL     1      -9.664  11.544  64.475  1.00  0.00    -0.238 OA 
BRANCH  26  29
HETATM   29  C   UNL     1     -10.624  13.350  65.789  1.00  0.00    -0.282 C  
BRANCH  29  30
HETATM   30  O   UNL     1     -11.538  13.291  66.874  1.00  0.00    -0.327 OA 
BRANCH  30  31
HETATM   31  C   UNL     1     -11.656  14.469  67.645  1.00  0.00    -0.378 C  
HETATM   32  O   UNL     1     -10.786  15.470  67.142  1.00  0.00    -0.316 OA 
HETATM   33  C   UNL     1     -10.905  16.665  67.898  1.00  0.00    -0.321 C  
HETATM   34  H   UNL     1     -11.851  12.869  70.504  1.00  0.00     0.000 HD 
HETATM   35  C   UNL     1     -10.395  16.435  69.344  1.00  0.00    -0.290 C  
HETATM   36  O   UNL     1      -9.049  16.023  69.332  1.00  0.00    -0.251 OA 
HETATM   37  C   UNL     1     -11.268  15.344  69.997  1.00  0.00    -0.300 C  
HETATM   38  O   UNL     1     -12.095  13.096  69.616  1.00  0.00    -0.301 OA 
HETATM   39  H   UNL     1      -8.737  15.882  70.218  1.00  0.00     0.000 HD 
HETATM   40  O   UNL     1     -10.795  14.996  71.276  1.00  0.00    -0.556 OA 
HETATM   41  C   UNL     1     -11.256  14.098  69.095  1.00  0.00    -0.272 C  
HETATM   42  H   UNL     1     -11.333  14.325  71.678  1.00  0.00     0.000 HD 
BRANCH  33  43
HETATM   43  C   UNL     1     -10.115  17.765  67.172  1.00  0.00    -0.338 C  
HETATM   44  O   UNL     1      -9.792  17.381  65.862  1.00  0.00    -0.501 OA 
HETATM   45  H   UNL     1      -9.305  18.061  65.414  1.00  0.00     0.000 HD 
ENDBRANCH  33  43
ENDBRANCH  30  31
ENDBRANCH  29  30
BRANCH  29  46
HETATM   46  C   UNL     1     -11.333  13.728  64.440  1.00  0.00    -0.360 C  
HETATM   47  O   UNL     1     -11.283  15.118  64.216  1.00  0.00    -0.653 OA 
HETATM   48  H   UNL     1     -11.712  15.346  63.400  1.00  0.00     0.000 HD 
BRANCH  46  49
HETATM   49  C   UNL     1     -12.760  13.158  64.269  1.00  0.00    -0.115 C  
HETATM   50  H   UNL     1     -13.647  11.763  63.225  1.00  0.00     0.000 HD 
HETATM   51  O   UNL     1     -12.770  12.114  63.331  1.00  0.00    -0.722 OA 
ENDBRANCH  46  49
ENDBRANCH  29  46
ENDBRANCH  26  29
ENDBRANCH  23  26
ENDBRANCH  21  23
ENDBRANCH  20  21
ENDBRANCH  19  20
ENDBRANCH  18  19
ENDBRANCH  16  18
ENDBRANCH  13  16
ENDBRANCH  10  13
ENDBRANCH   7  10
ENDBRANCH   4   7
ENDBRANCH   2   4
TORSDOF 17
ENDMDL
MODEL       98
REMARK 921   NORMALIZED FREE ENERGY PREDICTED BY IDOCK:   -5.34 KCAL/MOL
REMARK 922        TOTAL FREE ENERGY PREDICTED BY IDOCK:  -14.09 KCAL/MOL
REMARK 923 INTER-LIGAND FREE ENERGY PREDICTED BY IDOCK:  -11.08 KCAL/MOL
REMARK 924 INTRA-LIGAND FREE ENERGY PREDICTED BY IDOCK:   -3.01 KCAL/MOL
REMARK 927      BINDING AFFINITY PREDICTED BY RF-SCORE:    0.00 PKD
ROOT
HETATM    1  O   UNL     1     -10.580  19.912  65.432  1.00  0.00    -0.404 OA 
HETATM    2  C   UNL     1     -10.552  19.482  66.766  1.00  0.00    -0.488 C  
HETATM    3  H   UNL     1     -10.652  20.858  65.403  1.00  0.00     0.000 HD 
ENDROOT
BRANCH   2   4
HETATM    4  C   UNL     1     -10.434  17.949  66.814  1.00  0.00    -0.311 C  
HETATM    5  O   UNL     1      -9.712  17.504  65.693  1.00  0.00    -0.532 OA 
HETATM    6  H   UNL     1      -9.639  16.557  65.722  1.00  0.00     0.000 HD 
BRANCH   4   7
HETATM    7  C   UNL     1      -9.724  17.472  68.108  1.00  0.00    -0.302 C  
HETATM    8  H   UNL     1      -9.607  18.046  69.962  1.00  0.00     0.000 HD 
HETATM    9  O   UNL     1     -10.042  18.339  69.170  1.00  0.00    -0.347 OA 
BRANCH   7  10
HETATM   10  C   UNL     1     -10.136  16.026  68.496  1.00  0.00    -0.233 C  
HETATM   11  H   UNL     1      -9.917  14.262  67.741  1.00  0.00     0.000 HD 
HETATM   12  O   UNL     1      -9.665  15.147  67.503  1.00  0.00    -0.205 OA 
BRANCH  10  13
HETATM   13  C   UNL     1     -11.671  15.839  68.647  1.00  0.00    -0.344 C  
HETATM   14  H   UNL     1     -13.091  14.917  67.697  1.00  0.00     0.000 HD 
HETATM   15  O   UNL     1     -12.153  15.031  67.604  1.00  0.00    -0.202 OA 
BRANCH  13  16
HETATM   16  C   UNL     1     -12.072  15.199  69.955  1.00  0.00    -0.336 C  
HETATM   17  O   UNL     1     -12.923  15.728  70.652  1.00  0.00    -0.479 OA 
BRANCH  16  18
HETATM   18  O   UNL     1     -11.497  14.054  70.374  1.00  0.00    -0.185 OA 
BRANCH  18  19
HETATM   19 CA   UNL     1      -9.313  13.451  69.524  1.00  0.00    -0.366 Ca 
BRANCH  19  20
HETATM   20  O   UNL     1      -7.130  12.848  68.672  1.00  0.00    -0.095 OA 
BRANCH  20  21
HETATM   21  C   UNL     1      -6.704  11.747  69.315  1.00  0.00    -0.110 C  
HETATM   22  O   UNL     1      -5.520  11.670  69.595  1.00  0.00    -0.061 OA 
BRANCH  21  23
HETATM   23  C   UNL     1      -7.608  10.555  69.539  1.00  0.00    -0.145 C  
HETATM   24  H   UNL     1      -7.763   9.149  70.853  1.00  0.00     0.000 HD 
HETATM   25  O   UNL     1      -7.195   9.898  70.712  1.00  0.00    -0.305 OA 
BRANCH  23  26
HETATM   26  C   UNL     1      -7.635   9.530  68.365  1.00  0.00    -0.081 C  
HETATM   27  H   UNL     1      -7.174   7.665  68.103  1.00  0.00     0.000 HD 
HETATM   28  O   UNL     1      -7.157   8.289  68.818  1.00  0.00    -0.068 OA 
BRANCH  26  29
HETATM   29  C   UNL     1      -8.998   9.327  67.618  1.00  0.00    -0.119 C  
BRANCH  29  30
HETATM   30  O   UNL     1      -9.439  10.619  67.228  1.00  0.00    -0.157 OA 
BRANCH  30  31
HETATM   31  C   UNL     1     -10.205  10.677  66.042  1.00  0.00    -0.247 C  
HETATM   32  O   UNL     1      -9.353  10.817  64.918  1.00  0.00    -0.199 OA 
HETATM   33  C   UNL     1     -10.108  10.861  63.717  1.00  0.00    -0.353 C  
HETATM   34  H   UNL     1     -12.545  12.567  67.357  1.00  0.00     0.000 HD 
HETATM   35  C   UNL     1     -10.974  12.147  63.678  1.00  0.00    -0.461 C  
HETATM   36  O   UNL     1     -10.160  13.292  63.758  1.00  0.00    -0.712 OA 
HETATM   37  C   UNL     1     -11.945  12.114  64.877  1.00  0.00    -0.290 C  
HETATM   38  O   UNL     1     -11.978  11.809  67.282  1.00  0.00    -0.618 OA 
HETATM   39  H   UNL     1     -10.691  14.080  63.735  1.00  0.00     0.000 HD 
HETATM   40  O   UNL     1     -12.688  13.304  64.976  1.00  0.00    -0.623 OA 
HETATM   41  C   UNL     1     -11.130  11.914  66.165  1.00  0.00    -0.326 C  
HETATM   42  H   UNL     1     -13.287  13.283  65.714  1.00  0.00     0.000 HD 
BRANCH  33  43
HETATM   43  C   UNL     1      -9.127  10.787  62.537  1.00  0.00    -0.312 C  
HETATM   44  O   UNL     1      -8.051  11.669  62.712  1.00  0.00    -0.390 OA 
HETATM   45  H   UNL     1      -7.445  11.622  61.983  1.00  0.00     0.000 HD 
ENDBRANCH  33  43
ENDBRANCH  30  31
ENDBRANCH  29  30
BRANCH  29  46
HETATM   46  C   UNL     1     -10.103   8.539  68.407  1.00  0.00    -0.194 C  
HETATM   47  O   UNL     1     -10.005   8.783  69.791  1.00  0.00    -0.182 OA 
HETATM   48  H   UNL     1     -10.673   8.307  70.268  1.00  0.00     0.000 HD 
BRANCH  46  49
HETATM   49  C   UNL     1     -10.188   7.030  68.083  1.00  0.00    -0.181 C  
HETATM   50  H   UNL     1      -9.303   5.750  66.900  1.00  0.00     0.000 HD 
HETATM   51  O   UNL     1      -9.251   6.677  67.100  1.00  0.00    -0.121 OA 
ENDBRANCH  46  49
ENDBRANCH  29  46
ENDBRANCH  26  29
ENDBRANCH  23  26
ENDBRANCH  21  23
ENDBRANCH  20  21
ENDBRANCH  19  20
ENDBRANCH  18  19
ENDBRANCH  16  18
ENDBRANCH  13  16
ENDBRANCH  10  13
ENDBRANCH   7  10
ENDBRANCH   4   7
ENDBRANCH   2   4
TORSDOF 17
ENDMDL
MODEL       99
REMARK 921   NORMALIZED FREE ENERGY PREDICTED BY IDOCK:   -5.34 KCAL/MOL
REMARK 922        TOTAL FREE ENERGY PREDICTED BY IDOCK:  -14.08 KCAL/MOL
REMARK 923 INTER-LIGAND FREE ENERGY PREDICTED BY IDOCK:  -10.16 KCAL/MOL
REMARK 924 INTRA-LIGAND FREE ENERGY PREDICTED BY IDOCK:   -3.92 KCAL/MOL
REMARK 927      BINDING AFFINITY PREDICTED BY RF-SCORE:    0.00 PKD
ROOT
HETATM    1  O   UNL     1     -11.709   5.654  73.062  1.00  0.00    -0.516 OA 
HETATM    2  C   UNL     1     -10.509   6.375  72.997  1.00  0.00    -0.230 C  
HETATM    3  H   UNL     1     -12.058   5.691  73.945  1.00  0.00     0.000 HD 
ENDROOT
BRANCH   2   4
HETATM    4  C   UNL     1      -9.945   6.315  71.568  1.00  0.00    -0.184 C  
HETATM    5  O   UNL     1      -8.813   5.482  71.550  1.00  0.00    -0.134 OA 
HETATM    6  H   UNL     1      -8.465   5.445  70.666  1.00  0.00     0.000 HD 
BRANCH   4   7
HETATM    7  C   UNL     1     -10.998   5.779  70.562  1.00  0.00    -0.249 C  
HETATM    8  H   UNL     1     -12.796   6.254  69.995  1.00  0.00     0.000 HD 
HETATM    9  O   UNL     1     -12.152   6.582  70.611  1.00  0.00    -0.366 OA 
BRANCH   7  10
HETATM   10  C   UNL     1     -10.455   5.763  69.108  1.00  0.00    -0.276 C  
HETATM   11  H   UNL     1      -9.309   4.616  68.059  1.00  0.00     0.000 HD 
HETATM   12  O   UNL     1      -9.641   4.626  68.949  1.00  0.00    -0.142 OA 
BRANCH  10  13
HETATM   13  C   UNL     1      -9.631   7.027  68.741  1.00  0.00    -0.139 C  
HETATM   14  H   UNL     1      -7.973   7.424  67.810  1.00  0.00     0.000 HD 
HETATM   15  O   UNL     1      -8.477   6.650  68.035  1.00  0.00    -0.116 OA 
BRANCH  13  16
HETATM   16  C   UNL     1     -10.394   8.015  67.890  1.00  0.00    -0.222 C  
HETATM   17  O   UNL     1     -10.798   9.056  68.385  1.00  0.00    -0.136 OA 
BRANCH  16  18
HETATM   18  O   UNL     1     -10.650   7.763  66.590  1.00  0.00    -0.276 OA 
BRANCH  18  19
HETATM   19 CA   UNL     1     -10.846   9.616  65.047  1.00  0.00    -0.139 Ca 
BRANCH  19  20
HETATM   20  O   UNL     1     -11.043  11.470  63.504  1.00  0.00    -0.407 OA 
BRANCH  20  21
HETATM   21  C   UNL     1     -12.145  12.175  63.815  1.00  0.00    -0.525 C  
HETATM   22  O   UNL     1     -13.193  11.865  63.274  1.00  0.00    -0.602 OA 
BRANCH  21  23
HETATM   23  C   UNL     1     -12.078  13.423  64.667  1.00  0.00    -0.410 C  
HETATM   24  H   UNL     1     -12.378  15.311  64.400  1.00  0.00     0.000 HD 
HETATM   25  O   UNL     1     -12.420  14.527  63.865  1.00  0.00    -0.814 OA 
BRANCH  23  26
HETATM   26  C   UNL     1     -10.691  13.686  65.328  1.00  0.00    -0.336 C  
HETATM   27  H   UNL     1      -9.457  15.173  65.488  1.00  0.00     0.000 HD 
HETATM   28  O   UNL     1     -10.302  15.013  65.084  1.00  0.00    -0.379 OA 
BRANCH  26  29
HETATM   29  C   UNL     1     -10.552  13.370  66.858  1.00  0.00    -0.273 C  
BRANCH  29  30
HETATM   30  O   UNL     1     -10.118  12.021  66.951  1.00  0.00    -0.203 OA 
BRANCH  30  31
HETATM   31  C   UNL     1      -8.855  11.740  66.384  1.00  0.00    -0.170 C  
HETATM   32  O   UNL     1      -8.929  10.575  65.580  1.00  0.00    -0.168 OA 
HETATM   33  C   UNL     1      -7.670  10.290  64.990  1.00  0.00    -0.129 C  
HETATM   34  H   UNL     1      -7.191  12.507  69.108  1.00  0.00     0.000 HD 
HETATM   35  C   UNL     1      -6.642   9.908  66.087  1.00  0.00    -0.084 C  
HETATM   36  O   UNL     1      -7.084   8.783  66.808  1.00  0.00    -0.079 OA 
HETATM   37  C   UNL     1      -6.484  11.110  67.042  1.00  0.00    -0.107 C  
HETATM   38  O   UNL     1      -7.791  12.648  68.386  1.00  0.00    -0.136 OA 
HETATM   39  H   UNL     1      -6.454   8.550  67.480  1.00  0.00     0.000 HD 
HETATM   40  O   UNL     1      -5.651  10.800  68.132  1.00  0.00    -0.037 OA 
HETATM   41  C   UNL     1      -7.875  11.510  67.562  1.00  0.00    -0.133 C  
HETATM   42  H   UNL     1      -5.554  11.540  68.720  1.00  0.00     0.000 HD 
BRANCH  33  43
HETATM   43  C   UNL     1      -7.871   9.162  63.966  1.00  0.00    -0.129 C  
HETATM   44  O   UNL     1      -8.814   8.227  64.416  1.00  0.00    -0.406 OA 
HETATM   45  H   UNL     1      -8.939   7.531  63.783  1.00  0.00     0.000 HD 
ENDBRANCH  33  43
ENDBRANCH  30  31
ENDBRANCH  29  30
BRANCH  29  46
HETATM   46  C   UNL     1     -11.826  13.641  67.733  1.00  0.00    -0.368 C  
HETATM   47  O   UNL     1     -12.090  15.022  67.826  1.00  0.00    -0.502 OA 
HETATM   48  H   UNL     1     -12.861  15.187  68.356  1.00  0.00     0.000 HD 
BRANCH  46  49
HETATM   49  C   UNL     1     -11.829  12.951  69.117  1.00  0.00    -0.303 C  
HETATM   50  H   UNL     1     -12.324  13.392  70.955  1.00  0.00     0.000 HD 
HETATM   51  O   UNL     1     -12.323  13.817  70.105  1.00  0.00    -0.335 OA 
ENDBRANCH  46  49
ENDBRANCH  29  46
ENDBRANCH  26  29
ENDBRANCH  23  26
ENDBRANCH  21  23
ENDBRANCH  20  21
ENDBRANCH  19  20
ENDBRANCH  18  19
ENDBRANCH  16  18
ENDBRANCH  13  16
ENDBRANCH  10  13
ENDBRANCH   7  10
ENDBRANCH   4   7
ENDBRANCH   2   4
TORSDOF 17
ENDMDL
MODEL      100
REMARK 921   NORMALIZED FREE ENERGY PREDICTED BY IDOCK:   -5.33 KCAL/MOL
REMARK 922        TOTAL FREE ENERGY PREDICTED BY IDOCK:  -14.07 KCAL/MOL
REMARK 923 INTER-LIGAND FREE ENERGY PREDICTED BY IDOCK:  -11.62 KCAL/MOL
REMARK 924 INTRA-LIGAND FREE ENERGY PREDICTED BY IDOCK:   -2.45 KCAL/MOL
REMARK 927      BINDING AFFINITY PREDICTED BY RF-SCORE:    0.00 PKD
ROOT
HETATM    1  O   UNL     1     -12.685  15.216  69.780  1.00  0.00    -0.593 OA 
HETATM    2  C   UNL     1     -11.382  15.523  69.362  1.00  0.00    -0.316 C  
HETATM    3  H   UNL     1     -12.728  15.229  70.729  1.00  0.00     0.000 HD 
ENDROOT
BRANCH   2   4
HETATM    4  C   UNL     1     -11.313  15.503  67.826  1.00  0.00    -0.286 C  
HETATM    5  O   UNL     1     -10.341  16.422  67.393  1.00  0.00    -0.283 OA 
HETATM    6  H   UNL     1     -10.298  16.410  66.444  1.00  0.00     0.000 HD 
BRANCH   4   7
HETATM    7  C   UNL     1     -10.962  14.090  67.289  1.00  0.00    -0.295 C  
HETATM    8  H   UNL     1     -10.541  12.346  68.040  1.00  0.00     0.000 HD 
HETATM    9  O   UNL     1     -10.756  13.211  68.369  1.00  0.00    -0.239 OA 
BRANCH   7  10
HETATM   10  C   UNL     1     -12.084  13.520  66.382  1.00  0.00    -0.417 C  
HETATM   11  H   UNL     1     -12.893  11.792  66.080  1.00  0.00     0.000 HD 
HETATM   12  O   UNL     1     -12.206  12.141  66.636  1.00  0.00    -0.566 OA 
BRANCH  10  13
HETATM   13  C   UNL     1     -11.820  13.730  64.865  1.00  0.00    -0.375 C  
HETATM   14  H   UNL     1     -10.355  14.347  63.749  1.00  0.00     0.000 HD 
HETATM   15  O   UNL     1     -10.517  14.219  64.676  1.00  0.00    -0.425 OA 
BRANCH  13  16
HETATM   16  C   UNL     1     -11.963  12.466  64.050  1.00  0.00    -0.460 C  
HETATM   17  O   UNL     1     -13.054  12.162  63.591  1.00  0.00    -0.787 OA 
BRANCH  16  18
HETATM   18  O   UNL     1     -10.909  11.656  63.829  1.00  0.00    -0.359 OA 
BRANCH  18  19
HETATM   19 CA   UNL     1      -9.249  11.379  65.569  1.00  0.00    -0.186 Ca 
BRANCH  19  20
HETATM   20  O   UNL     1      -7.590  11.103  67.308  1.00  0.00    -0.113 OA 
BRANCH  20  21
HETATM   21  C   UNL     1      -8.043  10.204  68.198  1.00  0.00    -0.105 C  
HETATM   22  O   UNL     1      -8.019  10.508  69.379  1.00  0.00    -0.153 OA 
BRANCH  21  23
HETATM   23  C   UNL     1      -8.411   8.795  67.791  1.00  0.00    -0.118 C  
HETATM   24  H   UNL     1      -7.845   7.543  66.435  1.00  0.00     0.000 HD 
HETATM   25  O   UNL     1      -7.615   8.428  66.691  1.00  0.00    -0.087 OA 
BRANCH  23  26
HETATM   26  C   UNL     1      -9.912   8.595  67.421  1.00  0.00    -0.210 C  
HETATM   27  H   UNL     1     -11.040   8.889  65.871  1.00  0.00     0.000 HD 
HETATM   28  O   UNL     1     -10.125   9.011  66.097  1.00  0.00    -0.290 OA 
BRANCH  26  29
HETATM   29  C   UNL     1     -10.520   7.165  67.627  1.00  0.00    -0.239 C  
BRANCH  29  30
HETATM   30  O   UNL     1     -10.150   6.756  68.936  1.00  0.00    -0.154 OA 
BRANCH  30  31
HETATM   31  C   UNL     1     -11.172   6.812  69.910  1.00  0.00    -0.326 C  
HETATM   32  O   UNL     1     -11.371   8.152  70.332  1.00  0.00    -0.259 OA 
HETATM   33  C   UNL     1     -12.406   8.225  71.300  1.00  0.00    -0.263 C  
HETATM   34  H   UNL     1     -10.195   4.079  71.443  1.00  0.00     0.000 HD 
HETATM   35  C   UNL     1     -11.974   7.497  72.599  1.00  0.00    -0.110 C  
HETATM   36  O   UNL     1     -10.804   8.076  73.124  1.00  0.00    -0.335 OA 
HETATM   37  C   UNL     1     -11.715   6.014  72.259  1.00  0.00    -0.284 C  
HETATM   38  O   UNL     1     -10.483   4.611  70.712  1.00  0.00    -0.121 OA 
HETATM   39  H   UNL     1     -10.540   7.629  73.920  1.00  0.00     0.000 HD 
HETATM   40  O   UNL     1     -11.208   5.309  73.366  1.00  0.00    -0.372 OA 
HETATM   41  C   UNL     1     -10.702   5.944  71.105  1.00  0.00    -0.265 C  
HETATM   42  H   UNL     1     -11.048   4.396  73.157  1.00  0.00     0.000 HD 
BRANCH  33  43
HETATM   43  C   UNL     1     -12.722   9.709  71.545  1.00  0.00    -0.387 C  
HETATM   44  O   UNL     1     -13.599   9.872  72.627  1.00  0.00    -0.645 OA 
HETATM   45  H   UNL     1     -13.793  10.789  72.778  1.00  0.00     0.000 HD 
ENDBRANCH  33  43
ENDBRANCH  30  31
ENDBRANCH  29  30
BRANCH  29  46
HETATM   46  C   UNL     1     -10.138   6.094  66.545  1.00  0.00    -0.121 C  
HETATM   47  O   UNL     1     -11.291   5.526  65.968  1.00  0.00    -0.753 OA 
HETATM   48  H   UNL     1     -11.060   4.878  65.314  1.00  0.00     0.000 HD 
BRANCH  46  49
HETATM   49  C   UNL     1      -9.128   5.021  67.014  1.00  0.00    -0.117 C  
HETATM   50  H   UNL     1      -9.105   3.091  67.325  1.00  0.00     0.000 HD 
HETATM   51  O   UNL     1      -9.725   3.751  67.037  1.00  0.00    -0.212 OA 
ENDBRANCH  46  49
ENDBRANCH  29  46
ENDBRANCH  26  29
ENDBRANCH  23  26
ENDBRANCH  21  23
ENDBRANCH  20  21
ENDBRANCH  19  20
ENDBRANCH  18  19
ENDBRANCH  16  18
ENDBRANCH  13  16
ENDBRANCH  10  13
ENDBRANCH   7  10
ENDBRANCH   4   7
ENDBRANCH   2   4
TORSDOF 17
ENDMDL
MODEL      101
REMARK 921   NORMALIZED FREE ENERGY PREDICTED BY IDOCK:   -5.31 KCAL/MOL
REMARK 922        TOTAL FREE ENERGY PREDICTED BY IDOCK:  -14.03 KCAL/MOL
REMARK 923 INTER-LIGAND FREE ENERGY PREDICTED BY IDOCK:  -10.83 KCAL/MOL
REMARK 924 INTRA-LIGAND FREE ENERGY PREDICTED BY IDOCK:   -3.20 KCAL/MOL
REMARK 927      BINDING AFFINITY PREDICTED BY RF-SCORE:    0.00 PKD
ROOT
HETATM    1  O   UNL     1     -14.181   8.745  72.964  1.00  0.00    -1.075 OA 
HETATM    2  C   UNL     1     -13.327   9.668  72.346  1.00  0.00    -0.338 C  
HETATM    3  H   UNL     1     -14.705   9.185  73.623  1.00  0.00     0.000 HD 
ENDROOT
BRANCH   2   4
HETATM    4  C   UNL     1     -12.479   8.955  71.279  1.00  0.00    -0.272 C  
HETATM    5  O   UNL     1     -12.274   9.822  70.192  1.00  0.00    -0.470 OA 
HETATM    6  H   UNL     1     -11.750   9.381  69.533  1.00  0.00     0.000 HD 
BRANCH   4   7
HETATM    7  C   UNL     1     -11.107   8.506  71.848  1.00  0.00    -0.325 C  
HETATM    8  H   UNL     1     -10.459   7.537  73.405  1.00  0.00     0.000 HD 
HETATM    9  O   UNL     1     -11.300   7.811  73.057  1.00  0.00    -0.399 OA 
BRANCH   7  10
HETATM   10  C   UNL     1     -10.339   7.592  70.857  1.00  0.00    -0.201 C  
HETATM   11  H   UNL     1      -9.668   7.742  69.052  1.00  0.00     0.000 HD 
HETATM   12  O   UNL     1     -10.138   8.302  69.659  1.00  0.00    -0.190 OA 
BRANCH  10  13
HETATM   13  C   UNL     1     -11.081   6.265  70.537  1.00  0.00    -0.335 C  
HETATM   14  H   UNL     1     -11.878   5.422  68.979  1.00  0.00     0.000 HD 
HETATM   15  O   UNL     1     -11.424   6.233  69.175  1.00  0.00    -0.394 OA 
BRANCH  13  16
HETATM   16  C   UNL     1     -10.263   5.031  70.838  1.00  0.00    -0.217 C  
HETATM   17  O   UNL     1     -10.357   4.495  71.931  1.00  0.00    -0.189 OA 
BRANCH  16  18
HETATM   18  O   UNL     1      -9.418   4.515  69.923  1.00  0.00    -0.138 OA 
BRANCH  18  19
HETATM   19 CA   UNL     1      -8.884   5.810  67.950  1.00  0.00    -0.110 Ca 
BRANCH  19  20
HETATM   20  O   UNL     1      -8.350   7.104  65.976  1.00  0.00    -0.121 OA 
BRANCH  20  21
HETATM   21  C   UNL     1      -7.058   7.472  66.037  1.00  0.00    -0.069 C  
HETATM   22  O   UNL     1      -6.213   6.594  66.006  1.00  0.00    -0.038 OA 
BRANCH  21  23
HETATM   23  C   UNL     1      -6.649   8.901  66.313  1.00  0.00    -0.066 C  
HETATM   24  H   UNL     1      -5.314   9.786  67.391  1.00  0.00     0.000 HD 
HETATM   25  O   UNL     1      -5.572   8.888  67.218  1.00  0.00    -0.037 OA 
BRANCH  23  26
HETATM   26  C   UNL     1      -7.783   9.804  66.886  1.00  0.00    -0.098 C  
HETATM   27  H   UNL     1      -8.060  10.902  68.460  1.00  0.00     0.000 HD 
HETATM   28  O   UNL     1      -7.369  10.351  68.112  1.00  0.00    -0.086 OA 
BRANCH  26  29
HETATM   29  C   UNL     1      -8.332  10.944  65.960  1.00  0.00    -0.165 C  
BRANCH  29  30
HETATM   30  O   UNL     1      -8.485  12.091  66.783  1.00  0.00    -0.183 OA 
BRANCH  30  31
HETATM   31  C   UNL     1      -9.726  12.760  66.682  1.00  0.00    -0.252 C  
HETATM   32  O   UNL     1      -9.535  14.067  66.167  1.00  0.00    -0.263 OA 
HETATM   33  C   UNL     1     -10.776  14.745  66.046  1.00  0.00    -0.312 C  
HETATM   34  H   UNL     1     -10.861  11.595  69.534  1.00  0.00     0.000 HD 
HETATM   35  C   UNL     1     -11.387  14.995  67.449  1.00  0.00    -0.332 C  
HETATM   36  O   UNL     1     -10.512  15.763  68.238  1.00  0.00    -0.246 OA 
HETATM   37  C   UNL     1     -11.631  13.628  68.121  1.00  0.00    -0.332 C  
HETATM   38  O   UNL     1     -10.501  11.550  68.657  1.00  0.00    -0.191 OA 
HETATM   39  H   UNL     1     -10.886  15.916  69.098  1.00  0.00     0.000 HD 
HETATM   40  O   UNL     1     -12.080  13.773  69.446  1.00  0.00    -0.326 OA 
HETATM   41  C   UNL     1     -10.313  12.834  68.114  1.00  0.00    -0.239 C  
HETATM   42  H   UNL     1     -12.230  12.931  69.859  1.00  0.00     0.000 HD 
BRANCH  33  43
HETATM   43  C   UNL     1     -10.527  16.054  65.280  1.00  0.00    -0.358 C  
HETATM   44  O   UNL     1     -11.240  16.082  64.072  1.00  0.00    -1.078 OA 
HETATM   45  H   UNL     1     -11.087  16.891  63.600  1.00  0.00     0.000 HD 
ENDBRANCH  33  43
ENDBRANCH  30  31
ENDBRANCH  29  30
BRANCH  29  46
HETATM   46  C   UNL     1      -9.643  10.610  65.164  1.00  0.00    -0.251 C  
HETATM   47  O   UNL     1     -10.121   9.326  65.494  1.00  0.00    -0.404 OA 
HETATM   48  H   UNL     1     -10.914   9.124  65.013  1.00  0.00     0.000 HD 
BRANCH  46  49
HETATM   49  C   UNL     1      -9.554  10.826  63.636  1.00  0.00    -0.305 C  
HETATM   50  H   UNL     1     -10.045  12.200  62.335  1.00  0.00     0.000 HD 
HETATM   51  O   UNL     1     -10.100  12.067  63.275  1.00  0.00    -0.430 OA 
ENDBRANCH  46  49
ENDBRANCH  29  46
ENDBRANCH  26  29
ENDBRANCH  23  26
ENDBRANCH  21  23
ENDBRANCH  20  21
ENDBRANCH  19  20
ENDBRANCH  18  19
ENDBRANCH  16  18
ENDBRANCH  13  16
ENDBRANCH  10  13
ENDBRANCH   7  10
ENDBRANCH   4   7
ENDBRANCH   2   4
TORSDOF 17
ENDMDL
MODEL      102
REMARK 921   NORMALIZED FREE ENERGY PREDICTED BY IDOCK:   -5.30 KCAL/MOL
REMARK 922        TOTAL FREE ENERGY PREDICTED BY IDOCK:  -14.02 KCAL/MOL
REMARK 923 INTER-LIGAND FREE ENERGY PREDICTED BY IDOCK:  -11.04 KCAL/MOL
REMARK 924 INTRA-LIGAND FREE ENERGY PREDICTED BY IDOCK:   -2.97 KCAL/MOL
REMARK 927      BINDING AFFINITY PREDICTED BY RF-SCORE:    0.00 PKD
ROOT
HETATM    1  O   UNL     1      -8.799   7.595  64.989  1.00  0.00    -0.376 OA 
HETATM    2  C   UNL     1      -8.174   8.821  65.255  1.00  0.00    -0.144 C  
HETATM    3  H   UNL     1      -8.208   6.882  65.201  1.00  0.00     0.000 HD 
ENDROOT
BRANCH   2   4
HETATM    4  C   UNL     1      -9.131   9.975  64.912  1.00  0.00    -0.221 C  
HETATM    5  O   UNL     1      -9.597   9.816  63.595  1.00  0.00    -0.464 OA 
HETATM    6  H   UNL     1     -10.188  10.530  63.383  1.00  0.00     0.000 HD 
BRANCH   4   7
HETATM    7  C   UNL     1     -10.338  10.023  65.885  1.00  0.00    -0.132 C  
HETATM    8  H   UNL     1     -10.703   9.517  67.727  1.00  0.00     0.000 HD 
HETATM    9  O   UNL     1      -9.963   9.488  67.131  1.00  0.00    -0.179 OA 
BRANCH   7  10
HETATM   10  C   UNL     1     -10.858  11.471  66.094  1.00  0.00    -0.278 C  
HETATM   11  H   UNL     1     -12.031  12.367  67.339  1.00  0.00     0.000 HD 
HETATM   12  O   UNL     1     -11.713  11.481  67.211  1.00  0.00    -0.576 OA 
BRANCH  10  13
HETATM   13  C   UNL     1     -11.627  12.035  64.867  1.00  0.00    -0.273 C  
HETATM   14  H   UNL     1     -13.367  12.824  64.520  1.00  0.00     0.000 HD 
HETATM   15  O   UNL     1     -12.897  12.479  65.270  1.00  0.00    -0.613 OA 
BRANCH  13  16
HETATM   16  C   UNL     1     -10.922  13.190  64.196  1.00  0.00    -0.390 C  
HETATM   17  O   UNL     1      -9.792  13.037  63.758  1.00  0.00    -0.178 OA 
BRANCH  16  18
HETATM   18  O   UNL     1     -11.514  14.395  64.080  1.00  0.00    -0.250 OA 
BRANCH  18  19
HETATM   19 CA   UNL     1     -10.460  16.328  65.084  1.00  0.00    -0.298 Ca 
BRANCH  19  20
HETATM   20  O   UNL     1      -9.406  18.262  66.086  1.00  0.00    -0.469 OA 
BRANCH  20  21
HETATM   21  C   UNL     1      -8.149  17.936  66.435  1.00  0.00    -0.261 C  
HETATM   22  O   UNL     1      -7.431  17.440  65.583  1.00  0.00    -0.408 OA 
BRANCH  21  23
HETATM   23  C   UNL     1      -7.675  18.010  67.869  1.00  0.00    -0.230 C  
HETATM   24  H   UNL     1      -6.606  19.223  68.924  1.00  0.00     0.000 HD 
HETATM   25  O   UNL     1      -6.904  19.177  68.023  1.00  0.00    -0.224 OA 
BRANCH  23  26
HETATM   26  C   UNL     1      -6.839  16.782  68.342  1.00  0.00    -0.160 C  
HETATM   27  H   UNL     1      -5.964  16.209  69.974  1.00  0.00     0.000 HD 
HETATM   28  O   UNL     1      -6.473  16.957  69.687  1.00  0.00    -0.232 OA 
BRANCH  26  29
HETATM   29  C   UNL     1      -7.474  15.362  68.150  1.00  0.00    -0.115 C  
BRANCH  29  30
HETATM   30  O   UNL     1      -8.249  15.108  69.313  1.00  0.00    -0.204 OA 
BRANCH  30  31
HETATM   31  C   UNL     1      -9.574  15.600  69.288  1.00  0.00    -0.268 C  
HETATM   32  O   UNL     1     -10.170  15.459  70.567  1.00  0.00    -0.187 OA 
HETATM   33  C   UNL     1     -11.497  15.963  70.561  1.00  0.00    -0.392 C  
HETATM   34  H   UNL     1     -10.243  14.343  66.330  1.00  0.00     0.000 HD 
HETATM   35  C   UNL     1     -12.394  15.091  69.646  1.00  0.00    -0.203 C  
HETATM   36  O   UNL     1     -12.405  13.756  70.091  1.00  0.00    -0.335 OA 
HETATM   37  C   UNL     1     -11.831  15.156  68.211  1.00  0.00    -0.250 C  
HETATM   38  O   UNL     1      -9.769  14.862  66.968  1.00  0.00    -0.226 OA 
HETATM   39  H   UNL     1     -12.955  13.222  69.530  1.00  0.00     0.000 HD 
HETATM   40  O   UNL     1     -12.526  14.297  67.340  1.00  0.00    -0.588 OA 
HETATM   41  C   UNL     1     -10.347  14.752  68.246  1.00  0.00    -0.238 C  
HETATM   42  H   UNL     1     -12.179  14.338  66.457  1.00  0.00     0.000 HD 
BRANCH  33  43
HETATM   43  C   UNL     1     -12.001  15.988  72.013  1.00  0.00    -0.537 C  
HETATM   44  O   UNL     1     -13.371  15.698  72.082  1.00  0.00    -0.429 OA 
HETATM   45  H   UNL     1     -13.682  15.713  72.979  1.00  0.00     0.000 HD 
ENDBRANCH  33  43
ENDBRANCH  30  31
ENDBRANCH  29  30
BRANCH  29  46
HETATM   46  C   UNL     1      -6.469  14.196  67.845  1.00  0.00    -0.165 C  
HETATM   47  O   UNL     1      -7.010  13.295  66.906  1.00  0.00    -0.385 OA 
HETATM   48  H   UNL     1      -6.402  12.590  66.721  1.00  0.00     0.000 HD 
BRANCH  46  49
HETATM   49  C   UNL     1      -5.908  13.473  69.091  1.00  0.00    -0.085 C  
HETATM   50  H   UNL     1      -5.967  11.685  69.879  1.00  0.00     0.000 HD 
HETATM   51  O   UNL     1      -6.312  12.129  69.113  1.00  0.00    -0.079 OA 
ENDBRANCH  46  49
ENDBRANCH  29  46
ENDBRANCH  26  29
ENDBRANCH  23  26
ENDBRANCH  21  23
ENDBRANCH  20  21
ENDBRANCH  19  20
ENDBRANCH  18  19
ENDBRANCH  16  18
ENDBRANCH  13  16
ENDBRANCH  10  13
ENDBRANCH   7  10
ENDBRANCH   4   7
ENDBRANCH   2   4
TORSDOF 17
ENDMDL
MODEL      103
REMARK 921   NORMALIZED FREE ENERGY PREDICTED BY IDOCK:   -5.29 KCAL/MOL
REMARK 922        TOTAL FREE ENERGY PREDICTED BY IDOCK:  -14.00 KCAL/MOL
REMARK 923 INTER-LIGAND FREE ENERGY PREDICTED BY IDOCK:  -10.40 KCAL/MOL
REMARK 924 INTRA-LIGAND FREE ENERGY PREDICTED BY IDOCK:   -3.59 KCAL/MOL
REMARK 927      BINDING AFFINITY PREDICTED BY RF-SCORE:    0.00 PKD
ROOT
HETATM    1  O   UNL     1     -12.285  16.513  72.486  1.00  0.00    -0.499 OA 
HETATM    2  C   UNL     1     -11.893  15.253  72.959  1.00  0.00    -0.392 C  
HETATM    3  H   UNL     1     -11.737  17.185  72.875  1.00  0.00     0.000 HD 
ENDROOT
BRANCH   2   4
HETATM    4  C   UNL     1     -12.780  14.165  72.328  1.00  0.00    -0.275 C  
HETATM    5  O   UNL     1     -14.012  14.122  73.003  1.00  0.00    -0.505 OA 
HETATM    6  H   UNL     1     -14.560  13.450  72.613  1.00  0.00     0.000 HD 
BRANCH   4   7
HETATM    7  C   UNL     1     -13.025  14.434  70.820  1.00  0.00    -0.326 C  
HETATM    8  H   UNL     1     -13.898  15.794  69.740  1.00  0.00     0.000 HD 
HETATM    9  O   UNL     1     -13.748  15.631  70.663  1.00  0.00    -0.402 OA 
BRANCH   7  10
HETATM   10  C   UNL     1     -11.696  14.538  70.025  1.00  0.00    -0.301 C  
HETATM   11  H   UNL     1     -10.645  15.958  69.245  1.00  0.00     0.000 HD 
HETATM   12  O   UNL     1     -11.458  15.894  69.731  1.00  0.00    -0.308 OA 
BRANCH  10  13
HETATM   13  C   UNL     1     -11.703  13.730  68.699  1.00  0.00    -0.356 C  
HETATM   14  H   UNL     1     -11.098  13.990  66.872  1.00  0.00     0.000 HD 
HETATM   15  O   UNL     1     -11.094  14.484  67.683  1.00  0.00    -0.285 OA 
BRANCH  13  16
HETATM   16  C   UNL     1     -10.975  12.410  68.797  1.00  0.00    -0.246 C  
HETATM   17  O   UNL     1      -9.856  12.299  68.321  1.00  0.00    -0.210 OA 
BRANCH  16  18
HETATM   18  O   UNL     1     -11.545  11.343  69.392  1.00  0.00    -0.264 OA 
BRANCH  18  19
HETATM   19 CA   UNL     1     -10.257  10.058  70.988  1.00  0.00    -0.251 Ca 
BRANCH  19  20
HETATM   20  O   UNL     1      -8.970   8.773  72.585  1.00  0.00    -0.380 OA 
BRANCH  20  21
HETATM   21  C   UNL     1      -7.802   8.425  72.017  1.00  0.00    -0.127 C  
HETATM   22  O   UNL     1      -6.987   7.835  72.706  1.00  0.00    -0.067 OA 
BRANCH  21  23
HETATM   23  C   UNL     1      -7.420   8.891  70.631  1.00  0.00    -0.091 C  
HETATM   24  H   UNL     1      -7.700  10.476  69.566  1.00  0.00     0.000 HD 
HETATM   25  O   UNL     1      -7.941  10.183  70.437  1.00  0.00    -0.181 OA 
BRANCH  23  26
HETATM   26  C   UNL     1      -7.910   7.966  69.475  1.00  0.00    -0.110 C  
HETATM   27  H   UNL     1      -7.822   6.079  69.037  1.00  0.00     0.000 HD 
HETATM   28  O   UNL     1      -7.523   6.643  69.741  1.00  0.00    -0.087 OA 
BRANCH  26  29
HETATM   29  C   UNL     1      -9.436   8.007  69.119  1.00  0.00    -0.155 C  
BRANCH  29  30
HETATM   30  O   UNL     1      -9.903   6.668  69.202  1.00  0.00    -0.147 OA 
BRANCH  30  31
HETATM   31  C   UNL     1     -11.011   6.454  70.054  1.00  0.00    -0.337 C  
HETATM   32  O   UNL     1     -11.495   7.693  70.544  1.00  0.00    -0.274 OA 
HETATM   33  C   UNL     1     -12.618   7.494  71.390  1.00  0.00    -0.351 C  
HETATM   34  H   UNL     1      -9.702   3.807  71.489  1.00  0.00     0.000 HD 
HETATM   35  C   UNL     1     -12.190   6.738  72.674  1.00  0.00     0.226 C  
HETATM   36  O   UNL     1     -11.206   7.464  73.370  1.00  0.00    -0.587 OA 
HETATM   37  C   UNL     1     -11.628   5.361  72.261  1.00  0.00    -0.034 C  
HETATM   38  O   UNL     1     -10.009   4.345  70.769  1.00  0.00    -0.204 OA 
HETATM   39  H   UNL     1     -10.945   7.000  74.157  1.00  0.00     0.000 HD 
HETATM   40  O   UNL     1     -11.112   4.659  73.365  1.00  0.00    -0.286 OA 
HETATM   41  C   UNL     1     -10.509   5.577  71.228  1.00  0.00    -0.239 C  
HETATM   42  H   UNL     1     -10.766   3.811  73.111  1.00  0.00     0.000 HD 
BRANCH  33  43
HETATM   43  C   UNL     1     -13.225   8.870  71.702  1.00  0.00    -0.362 C  
HETATM   44  O   UNL     1     -13.667   8.942  73.031  1.00  0.00    -0.920 OA 
HETATM   45  H   UNL     1     -14.042   9.793  73.225  1.00  0.00     0.000 HD 
ENDBRANCH  33  43
ENDBRANCH  30  31
ENDBRANCH  29  30
BRANCH  29  46
HETATM   46  C   UNL     1      -9.804   8.677  67.749  1.00  0.00    -0.175 C  
HETATM   47  O   UNL     1     -11.160   9.059  67.721  1.00  0.00    -0.497 OA 
HETATM   48  H   UNL     1     -11.382   9.464  66.892  1.00  0.00     0.000 HD 
BRANCH  46  49
HETATM   49  C   UNL     1      -9.399   7.867  66.495  1.00  0.00    -0.200 C  
HETATM   50  H   UNL     1      -8.794   8.227  64.671  1.00  0.00     0.000 HD 
HETATM   51  O   UNL     1      -9.043   8.724  65.442  1.00  0.00    -0.200 OA 
ENDBRANCH  46  49
ENDBRANCH  29  46
ENDBRANCH  26  29
ENDBRANCH  23  26
ENDBRANCH  21  23
ENDBRANCH  20  21
ENDBRANCH  19  20
ENDBRANCH  18  19
ENDBRANCH  16  18
ENDBRANCH  13  16
ENDBRANCH  10  13
ENDBRANCH   7  10
ENDBRANCH   4   7
ENDBRANCH   2   4
TORSDOF 17
ENDMDL
MODEL      104
REMARK 921   NORMALIZED FREE ENERGY PREDICTED BY IDOCK:   -5.29 KCAL/MOL
REMARK 922        TOTAL FREE ENERGY PREDICTED BY IDOCK:  -13.99 KCAL/MOL
REMARK 923 INTER-LIGAND FREE ENERGY PREDICTED BY IDOCK:  -10.43 KCAL/MOL
REMARK 924 INTRA-LIGAND FREE ENERGY PREDICTED BY IDOCK:   -3.57 KCAL/MOL
REMARK 927      BINDING AFFINITY PREDICTED BY RF-SCORE:    0.00 PKD
ROOT
HETATM    1  O   UNL     1     -10.761  15.045  71.734  1.00  0.00    -0.387 OA 
HETATM    2  C   UNL     1     -12.146  14.869  71.862  1.00  0.00    -0.362 C  
HETATM    3  H   UNL     1     -10.371  15.141  72.595  1.00  0.00     0.000 HD 
ENDROOT
BRANCH   2   4
HETATM    4  C   UNL     1     -12.778  14.712  70.468  1.00  0.00    -0.337 C  
HETATM    5  O   UNL     1     -13.400  15.919  70.102  1.00  0.00    -0.643 OA 
HETATM    6  H   UNL     1     -13.791  15.822  69.241  1.00  0.00     0.000 HD 
BRANCH   4   7
HETATM    7  C   UNL     1     -11.718  14.333  69.401  1.00  0.00    -0.316 C  
HETATM    8  H   UNL     1     -11.372  12.837  68.208  1.00  0.00     0.000 HD 
HETATM    9  O   UNL     1     -12.021  13.069  68.862  1.00  0.00    -0.304 OA 
BRANCH   7  10
HETATM   10  C   UNL     1     -11.657  15.371  68.249  1.00  0.00    -0.348 C  
HETATM   11  H   UNL     1     -11.561  15.314  66.321  1.00  0.00     0.000 HD 
HETATM   12  O   UNL     1     -11.599  14.678  67.026  1.00  0.00    -0.362 OA 
BRANCH  10  13
HETATM   13  C   UNL     1     -10.436  16.328  68.343  1.00  0.00    -0.282 C  
HETATM   14  H   UNL     1      -9.846  17.772  69.500  1.00  0.00     0.000 HD 
HETATM   15  O   UNL     1     -10.593  17.187  69.443  1.00  0.00    -0.321 OA 
BRANCH  13  16
HETATM   16  C   UNL     1      -9.119  15.605  68.503  1.00  0.00    -0.196 C  
HETATM   17  O   UNL     1      -8.631  15.475  69.616  1.00  0.00    -0.246 OA 
BRANCH  16  18
HETATM   18  O   UNL     1      -8.462  15.109  67.436  1.00  0.00    -0.159 OA 
BRANCH  18  19
HETATM   19 CA   UNL     1      -9.468  13.311  66.166  1.00  0.00    -0.232 Ca 
BRANCH  19  20
HETATM   20  O   UNL     1     -10.474  11.513  64.896  1.00  0.00    -0.264 OA 
BRANCH  20  21
HETATM   21  C   UNL     1      -9.727  10.406  65.050  1.00  0.00    -0.300 C  
HETATM   22  O   UNL     1      -9.223   9.915  64.053  1.00  0.00    -0.250 OA 
BRANCH  21  23
HETATM   23  C   UNL     1      -9.644   9.677  66.372  1.00  0.00    -0.210 C  
HETATM   24  H   UNL     1     -10.188   7.954  67.051  1.00  0.00     0.000 HD 
HETATM   25  O   UNL     1     -10.240   8.412  66.220  1.00  0.00    -0.212 OA 
BRANCH  23  26
HETATM   26  C   UNL     1     -10.319  10.417  67.566  1.00  0.00    -0.224 C  
HETATM   27  H   UNL     1     -12.071  10.460  68.397  1.00  0.00     0.000 HD 
HETATM   28  O   UNL     1     -11.659  10.009  67.669  1.00  0.00    -0.099 OA 
BRANCH  26  29
HETATM   29  C   UNL     1      -9.626  10.305  68.968  1.00  0.00    -0.203 C  
BRANCH  29  30
HETATM   30  O   UNL     1     -10.607  10.661  69.931  1.00  0.00    -0.238 OA 
BRANCH  30  31
HETATM   31  C   UNL     1     -10.852   9.704  70.942  1.00  0.00    -0.339 C  
HETATM   32  O   UNL     1     -10.504   8.409  70.483  1.00  0.00    -0.200 OA 
HETATM   33  C   UNL     1     -10.731   7.440  71.495  1.00  0.00    -0.222 C  
HETATM   34  H   UNL     1     -13.673  11.084  71.900  1.00  0.00     0.000 HD 
HETATM   35  C   UNL     1     -12.249   7.323  71.791  1.00  0.00    -0.334 C  
HETATM   36  O   UNL     1     -12.952   6.956  70.629  1.00  0.00    -0.506 OA 
HETATM   37  C   UNL     1     -12.750   8.693  72.293  1.00  0.00    -0.391 C  
HETATM   38  O   UNL     1     -12.744  11.046  71.705  1.00  0.00    -0.382 OA 
HETATM   39  H   UNL     1     -13.882   6.885  70.811  1.00  0.00     0.000 HD 
HETATM   40  O   UNL     1     -14.145   8.700  72.476  1.00  0.00    -0.594 OA 
HETATM   41  C   UNL     1     -12.368   9.766  71.259  1.00  0.00    -0.371 C  
HETATM   42  H   UNL     1     -14.453   9.544  72.785  1.00  0.00     0.000 HD 
BRANCH  33  43
HETATM   43  C   UNL     1     -10.130   6.108  71.018  1.00  0.00    -0.188 C  
HETATM   44  O   UNL     1      -9.346   5.516  72.020  1.00  0.00    -0.147 OA 
HETATM   45  H   UNL     1      -8.975   4.693  71.725  1.00  0.00     0.000 HD 
ENDBRANCH  33  43
ENDBRANCH  30  31
ENDBRANCH  29  30
BRANCH  29  46
HETATM   46  C   UNL     1      -8.300  11.125  69.145  1.00  0.00     0.023 C  
HETATM   47  O   UNL     1      -8.308  12.279  68.338  1.00  0.00    -0.167 OA 
HETATM   48  H   UNL     1      -7.507  12.776  68.445  1.00  0.00     0.000 HD 
BRANCH  46  49
HETATM   49  C   UNL     1      -6.998  10.308  68.984  1.00  0.00    -0.064 C  
HETATM   50  H   UNL     1      -6.163   8.736  69.794  1.00  0.00     0.000 HD 
HETATM   51  O   UNL     1      -6.964   9.239  69.893  1.00  0.00    -0.052 OA 
ENDBRANCH  46  49
ENDBRANCH  29  46
ENDBRANCH  26  29
ENDBRANCH  23  26
ENDBRANCH  21  23
ENDBRANCH  20  21
ENDBRANCH  19  20
ENDBRANCH  18  19
ENDBRANCH  16  18
ENDBRANCH  13  16
ENDBRANCH  10  13
ENDBRANCH   7  10
ENDBRANCH   4   7
ENDBRANCH   2   4
TORSDOF 17
ENDMDL
MODEL      105
REMARK 921   NORMALIZED FREE ENERGY PREDICTED BY IDOCK:   -5.29 KCAL/MOL
REMARK 922        TOTAL FREE ENERGY PREDICTED BY IDOCK:  -13.99 KCAL/MOL
REMARK 923 INTER-LIGAND FREE ENERGY PREDICTED BY IDOCK:  -10.43 KCAL/MOL
REMARK 924 INTRA-LIGAND FREE ENERGY PREDICTED BY IDOCK:   -3.56 KCAL/MOL
REMARK 927      BINDING AFFINITY PREDICTED BY RF-SCORE:    0.00 PKD
ROOT
HETATM    1  O   UNL     1     -11.730  13.912  71.045  1.00  0.00    -0.505 OA 
HETATM    2  C   UNL     1     -11.847  14.671  69.873  1.00  0.00    -0.319 C  
HETATM    3  H   UNL     1     -12.518  14.007  71.568  1.00  0.00     0.000 HD 
ENDROOT
BRANCH   2   4
HETATM    4  C   UNL     1     -10.571  14.517  69.027  1.00  0.00    -0.247 C  
HETATM    5  O   UNL     1     -10.247  13.153  68.920  1.00  0.00    -0.409 OA 
HETATM    6  H   UNL     1      -9.459  13.058  68.398  1.00  0.00     0.000 HD 
BRANCH   4   7
HETATM    7  C   UNL     1     -10.751  15.119  67.609  1.00  0.00    -0.285 C  
HETATM    8  H   UNL     1     -12.226  15.500  66.401  1.00  0.00     0.000 HD 
HETATM    9  O   UNL     1     -12.116  15.131  67.269  1.00  0.00    -0.087 OA 
BRANCH   7  10
HETATM   10  C   UNL     1     -10.194  16.565  67.517  1.00  0.00    -0.283 C  
HETATM   11  H   UNL     1     -10.892  18.348  67.771  1.00  0.00     0.000 HD 
HETATM   12  O   UNL     1     -11.233  17.462  67.827  1.00  0.00    -0.135 OA 
BRANCH  10  13
HETATM   13  C   UNL     1      -9.623  16.921  66.117  1.00  0.00    -0.254 C  
HETATM   14  H   UNL     1      -8.688  15.999  64.686  1.00  0.00     0.000 HD 
HETATM   15  O   UNL     1      -9.037  15.781  65.543  1.00  0.00    -0.235 OA 
BRANCH  13  16
HETATM   16  C   UNL     1     -10.668  17.438  65.157  1.00  0.00     0.139 C  
HETATM   17  O   UNL     1     -10.882  18.639  65.084  1.00  0.00    -0.551 OA 
BRANCH  16  18
HETATM   18  O   UNL     1     -11.381  16.596  64.383  1.00  0.00    -1.023 OA 
BRANCH  18  19
HETATM   19 CA   UNL     1     -11.534  14.263  65.008  1.00  0.00    -0.305 Ca 
BRANCH  19  20
HETATM   20  O   UNL     1     -11.686  11.931  65.635  1.00  0.00    -0.351 OA 
BRANCH  20  21
HETATM   21  C   UNL     1     -10.722  11.248  64.993  1.00  0.00    -0.256 C  
HETATM   22  O   UNL     1     -10.826  11.113  63.786  1.00  0.00    -0.376 OA 
BRANCH  21  23
HETATM   23  C   UNL     1      -9.632  10.514  65.742  1.00  0.00    -0.210 C  
HETATM   24  H   UNL     1      -8.355   9.124  65.336  1.00  0.00     0.000 HD 
HETATM   25  O   UNL     1      -9.040   9.585  64.867  1.00  0.00    -0.212 OA 
BRANCH  23  26
HETATM   26  C   UNL     1     -10.112   9.769  67.024  1.00  0.00    -0.218 C  
HETATM   27  H   UNL     1     -10.749   7.994  67.476  1.00  0.00     0.000 HD 
HETATM   28  O   UNL     1     -10.456   8.448  66.694  1.00  0.00    -0.294 OA 
BRANCH  26  29
HETATM   29  C   UNL     1      -9.147   9.769  68.260  1.00  0.00    -0.122 C  
BRANCH  29  30
HETATM   30  O   UNL     1      -9.816  10.479  69.292  1.00  0.00    -0.213 OA 
BRANCH  30  31
HETATM   31  C   UNL     1     -10.305   9.696  70.362  1.00  0.00    -0.291 C  
HETATM   32  O   UNL     1      -9.915   8.343  70.193  1.00  0.00    -0.183 OA 
HETATM   33  C   UNL     1     -10.386   7.547  71.270  1.00  0.00    -0.192 C  
HETATM   34  H   UNL     1     -13.212  11.217  70.465  1.00  0.00     0.000 HD 
HETATM   35  C   UNL     1     -11.936   7.483  71.247  1.00  0.00    -0.307 C  
HETATM   36  O   UNL     1     -12.389   6.939  70.032  1.00  0.00    -0.619 OA 
HETATM   37  C   UNL     1     -12.482   8.917  71.411  1.00  0.00    -0.304 C  
HETATM   38  O   UNL     1     -12.265  11.147  70.483  1.00  0.00    -0.328 OA 
HETATM   39  H   UNL     1     -13.338   6.900  70.018  1.00  0.00     0.000 HD 
HETATM   40  O   UNL     1     -13.882   8.957  71.287  1.00  0.00    -0.544 OA 
HETATM   41  C   UNL     1     -11.850   9.811  70.332  1.00  0.00    -0.193 C  
HETATM   42  H   UNL     1     -14.218   9.839  71.388  1.00  0.00     0.000 HD 
BRANCH  33  43
HETATM   43  C   UNL     1      -9.747   6.156  71.146  1.00  0.00    -0.176 C  
HETATM   44  O   UNL     1     -10.678   5.141  71.412  1.00  0.00    -0.185 OA 
HETATM   45  H   UNL     1     -10.283   4.282  71.334  1.00  0.00     0.000 HD 
ENDBRANCH  33  43
ENDBRANCH  30  31
ENDBRANCH  29  30
BRANCH  29  46
HETATM   46  C   UNL     1      -7.702  10.323  68.002  1.00  0.00    -0.089 C  
HETATM   47  O   UNL     1      -6.844   9.304  67.545  1.00  0.00    -0.075 OA 
HETATM   48  H   UNL     1      -5.970   9.639  67.389  1.00  0.00     0.000 HD 
BRANCH  46  49
HETATM   49  C   UNL     1      -7.088  11.121  69.176  1.00  0.00    -0.116 C  
HETATM   50  H   UNL     1      -6.859  12.993  69.692  1.00  0.00     0.000 HD 
HETATM   51  O   UNL     1      -7.236  12.502  68.971  1.00  0.00    -0.084 OA 
ENDBRANCH  46  49
ENDBRANCH  29  46
ENDBRANCH  26  29
ENDBRANCH  23  26
ENDBRANCH  21  23
ENDBRANCH  20  21
ENDBRANCH  19  20
ENDBRANCH  18  19
ENDBRANCH  16  18
ENDBRANCH  13  16
ENDBRANCH  10  13
ENDBRANCH   7  10
ENDBRANCH   4   7
ENDBRANCH   2   4
TORSDOF 17
ENDMDL
MODEL      106
REMARK 921   NORMALIZED FREE ENERGY PREDICTED BY IDOCK:   -5.28 KCAL/MOL
REMARK 922        TOTAL FREE ENERGY PREDICTED BY IDOCK:  -13.97 KCAL/MOL
REMARK 923 INTER-LIGAND FREE ENERGY PREDICTED BY IDOCK:  -11.48 KCAL/MOL
REMARK 924 INTRA-LIGAND FREE ENERGY PREDICTED BY IDOCK:   -2.49 KCAL/MOL
REMARK 927      BINDING AFFINITY PREDICTED BY RF-SCORE:    0.00 PKD
ROOT
HETATM    1  O   UNL     1     -12.470   7.917  70.370  1.00  0.00    -0.350 OA 
HETATM    2  C   UNL     1     -11.514   7.027  70.879  1.00  0.00    -0.308 C  
HETATM    3  H   UNL     1     -12.930   8.336  71.088  1.00  0.00     0.000 HD 
ENDROOT
BRANCH   2   4
HETATM    4  C   UNL     1     -10.769   6.348  69.717  1.00  0.00    -0.283 C  
HETATM    5  O   UNL     1     -11.461   6.589  68.517  1.00  0.00    -0.575 OA 
HETATM    6  H   UNL     1     -11.001   6.170  67.799  1.00  0.00     0.000 HD 
BRANCH   4   7
HETATM    7  C   UNL     1      -9.314   6.873  69.588  1.00  0.00    -0.145 C  
HETATM    8  H   UNL     1      -7.748   7.022  70.731  1.00  0.00     0.000 HD 
HETATM    9  O   UNL     1      -8.639   6.701  70.810  1.00  0.00    -0.133 OA 
BRANCH   7  10
HETATM   10  C   UNL     1      -8.529   6.139  68.468  1.00  0.00    -0.114 C  
HETATM   11  H   UNL     1      -7.282   4.668  68.373  1.00  0.00     0.000 HD 
HETATM   12  O   UNL     1      -7.762   5.117  69.058  1.00  0.00    -0.079 OA 
BRANCH  10  13
HETATM   13  C   UNL     1      -7.586   7.072  67.660  1.00  0.00    -0.110 C  
HETATM   14  H   UNL     1      -6.463   6.937  66.081  1.00  0.00     0.000 HD 
HETATM   15  O   UNL     1      -7.039   6.366  66.576  1.00  0.00    -0.065 OA 
BRANCH  13  16
HETATM   16  C   UNL     1      -8.280   8.298  67.113  1.00  0.00    -0.119 C  
HETATM   17  O   UNL     1      -7.872   9.409  67.414  1.00  0.00    -0.101 OA 
BRANCH  16  18
HETATM   18  O   UNL     1      -9.352   8.189  66.303  1.00  0.00    -0.195 OA 
BRANCH  18  19
HETATM   19 CA   UNL     1     -10.110  10.136  65.082  1.00  0.00    -0.221 Ca 
BRANCH  19  20
HETATM   20  O   UNL     1     -10.868  12.082  63.861  1.00  0.00    -0.324 OA 
BRANCH  20  21
HETATM   21  C   UNL     1     -12.167  12.288  64.140  1.00  0.00    -0.446 C  
HETATM   22  O   UNL     1     -12.983  12.046  63.266  1.00  0.00    -0.736 OA 
BRANCH  21  23
HETATM   23  C   UNL     1     -12.611  12.959  65.420  1.00  0.00    -0.378 C  
HETATM   24  H   UNL     1     -13.662  14.509  65.889  1.00  0.00     0.000 HD 
HETATM   25  O   UNL     1     -13.383  14.087  65.086  1.00  0.00    -0.703 OA 
BRANCH  23  26
HETATM   26  C   UNL     1     -11.449  13.400  66.360  1.00  0.00    -0.329 C  
HETATM   27  H   UNL     1     -10.492  15.039  66.757  1.00  0.00     0.000 HD 
HETATM   28  O   UNL     1     -11.201  14.771  66.184  1.00  0.00    -0.333 OA 
BRANCH  26  29
HETATM   29  C   UNL     1     -11.601  13.085  67.889  1.00  0.00    -0.342 C  
BRANCH  29  30
HETATM   30  O   UNL     1     -11.751  14.337  68.543  1.00  0.00    -0.304 OA 
BRANCH  30  31
HETATM   31  C   UNL     1     -11.693  14.304  69.955  1.00  0.00    -0.311 C  
HETATM   32  O   UNL     1     -12.822  13.622  70.474  1.00  0.00    -0.221 OA 
HETATM   33  C   UNL     1     -12.768  13.568  71.891  1.00  0.00    -0.200 C  
HETATM   34  H   UNL     1     -10.589  17.384  70.221  1.00  0.00     0.000 HD 
HETATM   35  C   UNL     1     -12.902  14.995  72.485  1.00  0.00    -0.357 C  
HETATM   36  O   UNL     1     -14.117  15.583  72.087  1.00  0.00    -0.514 OA 
HETATM   37  C   UNL     1     -11.720  15.845  71.973  1.00  0.00    -0.492 C  
HETATM   38  O   UNL     1     -10.589  16.482  69.925  1.00  0.00    -0.294 OA 
HETATM   39  H   UNL     1     -14.198  16.456  72.450  1.00  0.00     0.000 HD 
HETATM   40  O   UNL     1     -11.833  17.187  72.378  1.00  0.00    -0.238 OA 
HETATM   41  C   UNL     1     -11.693  15.777  70.437  1.00  0.00    -0.370 C  
HETATM   42  H   UNL     1     -11.105  17.710  72.063  1.00  0.00     0.000 HD 
BRANCH  33  43
HETATM   43  C   UNL     1     -13.888  12.633  72.373  1.00  0.00    -0.169 C  
HETATM   44  O   UNL     1     -13.517  11.286  72.245  1.00  0.00    -0.604 OA 
HETATM   45  H   UNL     1     -14.209  10.708  72.542  1.00  0.00     0.000 HD 
ENDBRANCH  33  43
ENDBRANCH  30  31
ENDBRANCH  29  30
BRANCH  29  46
HETATM   46  C   UNL     1     -10.459  12.219  68.528  1.00  0.00    -0.232 C  
HETATM   47  O   UNL     1      -9.401  12.027  67.619  1.00  0.00    -0.176 OA 
HETATM   48  H   UNL     1      -8.710  11.503  68.006  1.00  0.00     0.000 HD 
BRANCH  46  49
HETATM   49  C   UNL     1     -10.927  10.892  69.170  1.00  0.00    -0.239 C  
HETATM   50  H   UNL     1     -12.563   9.827  69.268  1.00  0.00     0.000 HD 
HETATM   51  O   UNL     1     -12.276  10.643  68.874  1.00  0.00    -0.370 OA 
ENDBRANCH  46  49
ENDBRANCH  29  46
ENDBRANCH  26  29
ENDBRANCH  23  26
ENDBRANCH  21  23
ENDBRANCH  20  21
ENDBRANCH  19  20
ENDBRANCH  18  19
ENDBRANCH  16  18
ENDBRANCH  13  16
ENDBRANCH  10  13
ENDBRANCH   7  10
ENDBRANCH   4   7
ENDBRANCH   2   4
TORSDOF 17
ENDMDL
MODEL      107
REMARK 921   NORMALIZED FREE ENERGY PREDICTED BY IDOCK:   -5.27 KCAL/MOL
REMARK 922        TOTAL FREE ENERGY PREDICTED BY IDOCK:  -13.94 KCAL/MOL
REMARK 923 INTER-LIGAND FREE ENERGY PREDICTED BY IDOCK:  -10.71 KCAL/MOL
REMARK 924 INTRA-LIGAND FREE ENERGY PREDICTED BY IDOCK:   -3.24 KCAL/MOL
REMARK 927      BINDING AFFINITY PREDICTED BY RF-SCORE:    0.00 PKD
ROOT
HETATM    1  O   UNL     1     -13.981   8.383  70.867  1.00  0.00    -0.558 OA 
HETATM    2  C   UNL     1     -13.277   7.735  71.891  1.00  0.00    -0.266 C  
HETATM    3  H   UNL     1     -14.714   8.862  71.236  1.00  0.00     0.000 HD 
ENDROOT
BRANCH   2   4
HETATM    4  C   UNL     1     -12.090   6.960  71.293  1.00  0.00    -0.373 C  
HETATM    5  O   UNL     1     -12.279   6.818  69.907  1.00  0.00    -0.634 OA 
HETATM    6  H   UNL     1     -11.547   6.339  69.538  1.00  0.00     0.000 HD 
BRANCH   4   7
HETATM    7  C   UNL     1     -10.744   7.684  71.559  1.00  0.00    -0.221 C  
HETATM    8  H   UNL     1      -9.710   8.241  73.109  1.00  0.00     0.000 HD 
HETATM    9  O   UNL     1     -10.534   7.798  72.946  1.00  0.00    -0.292 OA 
BRANCH   7  10
HETATM   10  C   UNL     1      -9.545   6.929  70.928  1.00  0.00    -0.164 C  
HETATM   11  H   UNL     1      -8.978   5.089  70.773  1.00  0.00     0.000 HD 
HETATM   12  O   UNL     1      -9.713   5.551  71.160  1.00  0.00    -0.164 OA 
BRANCH  10  13
HETATM   13  C   UNL     1      -8.167   7.370  71.495  1.00  0.00    -0.104 C  
HETATM   14  H   UNL     1      -6.416   6.572  71.760  1.00  0.00     0.000 HD 
HETATM   15  O   UNL     1      -7.259   6.302  71.414  1.00  0.00    -0.076 OA 
BRANCH  13  16
HETATM   16  C   UNL     1      -7.566   8.547  70.764  1.00  0.00    -0.074 C  
HETATM   17  O   UNL     1      -7.746   9.679  71.188  1.00  0.00    -0.302 OA 
BRANCH  16  18
HETATM   18  O   UNL     1      -6.842   8.374  69.641  1.00  0.00    -0.043 OA 
BRANCH  18  19
HETATM   19 CA   UNL     1      -7.396   9.663  67.669  1.00  0.00    -0.080 Ca 
BRANCH  19  20
HETATM   20  O   UNL     1      -7.952  10.951  65.697  1.00  0.00    -0.133 OA 
BRANCH  20  21
HETATM   21  C   UNL     1      -9.044  10.416  65.125  1.00  0.00    -0.198 C  
HETATM   22  O   UNL     1      -8.955   9.289  64.668  1.00  0.00    -0.206 OA 
BRANCH  21  23
HETATM   23  C   UNL     1     -10.298  11.227  64.888  1.00  0.00    -0.304 C  
HETATM   24  H   UNL     1     -10.988  12.347  63.476  1.00  0.00     0.000 HD 
HETATM   25  O   UNL     1     -10.200  11.838  63.625  1.00  0.00    -0.348 OA 
BRANCH  23  26
HETATM   26  C   UNL     1     -10.577  12.322  65.962  1.00  0.00    -0.254 C  
HETATM   27  H   UNL     1     -11.387  14.084  66.011  1.00  0.00     0.000 HD 
HETATM   28  O   UNL     1     -11.217  13.416  65.356  1.00  0.00    -0.287 OA 
BRANCH  26  29
HETATM   29  C   UNL     1     -11.373  11.890  67.241  1.00  0.00    -0.329 C  
BRANCH  29  30
HETATM   30  O   UNL     1     -12.071  13.043  67.689  1.00  0.00    -0.325 OA 
BRANCH  30  31
HETATM   31  C   UNL     1     -11.724  13.511  68.977  1.00  0.00    -0.327 C  
HETATM   32  O   UNL     1     -12.773  13.240  69.892  1.00  0.00    -0.017 OA 
HETATM   33  C   UNL     1     -12.431  13.691  71.194  1.00  0.00    -0.359 C  
HETATM   34  H   UNL     1     -10.347  16.276  67.866  1.00  0.00     0.000 HD 
HETATM   35  C   UNL     1     -12.325  15.238  71.212  1.00  0.00    -0.361 C  
HETATM   36  O   UNL     1     -13.545  15.821  70.822  1.00  0.00    -0.766 OA 
HETATM   37  C   UNL     1     -11.210  15.658  70.231  1.00  0.00    -0.344 C  
HETATM   38  O   UNL     1     -10.480  15.339  67.941  1.00  0.00    -0.246 OA 
HETATM   39  H   UNL     1     -13.479  16.769  70.833  1.00  0.00     0.000 HD 
HETATM   40  O   UNL     1     -11.129  17.057  70.105  1.00  0.00    -0.361 OA 
HETATM   41  C   UNL     1     -11.507  15.040  68.855  1.00  0.00    -0.314 C  
HETATM   42  H   UNL     1     -10.442  17.315  69.502  1.00  0.00     0.000 HD 
BRANCH  33  43
HETATM   43  C   UNL     1     -13.498  13.172  72.170  1.00  0.00    -0.560 C  
HETATM   44  O   UNL     1     -13.467  11.773  72.262  1.00  0.00    -0.611 OA 
HETATM   45  H   UNL     1     -14.126  11.453  72.866  1.00  0.00     0.000 HD 
ENDBRANCH  33  43
ENDBRANCH  30  31
ENDBRANCH  29  30
BRANCH  29  46
HETATM   46  C   UNL     1     -10.526  11.231  68.387  1.00  0.00    -0.197 C  
HETATM   47  O   UNL     1      -9.151  11.468  68.198  1.00  0.00    -0.167 OA 
HETATM   48  H   UNL     1      -8.639  11.070  68.891  1.00  0.00     0.000 HD 
BRANCH  46  49
HETATM   49  C   UNL     1     -10.832   9.738  68.651  1.00  0.00    -0.188 C  
HETATM   50  H   UNL     1      -9.993   8.006  68.309  1.00  0.00     0.000 HD 
HETATM   51  O   UNL     1      -9.806   8.923  68.147  1.00  0.00    -0.157 OA 
ENDBRANCH  46  49
ENDBRANCH  29  46
ENDBRANCH  26  29
ENDBRANCH  23  26
ENDBRANCH  21  23
ENDBRANCH  20  21
ENDBRANCH  19  20
ENDBRANCH  18  19
ENDBRANCH  16  18
ENDBRANCH  13  16
ENDBRANCH  10  13
ENDBRANCH   7  10
ENDBRANCH   4   7
ENDBRANCH   2   4
TORSDOF 17
ENDMDL
MODEL      108
REMARK 921   NORMALIZED FREE ENERGY PREDICTED BY IDOCK:   -5.25 KCAL/MOL
REMARK 922        TOTAL FREE ENERGY PREDICTED BY IDOCK:  -13.92 KCAL/MOL
REMARK 923 INTER-LIGAND FREE ENERGY PREDICTED BY IDOCK:  -11.40 KCAL/MOL
REMARK 924 INTRA-LIGAND FREE ENERGY PREDICTED BY IDOCK:   -2.51 KCAL/MOL
REMARK 927      BINDING AFFINITY PREDICTED BY RF-SCORE:    0.00 PKD
ROOT
HETATM    1  O   UNL     1      -5.470   5.896  66.229  1.00  0.00    -0.012 OA 
HETATM    2  C   UNL     1      -6.870   5.917  66.169  1.00  0.00    -0.061 C  
HETATM    3  H   UNL     1      -5.112   5.892  65.349  1.00  0.00     0.000 HD 
ENDROOT
BRANCH   2   4
HETATM    4  C   UNL     1      -7.450   5.924  67.594  1.00  0.00    -0.078 C  
HETATM    5  O   UNL     1      -6.797   4.946  68.365  1.00  0.00    -0.053 OA 
HETATM    6  H   UNL     1      -7.155   4.951  69.245  1.00  0.00     0.000 HD 
BRANCH   4   7
HETATM    7  C   UNL     1      -7.285   7.311  68.270  1.00  0.00    -0.094 C  
HETATM    8  H   UNL     1      -6.969   9.143  67.701  1.00  0.00     0.000 HD 
HETATM    9  O   UNL     1      -7.070   8.294  67.287  1.00  0.00    -0.077 OA 
BRANCH   7  10
HETATM   10  C   UNL     1      -8.532   7.699  69.108  1.00  0.00    -0.138 C  
HETATM   11  H   UNL     1      -9.920   6.756  70.065  1.00  0.00     0.000 HD 
HETATM   12  O   UNL     1      -9.157   6.518  69.551  1.00  0.00    -0.139 OA 
BRANCH  10  13
HETATM   13  C   UNL     1      -9.567   8.549  68.320  1.00  0.00    -0.144 C  
HETATM   14  H   UNL     1     -11.275   8.257  67.443  1.00  0.00     0.000 HD 
HETATM   15  O   UNL     1     -10.642   7.737  67.925  1.00  0.00    -0.209 OA 
BRANCH  13  16
HETATM   16  C   UNL     1     -10.126   9.704  69.118  1.00  0.00    -0.189 C  
HETATM   17  O   UNL     1      -9.549  10.781  69.109  1.00  0.00    -0.204 OA 
BRANCH  16  18
HETATM   18  O   UNL     1     -11.248   9.565  69.851  1.00  0.00    -0.234 OA 
BRANCH  18  19
HETATM   19 CA   UNL     1     -12.294  11.536  70.790  1.00  0.00    -0.261 Ca 
BRANCH  19  20
HETATM   20  O   UNL     1     -13.340  13.506  71.728  1.00  0.00    -0.380 OA 
BRANCH  20  21
HETATM   21  C   UNL     1     -12.954  14.580  71.018  1.00  0.00    -0.358 C  
HETATM   22  O   UNL     1     -13.751  15.493  70.886  1.00  0.00    -0.524 OA 
BRANCH  21  23
HETATM   23  C   UNL     1     -11.650  14.602  70.252  1.00  0.00    -0.280 C  
HETATM   24  H   UNL     1      -9.893  15.358  70.514  1.00  0.00     0.000 HD 
HETATM   25  O   UNL     1     -10.712  15.344  70.994  1.00  0.00    -0.272 OA 
BRANCH  23  26
HETATM   26  C   UNL     1     -11.749  15.200  68.816  1.00  0.00    -0.342 C  
HETATM   27  H   UNL     1     -11.269  16.860  67.937  1.00  0.00     0.000 HD 
HETATM   28  O   UNL     1     -11.208  16.496  68.812  1.00  0.00    -0.333 OA 
BRANCH  26  29
HETATM   29  C   UNL     1     -11.123  14.366  67.645  1.00  0.00    -0.300 C  
BRANCH  29  30
HETATM   30  O   UNL     1     -11.709  13.074  67.714  1.00  0.00    -0.324 OA 
BRANCH  30  31
HETATM   31  C   UNL     1     -11.785  12.366  66.493  1.00  0.00    -0.379 C  
HETATM   32  O   UNL     1     -10.533  11.772  66.195  1.00  0.00    -0.230 OA 
HETATM   33  C   UNL     1     -10.599  11.045  64.978  1.00  0.00    -0.244 C  
HETATM   34  H   UNL     1     -13.617  14.649  65.007  1.00  0.00     0.000 HD 
HETATM   35  C   UNL     1     -10.832  12.014  63.790  1.00  0.00    -0.420 C  
HETATM   36  O   UNL     1      -9.792  12.958  63.712  1.00  0.00    -0.700 OA 
HETATM   37  C   UNL     1     -12.177  12.737  64.012  1.00  0.00    -0.441 C  
HETATM   38  O   UNL     1     -13.390  14.016  65.677  1.00  0.00    -0.636 OA 
HETATM   39  H   UNL     1      -9.935  13.552  62.984  1.00  0.00     0.000 HD 
HETATM   40  O   UNL     1     -12.406  13.720  63.031  1.00  0.00    -1.089 OA 
HETATM   41  C   UNL     1     -12.156  13.399  65.399  1.00  0.00    -0.421 C  
HETATM   42  H   UNL     1     -13.234  14.164  63.168  1.00  0.00     0.000 HD 
BRANCH  33  43
HETATM   43  C   UNL     1      -9.293  10.249  64.829  1.00  0.00    -0.260 C  
HETATM   44  O   UNL     1      -9.495   8.886  65.089  1.00  0.00    -0.448 OA 
HETATM   45  H   UNL     1      -8.688   8.394  64.996  1.00  0.00     0.000 HD 
ENDBRANCH  33  43
ENDBRANCH  30  31
ENDBRANCH  29  30
BRANCH  29  46
HETATM   46  C   UNL     1      -9.555  14.301  67.610  1.00  0.00    -0.219 C  
HETATM   47  O   UNL     1      -9.014  14.460  68.901  1.00  0.00    -0.296 OA 
HETATM   48  H   UNL     1      -8.066  14.421  68.880  1.00  0.00     0.000 HD 
BRANCH  46  49
HETATM   49  C   UNL     1      -8.885  15.235  66.576  1.00  0.00    -0.300 C  
HETATM   50  H   UNL     1      -9.432  16.382  65.090  1.00  0.00     0.000 HD 
HETATM   51  O   UNL     1      -9.844  15.808  65.726  1.00  0.00    -0.316 OA 
ENDBRANCH  46  49
ENDBRANCH  29  46
ENDBRANCH  26  29
ENDBRANCH  23  26
ENDBRANCH  21  23
ENDBRANCH  20  21
ENDBRANCH  19  20
ENDBRANCH  18  19
ENDBRANCH  16  18
ENDBRANCH  13  16
ENDBRANCH  10  13
ENDBRANCH   7  10
ENDBRANCH   4   7
ENDBRANCH   2   4
TORSDOF 17
ENDMDL
MODEL      109
REMARK 921   NORMALIZED FREE ENERGY PREDICTED BY IDOCK:   -5.25 KCAL/MOL
REMARK 922        TOTAL FREE ENERGY PREDICTED BY IDOCK:  -13.90 KCAL/MOL
REMARK 923 INTER-LIGAND FREE ENERGY PREDICTED BY IDOCK:  -10.92 KCAL/MOL
REMARK 924 INTRA-LIGAND FREE ENERGY PREDICTED BY IDOCK:   -2.98 KCAL/MOL
REMARK 927      BINDING AFFINITY PREDICTED BY RF-SCORE:    0.00 PKD
ROOT
HETATM    1  O   UNL     1      -8.367  11.497  62.457  1.00  0.00    -0.609 OA 
HETATM    2  C   UNL     1      -8.091  10.123  62.498  1.00  0.00    -0.144 C  
HETATM    3  H   UNL     1      -8.716  11.727  61.604  1.00  0.00     0.000 HD 
ENDROOT
BRANCH   2   4
HETATM    4  C   UNL     1      -7.527   9.750  63.880  1.00  0.00    -0.130 C  
HETATM    5  O   UNL     1      -6.363  10.500  64.124  1.00  0.00    -0.319 OA 
HETATM    6  H   UNL     1      -6.014  10.270  64.977  1.00  0.00     0.000 HD 
BRANCH   4   7
HETATM    7  C   UNL     1      -8.559  10.015  65.008  1.00  0.00    -0.162 C  
HETATM    8  H   UNL     1     -10.493  10.132  65.169  1.00  0.00     0.000 HD 
HETATM    9  O   UNL     1      -9.861   9.970  64.478  1.00  0.00    -0.305 OA 
BRANCH   7  10
HETATM   10  C   UNL     1      -8.443   8.976  66.155  1.00  0.00    -0.127 C  
HETATM   11  H   UNL     1      -7.047   7.872  66.903  1.00  0.00     0.000 HD 
HETATM   12  O   UNL     1      -7.117   8.508  66.201  1.00  0.00    -0.075 OA 
BRANCH  10  13
HETATM   13  C   UNL     1      -9.399   7.762  65.989  1.00  0.00    -0.037 C  
HETATM   14  H   UNL     1      -9.238   5.872  65.575  1.00  0.00     0.000 HD 
HETATM   15  O   UNL     1      -8.654   6.614  65.676  1.00  0.00    -0.152 OA 
BRANCH  13  16
HETATM   16  C   UNL     1     -10.213   7.465  67.226  1.00  0.00    -0.260 C  
HETATM   17  O   UNL     1     -11.271   6.863  67.125  1.00  0.00    -0.352 OA 
BRANCH  16  18
HETATM   18  O   UNL     1      -9.797   7.864  68.445  1.00  0.00    -0.163 OA 
BRANCH  18  19
HETATM   19 CA   UNL     1     -10.807   9.819  69.454  1.00  0.00    -0.188 Ca 
BRANCH  19  20
HETATM   20  O   UNL     1     -11.817  11.773  70.462  1.00  0.00    -0.330 OA 
BRANCH  20  21
HETATM   21  C   UNL     1     -11.747  12.794  69.590  1.00  0.00    -0.302 C  
HETATM   22  O   UNL     1     -11.892  13.924  70.022  1.00  0.00    -0.291 OA 
BRANCH  21  23
HETATM   23  C   UNL     1     -11.666  12.563  68.098  1.00  0.00    -0.348 C  
HETATM   24  H   UNL     1     -11.769  11.042  66.914  1.00  0.00     0.000 HD 
HETATM   25  O   UNL     1     -11.819  11.186  67.851  1.00  0.00    -0.601 OA 
BRANCH  23  26
HETATM   26  C   UNL     1     -10.344  13.054  67.434  1.00  0.00    -0.234 C  
HETATM   27  H   UNL     1      -8.694  12.254  66.804  1.00  0.00     0.000 HD 
HETATM   28  O   UNL     1      -9.499  11.954  67.208  1.00  0.00    -0.172 OA 
BRANCH  26  29
HETATM   29  C   UNL     1     -10.469  13.899  66.119  1.00  0.00    -0.297 C  
BRANCH  29  30
HETATM   30  O   UNL     1     -11.002  15.159  66.501  1.00  0.00    -0.320 OA 
BRANCH  30  31
HETATM   31  C   UNL     1     -10.094  16.242  66.485  1.00  0.00    -0.291 C  
HETATM   32  O   UNL     1      -9.591  16.475  67.790  1.00  0.00    -0.229 OA 
HETATM   33  C   UNL     1      -8.666  17.551  67.786  1.00  0.00    -0.230 C  
HETATM   34  H   UNL     1     -11.889  18.031  64.398  1.00  0.00     0.000 HD 
HETATM   35  C   UNL     1      -9.390  18.877  67.435  1.00  0.00    -0.289 C  
HETATM   36  O   UNL     1     -10.410  19.144  68.366  1.00  0.00    -0.390 OA 
HETATM   37  C   UNL     1      -9.997  18.737  66.023  1.00  0.00    -0.255 C  
HETATM   38  O   UNL     1     -11.406  17.271  64.701  1.00  0.00    -0.905 OA 
HETATM   39  H   UNL     1     -10.854  19.956  68.150  1.00  0.00     0.000 HD 
HETATM   40  O   UNL     1     -10.769  19.860  65.676  1.00  0.00    -0.478 OA 
HETATM   41  C   UNL     1     -10.883  17.481  65.991  1.00  0.00     0.031 C  
HETATM   42  H   UNL     1     -11.142  19.774  64.807  1.00  0.00     0.000 HD 
BRANCH  33  43
HETATM   43  C   UNL     1      -7.996  17.606  69.169  1.00  0.00     0.030 C  
HETATM   44  O   UNL     1      -6.944  18.533  69.189  1.00  0.00    -0.287 OA 
HETATM   45  H   UNL     1      -6.531  18.566  70.043  1.00  0.00     0.000 HD 
ENDBRANCH  33  43
ENDBRANCH  30  31
ENDBRANCH  29  30
BRANCH  29  46
HETATM   46  C   UNL     1     -11.289  13.240  64.955  1.00  0.00    -0.316 C  
HETATM   47  O   UNL     1     -10.479  13.033  63.821  1.00  0.00    -0.486 OA 
HETATM   48  H   UNL     1     -10.975  12.634  63.116  1.00  0.00     0.000 HD 
BRANCH  46  49
HETATM   49  C   UNL     1     -12.616  13.952  64.604  1.00  0.00    -0.249 C  
HETATM   50  H   UNL     1     -13.405  14.872  63.070  1.00  0.00     0.000 HD 
HETATM   51  O   UNL     1     -12.590  14.434  63.286  1.00  0.00    -0.655 OA 
ENDBRANCH  46  49
ENDBRANCH  29  46
ENDBRANCH  26  29
ENDBRANCH  23  26
ENDBRANCH  21  23
ENDBRANCH  20  21
ENDBRANCH  19  20
ENDBRANCH  18  19
ENDBRANCH  16  18
ENDBRANCH  13  16
ENDBRANCH  10  13
ENDBRANCH   7  10
ENDBRANCH   4   7
ENDBRANCH   2   4
TORSDOF 17
ENDMDL
MODEL      110
REMARK 921   NORMALIZED FREE ENERGY PREDICTED BY IDOCK:   -5.23 KCAL/MOL
REMARK 922        TOTAL FREE ENERGY PREDICTED BY IDOCK:  -13.86 KCAL/MOL
REMARK 923 INTER-LIGAND FREE ENERGY PREDICTED BY IDOCK:  -11.32 KCAL/MOL
REMARK 924 INTRA-LIGAND FREE ENERGY PREDICTED BY IDOCK:   -2.55 KCAL/MOL
REMARK 927      BINDING AFFINITY PREDICTED BY RF-SCORE:    0.00 PKD
ROOT
HETATM    1  O   UNL     1      -7.826   6.644  69.763  1.00  0.00    -0.110 OA 
HETATM    2  C   UNL     1      -7.612   7.886  70.377  1.00  0.00    -0.082 C  
HETATM    3  H   UNL     1      -7.118   6.460  69.158  1.00  0.00     0.000 HD 
ENDROOT
BRANCH   2   4
HETATM    4  C   UNL     1      -8.758   8.184  71.358  1.00  0.00    -0.145 C  
HETATM    5  O   UNL     1      -8.247   8.863  72.477  1.00  0.00    -0.384 OA 
HETATM    6  H   UNL     1      -8.956   9.047  73.083  1.00  0.00     0.000 HD 
BRANCH   4   7
HETATM    7  C   UNL     1      -9.867   9.043  70.694  1.00  0.00    -0.230 C  
HETATM    8  H   UNL     1     -10.234   9.781  68.933  1.00  0.00     0.000 HD 
HETATM    9  O   UNL     1      -9.555   9.255  69.339  1.00  0.00    -0.159 OA 
BRANCH   7  10
HETATM   10  C   UNL     1     -11.261   8.367  70.791  1.00  0.00    -0.263 C  
HETATM   11  H   UNL     1     -12.833   8.561  71.896  1.00  0.00     0.000 HD 
HETATM   12  O   UNL     1     -11.980   8.975  71.837  1.00  0.00    -0.338 OA 
BRANCH  10  13
HETATM   13  C   UNL     1     -11.189   6.837  71.055  1.00  0.00    -0.290 C  
HETATM   14  H   UNL     1     -12.348   5.465  71.795  1.00  0.00     0.000 HD 
HETATM   15  O   UNL     1     -12.392   6.401  71.634  1.00  0.00    -0.312 OA 
BRANCH  13  16
HETATM   16  C   UNL     1     -10.954   6.023  69.804  1.00  0.00    -0.401 C  
HETATM   17  O   UNL     1     -10.193   5.068  69.837  1.00  0.00    -0.259 OA 
BRANCH  16  18
HETATM   18  O   UNL     1     -11.563   6.339  68.643  1.00  0.00    -0.125 OA 
BRANCH  18  19
HETATM   19 CA   UNL     1     -11.442   8.615  67.830  1.00  0.00    -0.489 Ca 
BRANCH  19  20
HETATM   20  O   UNL     1     -11.322  10.890  67.017  1.00  0.00    -0.364 OA 
BRANCH  20  21
HETATM   21  C   UNL     1     -10.319  10.978  66.126  1.00  0.00    -0.251 C  
HETATM   22  O   UNL     1     -10.219  10.095  65.291  1.00  0.00    -0.304 OA 
BRANCH  21  23
HETATM   23  C   UNL     1      -9.238  12.029  66.243  1.00  0.00    -0.206 C  
HETATM   24  H   UNL     1      -7.354  12.051  66.664  1.00  0.00     0.000 HD 
HETATM   25  O   UNL     1      -8.033  11.391  66.590  1.00  0.00    -0.156 OA 
BRANCH  23  26
HETATM   26  C   UNL     1      -9.535  13.154  67.281  1.00  0.00    -0.225 C  
HETATM   27  H   UNL     1      -8.644  13.935  68.816  1.00  0.00     0.000 HD 
HETATM   28  O   UNL     1      -8.464  13.249  68.184  1.00  0.00    -0.159 OA 
BRANCH  26  29
HETATM   29  C   UNL     1      -9.878  14.578  66.720  1.00  0.00    -0.265 C  
BRANCH  29  30
HETATM   30  O   UNL     1      -9.350  15.513  67.650  1.00  0.00    -0.201 OA 
BRANCH  30  31
HETATM   31  C   UNL     1      -9.499  16.875  67.305  1.00  0.00    -0.242 C  
HETATM   32  O   UNL     1      -8.250  17.419  66.912  1.00  0.00    -0.209 OA 
HETATM   33  C   UNL     1      -8.389  18.784  66.547  1.00  0.00    -0.297 C  
HETATM   34  H   UNL     1     -11.574  17.520  69.766  1.00  0.00     0.000 HD 
HETATM   35  C   UNL     1      -8.778  19.630  67.787  1.00  0.00    -0.323 C  
HETATM   36  O   UNL     1      -7.800  19.513  68.791  1.00  0.00    -0.355 OA 
HETATM   37  C   UNL     1     -10.133  19.116  68.318  1.00  0.00    -0.416 C  
HETATM   38  O   UNL     1     -11.255  17.074  68.991  1.00  0.00    -0.099 OA 
HETATM   39  H   UNL     1      -8.038  20.031  69.551  1.00  0.00     0.000 HD 
HETATM   40  O   UNL     1     -10.500  19.760  69.513  1.00  0.00    -0.575 OA 
HETATM   41  C   UNL     1     -10.021  17.603  68.569  1.00  0.00    -0.368 C  
HETATM   42  H   UNL     1     -11.334  19.444  69.840  1.00  0.00     0.000 HD 
BRANCH  33  43
HETATM   43  C   UNL     1      -7.062  19.245  65.924  1.00  0.00    -0.280 C  
HETATM   44  O   UNL     1      -6.552  18.282  65.041  1.00  0.00    -0.413 OA 
HETATM   45  H   UNL     1      -5.733  18.567  64.656  1.00  0.00     0.000 HD 
ENDBRANCH  33  43
ENDBRANCH  30  31
ENDBRANCH  29  30
BRANCH  29  46
HETATM   46  C   UNL     1     -11.392  14.847  66.409  1.00  0.00    -0.308 C  
HETATM   47  O   UNL     1     -12.186  14.647  67.555  1.00  0.00    -0.583 OA 
HETATM   48  H   UNL     1     -13.103  14.810  67.367  1.00  0.00     0.000 HD 
BRANCH  46  49
HETATM   49  C   UNL     1     -11.949  14.101  65.174  1.00  0.00    -0.388 C  
HETATM   50  H   UNL     1     -13.688  13.529  64.490  1.00  0.00     0.000 HD 
HETATM   51  O   UNL     1     -13.346  13.987  65.249  1.00  0.00    -0.741 OA 
ENDBRANCH  46  49
ENDBRANCH  29  46
ENDBRANCH  26  29
ENDBRANCH  23  26
ENDBRANCH  21  23
ENDBRANCH  20  21
ENDBRANCH  19  20
ENDBRANCH  18  19
ENDBRANCH  16  18
ENDBRANCH  13  16
ENDBRANCH  10  13
ENDBRANCH   7  10
ENDBRANCH   4   7
ENDBRANCH   2   4
TORSDOF 17
ENDMDL
MODEL      111
REMARK 921   NORMALIZED FREE ENERGY PREDICTED BY IDOCK:   -5.22 KCAL/MOL
REMARK 922        TOTAL FREE ENERGY PREDICTED BY IDOCK:  -13.85 KCAL/MOL
REMARK 923 INTER-LIGAND FREE ENERGY PREDICTED BY IDOCK:  -11.65 KCAL/MOL
REMARK 924 INTRA-LIGAND FREE ENERGY PREDICTED BY IDOCK:   -2.20 KCAL/MOL
REMARK 927      BINDING AFFINITY PREDICTED BY RF-SCORE:    0.00 PKD
ROOT
HETATM    1  O   UNL     1      -8.975   8.707  73.419  1.00  0.00    -0.252 OA 
HETATM    2  C   UNL     1      -9.084   7.780  72.373  1.00  0.00    -0.155 C  
HETATM    3  H   UNL     1      -8.086   9.039  73.461  1.00  0.00     0.000 HD 
ENDROOT
BRANCH   2   4
HETATM    4  C   UNL     1     -10.524   7.244  72.304  1.00  0.00    -0.214 C  
HETATM    5  O   UNL     1     -11.197   7.567  73.495  1.00  0.00    -0.603 OA 
HETATM    6  H   UNL     1     -12.086   7.235  73.453  1.00  0.00     0.000 HD 
BRANCH   4   7
HETATM    7  C   UNL     1     -11.296   7.837  71.096  1.00  0.00    -0.269 C  
HETATM    8  H   UNL     1     -12.678   7.247  69.862  1.00  0.00     0.000 HD 
HETATM    9  O   UNL     1     -12.206   6.884  70.602  1.00  0.00    -0.365 OA 
BRANCH   7  10
HETATM   10  C   UNL     1     -12.073   9.124  71.480  1.00  0.00    -0.351 C  
HETATM   11  H   UNL     1     -13.913   9.708  71.443  1.00  0.00     0.000 HD 
HETATM   12  O   UNL     1     -13.438   8.920  71.208  1.00  0.00    -0.287 OA 
BRANCH  10  13
HETATM   13  C   UNL     1     -11.591  10.388  70.715  1.00  0.00    -0.358 C  
HETATM   14  H   UNL     1     -11.339  10.921  68.865  1.00  0.00     0.000 HD 
HETATM   15  O   UNL     1     -11.633  10.148  69.332  1.00  0.00    -0.189 OA 
BRANCH  13  16
HETATM   16  C   UNL     1     -12.426  11.615  70.999  1.00  0.00    -0.334 C  
HETATM   17  O   UNL     1     -13.150  11.641  71.982  1.00  0.00    -0.478 OA 
BRANCH  16  18
HETATM   18  O   UNL     1     -12.395  12.683  70.177  1.00  0.00    -0.250 OA 
BRANCH  18  19
HETATM   19 CA   UNL     1     -12.486  12.333  67.784  1.00  0.00    -0.322 Ca 
BRANCH  19  20
HETATM   20  O   UNL     1     -12.577  11.982  65.391  1.00  0.00    -0.340 OA 
BRANCH  20  21
HETATM   21  C   UNL     1     -11.323  11.991  64.906  1.00  0.00    -0.310 C  
HETATM   22  O   UNL     1     -11.180  12.048  63.696  1.00  0.00    -0.386 OA 
BRANCH  21  23
HETATM   23  C   UNL     1     -10.122  11.762  65.796  1.00  0.00    -0.237 C  
HETATM   24  H   UNL     1      -9.271  10.242  66.626  1.00  0.00     0.000 HD 
HETATM   25  O   UNL     1     -10.025  10.385  66.067  1.00  0.00    -0.218 OA 
BRANCH  23  26
HETATM   26  C   UNL     1     -10.153  12.545  67.144  1.00  0.00    -0.214 C  
HETATM   27  H   UNL     1      -9.315  12.397  68.887  1.00  0.00     0.000 HD 
HETATM   28  O   UNL     1      -9.296  11.920  68.065  1.00  0.00    -0.180 OA 
BRANCH  26  29
HETATM   29  C   UNL     1      -9.840  14.080  67.093  1.00  0.00    -0.240 C  
BRANCH  29  30
HETATM   30  O   UNL     1      -9.293  14.421  68.358  1.00  0.00    -0.196 OA 
BRANCH  30  31
HETATM   31  C   UNL     1      -8.548  15.621  68.403  1.00  0.00    -0.173 C  
HETATM   32  O   UNL     1      -9.399  16.733  68.181  1.00  0.00    -0.224 OA 
HETATM   33  C   UNL     1      -8.666  17.946  68.239  1.00  0.00    -0.275 C  
HETATM   34  H   UNL     1      -5.984  14.374  66.776  1.00  0.00     0.000 HD 
HETATM   35  C   UNL     1      -7.661  18.019  67.060  1.00  0.00    -0.217 C  
HETATM   36  O   UNL     1      -8.338  17.942  65.829  1.00  0.00    -0.521 OA 
HETATM   37  C   UNL     1      -6.678  16.837  67.189  1.00  0.00    -0.189 C  
HETATM   38  O   UNL     1      -6.634  14.428  67.465  1.00  0.00    -0.231 OA 
HETATM   39  H   UNL     1      -7.721  17.986  65.107  1.00  0.00     0.000 HD 
HETATM   40  O   UNL     1      -5.802  16.768  66.091  1.00  0.00    -0.181 OA 
HETATM   41  C   UNL     1      -7.486  15.532  67.278  1.00  0.00    -0.223 C  
HETATM   42  H   UNL     1      -5.197  16.040  66.170  1.00  0.00     0.000 HD 
BRANCH  33  43
HETATM   43  C   UNL     1      -9.671  19.109  68.216  1.00  0.00    -0.373 C  
HETATM   44  O   UNL     1     -10.632  18.931  67.211  1.00  0.00    -0.417 OA 
HETATM   45  H   UNL     1     -11.254  19.649  67.197  1.00  0.00     0.000 HD 
ENDBRANCH  33  43
ENDBRANCH  30  31
ENDBRANCH  29  30
BRANCH  29  46
HETATM   46  C   UNL     1     -11.040  15.012  66.698  1.00  0.00    -0.326 C  
HETATM   47  O   UNL     1     -12.269  14.448  67.094  1.00  0.00    -0.558 OA 
HETATM   48  H   UNL     1     -12.994  15.012  66.855  1.00  0.00     0.000 HD 
BRANCH  46  49
HETATM   49  C   UNL     1     -11.055  15.470  65.222  1.00  0.00    -0.338 C  
HETATM   50  H   UNL     1     -10.641  17.086  64.202  1.00  0.00     0.000 HD 
HETATM   51  O   UNL     1     -10.632  16.804  65.109  1.00  0.00    -0.663 OA 
ENDBRANCH  46  49
ENDBRANCH  29  46
ENDBRANCH  26  29
ENDBRANCH  23  26
ENDBRANCH  21  23
ENDBRANCH  20  21
ENDBRANCH  19  20
ENDBRANCH  18  19
ENDBRANCH  16  18
ENDBRANCH  13  16
ENDBRANCH  10  13
ENDBRANCH   7  10
ENDBRANCH   4   7
ENDBRANCH   2   4
TORSDOF 17
ENDMDL
MODEL      112
REMARK 921   NORMALIZED FREE ENERGY PREDICTED BY IDOCK:   -5.22 KCAL/MOL
REMARK 922        TOTAL FREE ENERGY PREDICTED BY IDOCK:  -13.85 KCAL/MOL
REMARK 923 INTER-LIGAND FREE ENERGY PREDICTED BY IDOCK:  -10.08 KCAL/MOL
REMARK 924 INTRA-LIGAND FREE ENERGY PREDICTED BY IDOCK:   -3.76 KCAL/MOL
REMARK 927      BINDING AFFINITY PREDICTED BY RF-SCORE:    0.00 PKD
ROOT
HETATM    1  O   UNL     1      -7.014  11.798  70.021  1.00  0.00    -0.378 OA 
HETATM    2  C   UNL     1      -7.111  11.193  68.761  1.00  0.00    -0.093 C  
HETATM    3  H   UNL     1      -6.104  11.834  70.290  1.00  0.00     0.000 HD 
ENDROOT
BRANCH   2   4
HETATM    4  C   UNL     1      -8.585  11.134  68.326  1.00  0.00    -0.146 C  
HETATM    5  O   UNL     1      -9.375  10.728  69.416  1.00  0.00    -0.388 OA 
HETATM    6  H   UNL     1     -10.285  10.692  69.147  1.00  0.00     0.000 HD 
BRANCH   4   7
HETATM    7  C   UNL     1      -9.083  12.511  67.812  1.00  0.00    -0.191 C  
HETATM    8  H   UNL     1      -8.312  14.068  66.939  1.00  0.00     0.000 HD 
HETATM    9  O   UNL     1      -8.007  13.225  67.254  1.00  0.00    -0.171 OA 
BRANCH   7  10
HETATM   10  C   UNL     1     -10.199  12.362  66.743  1.00  0.00    -0.219 C  
HETATM   11  H   UNL     1     -10.596  13.142  65.022  1.00  0.00     0.000 HD 
HETATM   12  O   UNL     1      -9.913  13.234  65.676  1.00  0.00    -0.280 OA 
BRANCH  10  13
HETATM   13  C   UNL     1     -11.620  12.678  67.285  1.00  0.00    -0.364 C  
HETATM   14  H   UNL     1     -12.956  11.789  68.379  1.00  0.00     0.000 HD 
HETATM   15  O   UNL     1     -12.087  11.595  68.048  1.00  0.00    -0.597 OA 
BRANCH  13  16
HETATM   16  C   UNL     1     -11.671  13.913  68.152  1.00  0.00    -0.353 C  
HETATM   17  O   UNL     1     -11.678  15.019  67.632  1.00  0.00    -0.342 OA 
BRANCH  16  18
HETATM   18  O   UNL     1     -11.697  13.820  69.497  1.00  0.00    -0.284 OA 
BRANCH  18  19
HETATM   19 CA   UNL     1     -11.252  11.681  70.538  1.00  0.00    -0.383 Ca 
BRANCH  19  20
HETATM   20  O   UNL     1     -10.807   9.542  71.578  1.00  0.00    -0.355 OA 
BRANCH  20  21
HETATM   21  C   UNL     1     -11.973   8.895  71.752  1.00  0.00    -0.359 C  
HETATM   22  O   UNL     1     -12.866   9.478  72.342  1.00  0.00    -0.363 OA 
BRANCH  21  23
HETATM   23  C   UNL     1     -12.136   7.435  71.392  1.00  0.00    -0.327 C  
HETATM   24  H   UNL     1     -13.576   6.150  71.398  1.00  0.00     0.000 HD 
HETATM   25  O   UNL     1     -13.473   7.067  71.624  1.00  0.00    -0.365 OA 
BRANCH  23  26
HETATM   26  C   UNL     1     -11.198   6.465  72.172  1.00  0.00    -0.279 C  
HETATM   27  H   UNL     1     -11.378   4.793  73.138  1.00  0.00     0.000 HD 
HETATM   28  O   UNL     1     -11.950   5.384  72.663  1.00  0.00    -0.214 OA 
BRANCH  26  29
HETATM   29  C   UNL     1      -9.933   5.926  71.419  1.00  0.00    -0.185 C  
BRANCH  29  30
HETATM   30  O   UNL     1     -10.413   5.168  70.318  1.00  0.00    -0.275 OA 
BRANCH  30  31
HETATM   31  C   UNL     1      -9.758   5.389  69.086  1.00  0.00    -0.159 C  
HETATM   32  O   UNL     1     -10.281   6.546  68.456  1.00  0.00    -0.151 OA 
HETATM   33  C   UNL     1      -9.620   6.789  67.224  1.00  0.00    -0.137 C  
HETATM   34  H   UNL     1      -9.686   2.208  68.277  1.00  0.00     0.000 HD 
HETATM   35  C   UNL     1      -9.937   5.654  66.216  1.00  0.00    -0.115 C  
HETATM   36  O   UNL     1     -11.323   5.565  65.991  1.00  0.00    -0.753 OA 
HETATM   37  C   UNL     1      -9.419   4.326  66.805  1.00  0.00    -0.186 C  
HETATM   38  O   UNL     1      -9.525   2.973  68.815  1.00  0.00    -0.175 OA 
HETATM   39  H   UNL     1     -11.516   4.870  65.374  1.00  0.00     0.000 HD 
HETATM   40  O   UNL     1      -9.770   3.228  65.999  1.00  0.00    -0.385 OA 
HETATM   41  C   UNL     1     -10.022   4.141  68.207  1.00  0.00     0.082 C  
HETATM   42  H   UNL     1      -9.450   2.410  66.362  1.00  0.00     0.000 HD 
BRANCH  33  43
HETATM   43  C   UNL     1     -10.071   8.165  66.708  1.00  0.00    -0.295 C  
HETATM   44  O   UNL     1     -10.898   8.812  67.638  1.00  0.00    -0.472 OA 
HETATM   45  H   UNL     1     -11.176   9.662  67.319  1.00  0.00     0.000 HD 
ENDBRANCH  33  43
ENDBRANCH  30  31
ENDBRANCH  29  30
BRANCH  29  46
HETATM   46  C   UNL     1      -8.909   5.116  72.290  1.00  0.00    -0.129 C  
HETATM   47  O   UNL     1      -9.400   4.920  73.596  1.00  0.00    -0.125 OA 
HETATM   48  H   UNL     1      -8.781   4.430  74.123  1.00  0.00     0.000 HD 
BRANCH  46  49
HETATM   49  C   UNL     1      -7.465   5.669  72.286  1.00  0.00    -0.099 C  
HETATM   50  H   UNL     1      -6.382   6.883  71.202  1.00  0.00     0.000 HD 
HETATM   51  O   UNL     1      -7.269   6.543  71.205  1.00  0.00    -0.075 OA 
ENDBRANCH  46  49
ENDBRANCH  29  46
ENDBRANCH  26  29
ENDBRANCH  23  26
ENDBRANCH  21  23
ENDBRANCH  20  21
ENDBRANCH  19  20
ENDBRANCH  18  19
ENDBRANCH  16  18
ENDBRANCH  13  16
ENDBRANCH  10  13
ENDBRANCH   7  10
ENDBRANCH   4   7
ENDBRANCH   2   4
TORSDOF 17
ENDMDL
MODEL      113
REMARK 921   NORMALIZED FREE ENERGY PREDICTED BY IDOCK:   -5.22 KCAL/MOL
REMARK 922        TOTAL FREE ENERGY PREDICTED BY IDOCK:  -13.84 KCAL/MOL
REMARK 923 INTER-LIGAND FREE ENERGY PREDICTED BY IDOCK:  -11.03 KCAL/MOL
REMARK 924 INTRA-LIGAND FREE ENERGY PREDICTED BY IDOCK:   -2.81 KCAL/MOL
REMARK 927      BINDING AFFINITY PREDICTED BY RF-SCORE:    0.00 PKD
ROOT
HETATM    1  O   UNL     1     -11.894   6.301  69.813  1.00  0.00    -0.476 OA 
HETATM    2  C   UNL     1     -10.631   6.215  69.212  1.00  0.00    -0.285 C  
HETATM    3  H   UNL     1     -11.794   6.450  70.746  1.00  0.00     0.000 HD 
ENDROOT
BRANCH   2   4
HETATM    4  C   UNL     1     -10.792   5.974  67.701  1.00  0.00    -0.295 C  
HETATM    5  O   UNL     1     -11.478   7.059  67.129  1.00  0.00    -0.608 OA 
HETATM    6  H   UNL     1     -11.578   6.910  66.196  1.00  0.00     0.000 HD 
BRANCH   4   7
HETATM    7  C   UNL     1      -9.418   5.804  67.001  1.00  0.00    -0.124 C  
HETATM    8  H   UNL     1      -8.752   5.057  65.334  1.00  0.00     0.000 HD 
HETATM    9  O   UNL     1      -9.594   5.162  65.762  1.00  0.00    -0.159 OA 
BRANCH   7  10
HETATM   10  C   UNL     1      -8.712   7.166  66.769  1.00  0.00    -0.127 C  
HETATM   11  H   UNL     1      -8.640   8.477  65.352  1.00  0.00     0.000 HD 
HETATM   12  O   UNL     1      -9.072   7.642  65.494  1.00  0.00    -0.006 OA 
BRANCH  10  13
HETATM   13  C   UNL     1      -7.163   7.084  66.856  1.00  0.00    -0.077 C  
HETATM   14  H   UNL     1      -5.643   7.953  66.015  1.00  0.00     0.000 HD 
HETATM   15  O   UNL     1      -6.591   8.003  65.962  1.00  0.00    -0.046 OA 
BRANCH  13  16
HETATM   16  C   UNL     1      -6.624   7.381  68.236  1.00  0.00    -0.050 C  
HETATM   17  O   UNL     1      -5.636   8.088  68.360  1.00  0.00    -0.031 OA 
BRANCH  16  18
HETATM   18  O   UNL     1      -7.208   6.869  69.337  1.00  0.00    -0.083 OA 
BRANCH  18  19
HETATM   19 CA   UNL     1      -8.818   8.211  70.549  1.00  0.00    -0.123 Ca 
BRANCH  19  20
HETATM   20  O   UNL     1     -10.426   9.552  71.760  1.00  0.00    -0.182 OA 
BRANCH  20  21
HETATM   21  C   UNL     1     -11.540   9.667  71.016  1.00  0.00    -0.359 C  
HETATM   22  O   UNL     1     -12.259   8.689  70.911  1.00  0.00    -0.230 OA 
BRANCH  21  23
HETATM   23  C   UNL     1     -11.821  10.901  70.188  1.00  0.00    -0.353 C  
HETATM   24  H   UNL     1     -13.332  11.621  69.228  1.00  0.00     0.000 HD 
HETATM   25  O   UNL     1     -13.156  10.846  69.748  1.00  0.00    -0.057 OA 
BRANCH  23  26
HETATM   26  C   UNL     1     -10.886  11.082  68.953  1.00  0.00    -0.217 C  
HETATM   27  H   UNL     1     -10.455  10.087  67.345  1.00  0.00     0.000 HD 
HETATM   28  O   UNL     1     -11.025   9.976  68.098  1.00  0.00    -0.255 OA 
BRANCH  26  29
HETATM   29  C   UNL     1     -11.032  12.407  68.128  1.00  0.00    -0.228 C  
BRANCH  29  30
HETATM   30  O   UNL     1      -9.797  12.597  67.452  1.00  0.00    -0.201 OA 
BRANCH  30  31
HETATM   31  C   UNL     1      -9.891  12.959  66.089  1.00  0.00    -0.270 C  
HETATM   32  O   UNL     1     -11.008  13.809  65.886  1.00  0.00    -0.282 OA 
HETATM   33  C   UNL     1     -11.106  14.193  64.523  1.00  0.00    -0.330 C  
HETATM   34  H   UNL     1      -9.093   9.970  64.990  1.00  0.00     0.000 HD 
HETATM   35  C   UNL     1     -11.427  12.957  63.643  1.00  0.00    -0.446 C  
HETATM   36  O   UNL     1     -12.636  12.363  64.047  1.00  0.00    -0.592 OA 
HETATM   37  C   UNL     1     -10.273  11.944  63.793  1.00  0.00    -0.413 C  
HETATM   38  O   UNL     1      -8.983  10.775  65.481  1.00  0.00    -0.183 OA 
HETATM   39  H   UNL     1     -12.832  11.607  63.508  1.00  0.00     0.000 HD 
HETATM   40  O   UNL     1     -10.544  10.744  63.111  1.00  0.00    -0.673 OA 
HETATM   41  C   UNL     1     -10.072  11.645  65.288  1.00  0.00    -0.264 C  
HETATM   42  H   UNL     1      -9.834  10.120  63.203  1.00  0.00     0.000 HD 
BRANCH  33  43
HETATM   43  C   UNL     1     -12.187  15.279  64.414  1.00  0.00    -0.210 C  
HETATM   44  O   UNL     1     -11.705  16.412  63.743  1.00  0.00    -1.553 OA 
HETATM   45  H   UNL     1     -12.373  17.083  63.675  1.00  0.00     0.000 HD 
ENDBRANCH  33  43
ENDBRANCH  30  31
ENDBRANCH  29  30
BRANCH  29  46
HETATM   46  C   UNL     1     -11.460  13.679  68.942  1.00  0.00    -0.303 C  
HETATM   47  O   UNL     1     -12.484  14.382  68.277  1.00  0.00    -0.587 OA 
HETATM   48  H   UNL     1     -12.743  15.151  68.770  1.00  0.00     0.000 HD 
BRANCH  46  49
HETATM   49  C   UNL     1     -10.297  14.604  69.370  1.00  0.00    -0.122 C  
HETATM   50  H   UNL     1     -10.009  16.508  69.706  1.00  0.00     0.000 HD 
HETATM   51  O   UNL     1     -10.724  15.939  69.443  1.00  0.00    -0.229 OA 
ENDBRANCH  46  49
ENDBRANCH  29  46
ENDBRANCH  26  29
ENDBRANCH  23  26
ENDBRANCH  21  23
ENDBRANCH  20  21
ENDBRANCH  19  20
ENDBRANCH  18  19
ENDBRANCH  16  18
ENDBRANCH  13  16
ENDBRANCH  10  13
ENDBRANCH   7  10
ENDBRANCH   4   7
ENDBRANCH   2   4
TORSDOF 17
ENDMDL
MODEL      114
REMARK 921   NORMALIZED FREE ENERGY PREDICTED BY IDOCK:   -5.21 KCAL/MOL
REMARK 922        TOTAL FREE ENERGY PREDICTED BY IDOCK:  -13.83 KCAL/MOL
REMARK 923 INTER-LIGAND FREE ENERGY PREDICTED BY IDOCK:  -11.59 KCAL/MOL
REMARK 924 INTRA-LIGAND FREE ENERGY PREDICTED BY IDOCK:   -2.25 KCAL/MOL
REMARK 927      BINDING AFFINITY PREDICTED BY RF-SCORE:    0.00 PKD
ROOT
HETATM    1  O   UNL     1     -11.950  16.578  71.652  1.00  0.00    -0.651 OA 
HETATM    2  C   UNL     1     -11.649  15.632  72.642  1.00  0.00    -0.380 C  
HETATM    3  H   UNL     1     -11.146  16.958  71.318  1.00  0.00     0.000 HD 
ENDROOT
BRANCH   2   4
HETATM    4  C   UNL     1     -12.952  15.017  73.183  1.00  0.00    -0.522 C  
HETATM    5  O   UNL     1     -13.842  16.048  73.532  1.00  0.00    -0.796 OA 
HETATM    6  H   UNL     1     -14.646  15.668  73.866  1.00  0.00     0.000 HD 
BRANCH   4   7
HETATM    7  C   UNL     1     -13.621  14.088  72.137  1.00  0.00    -0.489 C  
HETATM    8  H   UNL     1     -14.817  14.284  70.617  1.00  0.00     0.000 HD 
HETATM    9  O   UNL     1     -14.407  14.853  71.257  1.00  0.00    -0.439 OA 
BRANCH   7  10
HETATM   10  C   UNL     1     -12.573  13.291  71.315  1.00  0.00    -0.308 C  
HETATM   11  H   UNL     1     -12.199  12.995  69.443  1.00  0.00     0.000 HD 
HETATM   12  O   UNL     1     -12.841  13.483  69.946  1.00  0.00     0.005 OA 
BRANCH  10  13
HETATM   13  C   UNL     1     -12.575  11.768  71.619  1.00  0.00    -0.144 C  
HETATM   14  H   UNL     1     -13.899  10.387  71.959  1.00  0.00     0.000 HD 
HETATM   15  O   UNL     1     -13.897  11.319  71.773  1.00  0.00     0.141 OA 
BRANCH  13  16
HETATM   16  C   UNL     1     -11.927  10.938  70.536  1.00  0.00    -0.371 C  
HETATM   17  O   UNL     1     -10.925  10.287  70.789  1.00  0.00    -0.306 OA 
BRANCH  16  18
HETATM   18  O   UNL     1     -12.429  10.911  69.285  1.00  0.00    -0.392 OA 
BRANCH  18  19
HETATM   19 CA   UNL     1     -11.133   9.887  67.516  1.00  0.00    -0.225 Ca 
BRANCH  19  20
HETATM   20  O   UNL     1      -9.837   8.861  65.748  1.00  0.00    -0.226 OA 
BRANCH  20  21
HETATM   21  C   UNL     1      -9.534   9.800  64.835  1.00  0.00    -0.265 C  
HETATM   22  O   UNL     1      -8.509   9.658  64.190  1.00  0.00    -0.153 OA 
BRANCH  21  23
HETATM   23  C   UNL     1     -10.325  11.083  64.718  1.00  0.00    -0.324 C  
HETATM   24  H   UNL     1     -10.520  12.487  63.407  1.00  0.00     0.000 HD 
HETATM   25  O   UNL     1     -10.023  11.681  63.481  1.00  0.00    -0.337 OA 
BRANCH  23  26
HETATM   26  C   UNL     1     -10.064  12.115  65.858  1.00  0.00    -0.245 C  
HETATM   27  H   UNL     1      -8.568  12.649  66.969  1.00  0.00     0.000 HD 
HETATM   28  O   UNL     1      -8.726  12.020  66.275  1.00  0.00    -0.144 OA 
BRANCH  26  29
HETATM   29  C   UNL     1     -10.419  13.614  65.567  1.00  0.00    -0.306 C  
BRANCH  29  30
HETATM   30  O   UNL     1      -9.297  14.380  65.982  1.00  0.00    -0.242 OA 
BRANCH  30  31
HETATM   31  C   UNL     1      -9.584  15.504  66.789  1.00  0.00    -0.235 C  
HETATM   32  O   UNL     1      -9.858  16.632  65.975  1.00  0.00    -0.323 OA 
HETATM   33  C   UNL     1     -10.164  17.765  66.774  1.00  0.00    -0.351 C  
HETATM   34  H   UNL     1      -7.252  14.817  68.995  1.00  0.00     0.000 HD 
HETATM   35  C   UNL     1      -8.915  18.198  67.585  1.00  0.00    -0.259 C  
HETATM   36  O   UNL     1      -7.850  18.511  66.721  1.00  0.00    -0.227 OA 
HETATM   37  C   UNL     1      -8.510  17.031  68.510  1.00  0.00    -0.257 C  
HETATM   38  O   UNL     1      -8.022  14.656  68.464  1.00  0.00    -0.123 OA 
HETATM   39  H   UNL     1      -7.085  18.776  67.218  1.00  0.00     0.000 HD 
HETATM   40  O   UNL     1      -7.314  17.305  69.198  1.00  0.00    -0.236 OA 
HETATM   41  C   UNL     1      -8.327  15.766  67.655  1.00  0.00    -0.157 C  
HETATM   42  H   UNL     1      -7.065  16.587  69.768  1.00  0.00     0.000 HD 
BRANCH  33  43
HETATM   43  C   UNL     1     -10.666  18.879  65.843  1.00  0.00    -0.297 C  
HETATM   44  O   UNL     1     -10.865  20.078  66.544  1.00  0.00    -0.372 OA 
HETATM   45  H   UNL     1     -11.175  20.766  65.968  1.00  0.00     0.000 HD 
ENDBRANCH  33  43
ENDBRANCH  30  31
ENDBRANCH  29  30
BRANCH  29  46
HETATM   46  C   UNL     1     -11.757  14.138  66.198  1.00  0.00    -0.393 C  
HETATM   47  O   UNL     1     -12.156  13.328  67.279  1.00  0.00    -0.357 OA 
HETATM   48  H   UNL     1     -12.965  13.645  67.661  1.00  0.00     0.000 HD 
BRANCH  46  49
HETATM   49  C   UNL     1     -12.906  14.377  65.191  1.00  0.00    -0.158 C  
HETATM   50  H   UNL     1     -13.109  14.959  63.336  1.00  0.00     0.000 HD 
HETATM   51  O   UNL     1     -12.403  14.812  63.955  1.00  0.00    -0.728 OA 
ENDBRANCH  46  49
ENDBRANCH  29  46
ENDBRANCH  26  29
ENDBRANCH  23  26
ENDBRANCH  21  23
ENDBRANCH  20  21
ENDBRANCH  19  20
ENDBRANCH  18  19
ENDBRANCH  16  18
ENDBRANCH  13  16
ENDBRANCH  10  13
ENDBRANCH   7  10
ENDBRANCH   4   7
ENDBRANCH   2   4
TORSDOF 17
ENDMDL
MODEL      115
REMARK 921   NORMALIZED FREE ENERGY PREDICTED BY IDOCK:   -5.21 KCAL/MOL
REMARK 922        TOTAL FREE ENERGY PREDICTED BY IDOCK:  -13.83 KCAL/MOL
REMARK 923 INTER-LIGAND FREE ENERGY PREDICTED BY IDOCK:  -11.11 KCAL/MOL
REMARK 924 INTRA-LIGAND FREE ENERGY PREDICTED BY IDOCK:   -2.72 KCAL/MOL
REMARK 927      BINDING AFFINITY PREDICTED BY RF-SCORE:    0.00 PKD
ROOT
HETATM    1  O   UNL     1     -11.467   4.642  65.297  1.00  0.00    -1.070 OA 
HETATM    2  C   UNL     1     -10.097   4.570  65.582  1.00  0.00    -0.244 C  
HETATM    3  H   UNL     1     -11.605   4.541  64.362  1.00  0.00     0.000 HD 
ENDROOT
BRANCH   2   4
HETATM    4  C   UNL     1      -9.874   4.734  67.095  1.00  0.00    -0.193 C  
HETATM    5  O   UNL     1      -8.694   4.066  67.466  1.00  0.00    -0.099 OA 
HETATM    6  H   UNL     1      -8.556   4.167  68.400  1.00  0.00     0.000 HD 
BRANCH   4   7
HETATM    7  C   UNL     1      -9.769   6.229  67.497  1.00  0.00    -0.117 C  
HETATM    8  H   UNL     1     -10.749   7.870  67.143  1.00  0.00     0.000 HD 
HETATM    9  O   UNL     1     -10.814   6.955  66.897  1.00  0.00    -0.351 OA 
BRANCH   7  10
HETATM   10  C   UNL     1      -9.839   6.422  69.035  1.00  0.00    -0.138 C  
HETATM   11  H   UNL     1     -10.115   5.287  70.574  1.00  0.00     0.000 HD 
HETATM   12  O   UNL     1     -10.072   5.169  69.632  1.00  0.00    -0.220 OA 
BRANCH  10  13
HETATM   13  C   UNL     1     -10.953   7.408  69.485  1.00  0.00    -0.139 C  
HETATM   14  H   UNL     1     -12.514   7.359  70.639  1.00  0.00     0.000 HD 
HETATM   15  O   UNL     1     -11.833   6.756  70.364  1.00  0.00    -0.376 OA 
BRANCH  13  16
HETATM   16  C   UNL     1     -10.420   8.635  70.187  1.00  0.00    -0.217 C  
HETATM   17  O   UNL     1      -9.318   9.071  69.891  1.00  0.00    -0.158 OA 
BRANCH  16  18
HETATM   18  O   UNL     1     -11.136   9.254  71.147  1.00  0.00    -0.282 OA 
BRANCH  18  19
HETATM   19 CA   UNL     1     -12.060  11.446  70.699  1.00  0.00    -0.245 Ca 
BRANCH  19  20
HETATM   20  O   UNL     1     -12.984  13.637  70.250  1.00  0.00    -0.080 OA 
BRANCH  20  21
HETATM   21  C   UNL     1     -12.000  14.548  70.345  1.00  0.00    -0.318 C  
HETATM   22  O   UNL     1     -11.791  15.051  71.436  1.00  0.00    -0.315 OA 
BRANCH  21  23
HETATM   23  C   UNL     1     -11.282  15.076  69.124  1.00  0.00    -0.281 C  
HETATM   24  H   UNL     1     -11.449  16.608  67.962  1.00  0.00     0.000 HD 
HETATM   25  O   UNL     1     -11.900  16.276  68.729  1.00  0.00    -0.278 OA 
BRANCH  23  26
HETATM   26  C   UNL     1     -11.254  14.096  67.911  1.00  0.00    -0.279 C  
HETATM   27  H   UNL     1     -12.331  13.766  66.333  1.00  0.00     0.000 HD 
HETATM   28  O   UNL     1     -12.349  14.363  67.072  1.00  0.00    -0.353 OA 
BRANCH  26  29
HETATM   29  C   UNL     1      -9.939  14.041  67.060  1.00  0.00    -0.257 C  
BRANCH  29  30
HETATM   30  O   UNL     1     -10.146  14.897  65.945  1.00  0.00    -0.287 OA 
BRANCH  30  31
HETATM   31  C   UNL     1      -9.469  16.137  65.987  1.00  0.00    -0.339 C  
HETATM   32  O   UNL     1      -8.870  16.322  67.259  1.00  0.00    -0.183 OA 
HETATM   33  C   UNL     1      -8.172  17.558  67.310  1.00  0.00    -0.208 C  
HETATM   34  H   UNL     1     -11.802  17.743  64.329  1.00  0.00     0.000 HD 
HETATM   35  C   UNL     1      -9.171  18.739  67.204  1.00  0.00    -0.287 C  
HETATM   36  O   UNL     1     -10.107  18.689  68.253  1.00  0.00    -0.355 OA 
HETATM   37  C   UNL     1      -9.901  18.635  65.849  1.00  0.00    -0.030 C  
HETATM   38  O   UNL     1     -11.152  17.069  64.484  1.00  0.00    -1.098 OA 
HETATM   39  H   UNL     1     -10.719  19.413  68.188  1.00  0.00     0.000 HD 
HETATM   40  O   UNL     1     -10.909  19.610  65.726  1.00  0.00    -0.468 OA 
HETATM   41  C   UNL     1     -10.530  17.237  65.735  1.00  0.00    -0.229 C  
HETATM   42  H   UNL     1     -11.358  19.546  64.892  1.00  0.00     0.000 HD 
BRANCH  33  43
HETATM   43  C   UNL     1      -7.368  17.594  68.619  1.00  0.00    -0.257 C  
HETATM   44  O   UNL     1      -7.247  18.903  69.107  1.00  0.00    -0.306 OA 
HETATM   45  H   UNL     1      -6.751  18.925  69.916  1.00  0.00     0.000 HD 
ENDBRANCH  33  43
ENDBRANCH  30  31
ENDBRANCH  29  30
BRANCH  29  46
HETATM   46  C   UNL     1      -9.462  12.611  66.624  1.00  0.00    -0.244 C  
HETATM   47  O   UNL     1      -9.657  12.412  65.243  1.00  0.00    -0.434 OA 
HETATM   48  H   UNL     1      -9.369  11.547  64.980  1.00  0.00     0.000 HD 
BRANCH  46  49
HETATM   49  C   UNL     1     -10.030  11.447  67.469  1.00  0.00    -0.182 C  
HETATM   50  H   UNL     1     -10.364   9.532  67.257  1.00  0.00     0.000 HD 
HETATM   51  O   UNL     1     -10.015  10.248  66.738  1.00  0.00    -0.192 OA 
ENDBRANCH  46  49
ENDBRANCH  29  46
ENDBRANCH  26  29
ENDBRANCH  23  26
ENDBRANCH  21  23
ENDBRANCH  20  21
ENDBRANCH  19  20
ENDBRANCH  18  19
ENDBRANCH  16  18
ENDBRANCH  13  16
ENDBRANCH  10  13
ENDBRANCH   7  10
ENDBRANCH   4   7
ENDBRANCH   2   4
TORSDOF 17
ENDMDL
MODEL      116
REMARK 921   NORMALIZED FREE ENERGY PREDICTED BY IDOCK:   -5.21 KCAL/MOL
REMARK 922        TOTAL FREE ENERGY PREDICTED BY IDOCK:  -13.83 KCAL/MOL
REMARK 923 INTER-LIGAND FREE ENERGY PREDICTED BY IDOCK:  -10.52 KCAL/MOL
REMARK 924 INTRA-LIGAND FREE ENERGY PREDICTED BY IDOCK:   -3.30 KCAL/MOL
REMARK 927      BINDING AFFINITY PREDICTED BY RF-SCORE:    0.00 PKD
ROOT
HETATM    1  O   UNL     1     -13.068  12.541  64.526  1.00  0.00    -0.816 OA 
HETATM    2  C   UNL     1     -13.020  13.789  65.162  1.00  0.00    -0.229 C  
HETATM    3  H   UNL     1     -13.639  12.591  63.768  1.00  0.00     0.000 HD 
ENDROOT
BRANCH   2   4
HETATM    4  C   UNL     1     -12.096  13.708  66.389  1.00  0.00    -0.433 C  
HETATM    5  O   UNL     1     -11.979  12.368  66.796  1.00  0.00    -0.559 OA 
HETATM    6  H   UNL     1     -11.408  12.318  67.554  1.00  0.00     0.000 HD 
BRANCH   4   7
HETATM    7  C   UNL     1     -10.686  14.279  66.079  1.00  0.00    -0.304 C  
HETATM    8  H   UNL     1      -9.431  14.243  64.595  1.00  0.00     0.000 HD 
HETATM    9  O   UNL     1     -10.294  13.893  64.784  1.00  0.00    -0.418 OA 
BRANCH   7  10
HETATM   10  C   UNL     1     -10.653  15.827  66.177  1.00  0.00    -0.313 C  
HETATM   11  H   UNL     1     -10.572  17.303  64.934  1.00  0.00     0.000 HD 
HETATM   12  O   UNL     1     -10.592  16.355  64.874  1.00  0.00    -0.677 OA 
BRANCH  10  13
HETATM   13  C   UNL     1      -9.449  16.370  66.996  1.00  0.00    -0.230 C  
HETATM   14  H   UNL     1      -8.331  17.957  66.999  1.00  0.00     0.000 HD 
HETATM   15  O   UNL     1      -9.066  17.626  66.497  1.00  0.00    -0.260 OA 
BRANCH  13  16
HETATM   16  C   UNL     1      -9.747  16.526  68.469  1.00  0.00    -0.239 C  
HETATM   17  O   UNL     1     -10.389  17.490  68.857  1.00  0.00    -0.353 OA 
BRANCH  16  18
HETATM   18  O   UNL     1      -9.307  15.624  69.368  1.00  0.00    -0.255 OA 
BRANCH  18  19
HETATM   19 CA   UNL     1     -10.662  13.677  69.847  1.00  0.00    -0.389 Ca 
BRANCH  19  20
HETATM   20  O   UNL     1     -12.017  11.730  70.325  1.00  0.00    -0.340 OA 
BRANCH  20  21
HETATM   21  C   UNL     1     -11.221  10.647  70.355  1.00  0.00    -0.252 C  
HETATM   22  O   UNL     1     -11.290   9.915  71.328  1.00  0.00    -0.368 OA 
BRANCH  21  23
HETATM   23  C   UNL     1     -10.146  10.419  69.316  1.00  0.00    -0.230 C  
HETATM   24  H   UNL     1      -9.294  11.469  67.938  1.00  0.00     0.000 HD 
HETATM   25  O   UNL     1      -9.969  11.612  68.591  1.00  0.00    -0.209 OA 
BRANCH  23  26
HETATM   26  C   UNL     1     -10.440   9.257  68.320  1.00  0.00    -0.215 C  
HETATM   27  H   UNL     1     -11.572   8.973  66.771  1.00  0.00     0.000 HD 
HETATM   28  O   UNL     1     -11.393   9.681  67.378  1.00  0.00     0.057 OA 
BRANCH  26  29
HETATM   29  C   UNL     1      -9.216   8.618  67.578  1.00  0.00    -0.133 C  
BRANCH  29  30
HETATM   30  O   UNL     1      -8.722   9.610  66.689  1.00  0.00    -0.132 OA 
BRANCH  30  31
HETATM   31  C   UNL     1      -8.703   9.256  65.321  1.00  0.00    -0.184 C  
HETATM   32  O   UNL     1      -7.369   9.031  64.895  1.00  0.00    -0.096 OA 
HETATM   33  C   UNL     1      -7.336   8.660  63.525  1.00  0.00    -0.101 C  
HETATM   34  H   UNL     1     -11.013  11.429  64.476  1.00  0.00     0.000 HD 
HETATM   35  C   UNL     1      -7.805   9.843  62.640  1.00  0.00    -0.125 C  
HETATM   36  O   UNL     1      -6.980  10.965  62.838  1.00  0.00    -0.356 OA 
HETATM   37  C   UNL     1      -9.258  10.190  63.026  1.00  0.00    -0.293 C  
HETATM   38  O   UNL     1     -10.637  10.700  64.955  1.00  0.00    -0.279 OA 
HETATM   39  H   UNL     1      -7.268  11.690  62.295  1.00  0.00     0.000 HD 
HETATM   40  O   UNL     1      -9.718  11.331  62.344  1.00  0.00    -0.556 OA 
HETATM   41  C   UNL     1      -9.317  10.446  64.541  1.00  0.00    -0.264 C  
HETATM   42  H   UNL     1     -10.613  11.544  62.582  1.00  0.00     0.000 HD 
BRANCH  33  43
HETATM   43  C   UNL     1      -5.903   8.217  63.189  1.00  0.00    -0.072 C  
HETATM   44  O   UNL     1      -5.568   7.029  63.855  1.00  0.00    -0.031 OA 
HETATM   45  H   UNL     1      -4.683   6.755  63.647  1.00  0.00     0.000 HD 
ENDBRANCH  33  43
ENDBRANCH  30  31
ENDBRANCH  29  30
BRANCH  29  46
HETATM   46  C   UNL     1      -9.491   7.256  66.848  1.00  0.00    -0.164 C  
HETATM   47  O   UNL     1     -10.862   7.102  66.565  1.00  0.00    -0.482 OA 
HETATM   48  H   UNL     1     -11.029   6.278  66.124  1.00  0.00     0.000 HD 
BRANCH  46  49
HETATM   49  C   UNL     1      -8.893   6.010  67.540  1.00  0.00    -0.109 C  
HETATM   50  H   UNL     1      -8.015   5.574  69.232  1.00  0.00     0.000 HD 
HETATM   51  O   UNL     1      -8.383   6.339  68.806  1.00  0.00    -0.118 OA 
ENDBRANCH  46  49
ENDBRANCH  29  46
ENDBRANCH  26  29
ENDBRANCH  23  26
ENDBRANCH  21  23
ENDBRANCH  20  21
ENDBRANCH  19  20
ENDBRANCH  18  19
ENDBRANCH  16  18
ENDBRANCH  13  16
ENDBRANCH  10  13
ENDBRANCH   7  10
ENDBRANCH   4   7
ENDBRANCH   2   4
TORSDOF 17
ENDMDL
MODEL      117
REMARK 921   NORMALIZED FREE ENERGY PREDICTED BY IDOCK:   -5.21 KCAL/MOL
REMARK 922        TOTAL FREE ENERGY PREDICTED BY IDOCK:  -13.82 KCAL/MOL
REMARK 923 INTER-LIGAND FREE ENERGY PREDICTED BY IDOCK:  -10.91 KCAL/MOL
REMARK 924 INTRA-LIGAND FREE ENERGY PREDICTED BY IDOCK:   -2.91 KCAL/MOL
REMARK 927      BINDING AFFINITY PREDICTED BY RF-SCORE:    0.00 PKD
ROOT
HETATM    1  O   UNL     1     -14.061   8.824  73.047  1.00  0.00    -1.035 OA 
HETATM    2  C   UNL     1     -13.391   9.664  72.148  1.00  0.00    -0.454 C  
HETATM    3  H   UNL     1     -14.598   9.345  73.632  1.00  0.00     0.000 HD 
ENDROOT
BRANCH   2   4
HETATM    4  C   UNL     1     -12.522   8.820  71.200  1.00  0.00    -0.193 C  
HETATM    5  O   UNL     1     -12.350   9.511  69.988  1.00  0.00    -0.383 OA 
HETATM    6  H   UNL     1     -11.813   8.990  69.403  1.00  0.00     0.000 HD 
BRANCH   4   7
HETATM    7  C   UNL     1     -11.133   8.514  71.821  1.00  0.00    -0.307 C  
HETATM    8  H   UNL     1     -10.451   7.735  73.467  1.00  0.00     0.000 HD 
HETATM    9  O   UNL     1     -11.301   7.922  73.087  1.00  0.00    -0.361 OA 
BRANCH   7  10
HETATM   10  C   UNL     1     -10.294   7.563  70.926  1.00  0.00    -0.201 C  
HETATM   11  H   UNL     1      -9.524   7.630  69.157  1.00  0.00     0.000 HD 
HETATM   12  O   UNL     1     -10.037   8.212  69.705  1.00  0.00    -0.190 OA 
BRANCH  10  13
HETATM   13  C   UNL     1     -10.995   6.207  70.637  1.00  0.00    -0.311 C  
HETATM   14  H   UNL     1     -12.104   5.449  69.234  1.00  0.00     0.000 HD 
HETATM   15  O   UNL     1     -11.675   6.279  69.411  1.00  0.00    -0.319 OA 
BRANCH  13  16
HETATM   16  C   UNL     1     -10.039   5.040  70.570  1.00  0.00    -0.253 C  
HETATM   17  O   UNL     1     -10.105   4.154  71.408  1.00  0.00    -0.173 OA 
BRANCH  16  18
HETATM   18  O   UNL     1      -9.102   4.962  69.604  1.00  0.00    -0.099 OA 
BRANCH  18  19
HETATM   19 CA   UNL     1      -8.858   6.799  68.047  1.00  0.00    -0.118 Ca 
BRANCH  19  20
HETATM   20  O   UNL     1      -8.615   8.635  66.491  1.00  0.00    -0.110 OA 
BRANCH  20  21
HETATM   21  C   UNL     1      -7.388   9.164  66.635  1.00  0.00    -0.086 C  
HETATM   22  O   UNL     1      -6.435   8.403  66.627  1.00  0.00    -0.054 OA 
BRANCH  21  23
HETATM   23  C   UNL     1      -7.183  10.624  66.971  1.00  0.00    -0.101 C  
HETATM   24  H   UNL     1      -5.761  11.698  67.713  1.00  0.00     0.000 HD 
HETATM   25  O   UNL     1      -5.890  10.781  67.501  1.00  0.00    -0.044 OA 
BRANCH  23  26
HETATM   26  C   UNL     1      -8.219  11.210  67.978  1.00  0.00    -0.125 C  
HETATM   27  H   UNL     1      -8.170  12.155  69.671  1.00  0.00     0.000 HD 
HETATM   28  O   UNL     1      -7.539  11.797  69.057  1.00  0.00    -0.089 OA 
BRANCH  26  29
HETATM   29  C   UNL     1      -9.280  12.218  67.414  1.00  0.00    -0.182 C  
BRANCH  29  30
HETATM   30  O   UNL     1      -9.282  13.333  68.294  1.00  0.00    -0.206 OA 
BRANCH  30  31
HETATM   31  C   UNL     1     -10.056  14.441  67.881  1.00  0.00    -0.228 C  
HETATM   32  O   UNL     1     -10.127  14.487  66.466  1.00  0.00    -0.259 OA 
HETATM   33  C   UNL     1     -10.915  15.587  66.038  1.00  0.00    -0.251 C  
HETATM   34  H   UNL     1      -8.814  16.461  70.151  1.00  0.00     0.000 HD 
HETATM   35  C   UNL     1     -10.215  16.920  66.408  1.00  0.00    -0.321 C  
HETATM   36  O   UNL     1      -8.946  16.995  65.807  1.00  0.00    -0.526 OA 
HETATM   37  C   UNL     1     -10.070  16.980  67.943  1.00  0.00    -0.306 C  
HETATM   38  O   UNL     1      -9.249  15.684  69.822  1.00  0.00    -0.255 OA 
HETATM   39  H   UNL     1      -8.517  17.812  66.035  1.00  0.00     0.000 HD 
HETATM   40  O   UNL     1      -9.340  18.111  68.352  1.00  0.00    -0.291 OA 
HETATM   41  C   UNL     1      -9.346  15.709  68.418  1.00  0.00    -0.195 C  
HETATM   42  H   UNL     1      -9.251  18.148  69.297  1.00  0.00     0.000 HD 
BRANCH  33  43
HETATM   43  C   UNL     1     -11.136  15.450  64.523  1.00  0.00    -0.256 C  
HETATM   44  O   UNL     1     -11.304  16.704  63.917  1.00  0.00    -1.558 OA 
HETATM   45  H   UNL     1     -11.440  16.619  62.982  1.00  0.00     0.000 HD 
ENDBRANCH  33  43
ENDBRANCH  30  31
ENDBRANCH  29  30
BRANCH  29  46
HETATM   46  C   UNL     1     -10.722  11.642  67.188  1.00  0.00    -0.247 C  
HETATM   47  O   UNL     1     -10.831  10.337  67.705  1.00  0.00    -0.252 OA 
HETATM   48  H   UNL     1     -11.703   9.988  67.569  1.00  0.00     0.000 HD 
BRANCH  46  49
HETATM   49  C   UNL     1     -11.247  11.742  65.737  1.00  0.00    -0.281 C  
HETATM   50  H   UNL     1     -10.924  10.872  64.016  1.00  0.00     0.000 HD 
HETATM   51  O   UNL     1     -10.602  10.810  64.908  1.00  0.00    -0.292 OA 
ENDBRANCH  46  49
ENDBRANCH  29  46
ENDBRANCH  26  29
ENDBRANCH  23  26
ENDBRANCH  21  23
ENDBRANCH  20  21
ENDBRANCH  19  20
ENDBRANCH  18  19
ENDBRANCH  16  18
ENDBRANCH  13  16
ENDBRANCH  10  13
ENDBRANCH   7  10
ENDBRANCH   4   7
ENDBRANCH   2   4
TORSDOF 17
ENDMDL
MODEL      118
REMARK 921   NORMALIZED FREE ENERGY PREDICTED BY IDOCK:   -5.20 KCAL/MOL
REMARK 922        TOTAL FREE ENERGY PREDICTED BY IDOCK:  -13.81 KCAL/MOL
REMARK 923 INTER-LIGAND FREE ENERGY PREDICTED BY IDOCK:  -11.91 KCAL/MOL
REMARK 924 INTRA-LIGAND FREE ENERGY PREDICTED BY IDOCK:   -1.91 KCAL/MOL
REMARK 927      BINDING AFFINITY PREDICTED BY RF-SCORE:    0.00 PKD
ROOT
HETATM    1  O   UNL     1     -11.009   6.018  74.226  1.00  0.00    -0.323 OA 
HETATM    2  C   UNL     1     -10.580   7.119  73.473  1.00  0.00    -0.374 C  
HETATM    3  H   UNL     1     -10.422   5.885  74.962  1.00  0.00     0.000 HD 
ENDROOT
BRANCH   2   4
HETATM    4  C   UNL     1     -11.530   7.333  72.282  1.00  0.00    -0.278 C  
HETATM    5  O   UNL     1     -12.001   8.658  72.297  1.00  0.00    -0.364 OA 
HETATM    6  H   UNL     1     -12.588   8.790  71.562  1.00  0.00     0.000 HD 
BRANCH   4   7
HETATM    7  C   UNL     1     -10.823   7.051  70.930  1.00  0.00    -0.241 C  
HETATM    8  H   UNL     1     -11.343   6.506  69.138  1.00  0.00     0.000 HD 
HETATM    9  O   UNL     1     -11.777   6.679  69.966  1.00  0.00    -0.383 OA 
BRANCH   7  10
HETATM   10  C   UNL     1     -10.041   8.289  70.416  1.00  0.00    -0.190 C  
HETATM   11  H   UNL     1      -9.043   9.739  71.210  1.00  0.00     0.000 HD 
HETATM   12  O   UNL     1      -9.523   8.982  71.526  1.00  0.00    -0.272 OA 
BRANCH  10  13
HETATM   13  C   UNL     1     -10.909   9.264  69.575  1.00  0.00    -0.195 C  
HETATM   14  H   UNL     1     -11.509  11.107  69.704  1.00  0.00     0.000 HD 
HETATM   15  O   UNL     1     -10.978  10.510  70.219  1.00  0.00    -0.292 OA 
BRANCH  13  16
HETATM   16  C   UNL     1     -10.377   9.491  68.179  1.00  0.00    -0.208 C  
HETATM   17  O   UNL     1     -10.562   8.647  67.316  1.00  0.00    -0.291 OA 
BRANCH  16  18
HETATM   18  O   UNL     1      -9.688  10.608  67.870  1.00  0.00    -0.158 OA 
BRANCH  18  19
HETATM   19 CA   UNL     1     -10.415  11.961  66.000  1.00  0.00    -0.215 Ca 
BRANCH  19  20
HETATM   20  O   UNL     1     -11.142  13.313  64.129  1.00  0.00    -0.378 OA 
BRANCH  20  21
HETATM   21  C   UNL     1     -11.804  14.384  64.602  1.00  0.00    -0.451 C  
HETATM   22  O   UNL     1     -12.821  14.726  64.024  1.00  0.00    -0.697 OA 
BRANCH  21  23
HETATM   23  C   UNL     1     -11.233  15.253  65.699  1.00  0.00    -0.256 C  
HETATM   24  H   UNL     1     -10.065  16.787  65.798  1.00  0.00     0.000 HD 
HETATM   25  O   UNL     1     -10.423  16.240  65.109  1.00  0.00    -0.591 OA 
BRANCH  23  26
HETATM   26  C   UNL     1     -10.399  14.485  66.770  1.00  0.00    -0.269 C  
HETATM   27  H   UNL     1      -8.694  13.565  66.844  1.00  0.00     0.000 HD 
HETATM   28  O   UNL     1      -9.202  14.032  66.191  1.00  0.00    -0.172 OA 
BRANCH  26  29
HETATM   29  C   UNL     1     -10.085  15.235  68.110  1.00  0.00    -0.229 C  
BRANCH  29  30
HETATM   30  O   UNL     1      -8.682  15.458  68.126  1.00  0.00    -0.158 OA 
BRANCH  30  31
HETATM   31  C   UNL     1      -8.273  16.810  68.112  1.00  0.00    -0.199 C  
HETATM   32  O   UNL     1      -9.401  17.662  68.227  1.00  0.00    -0.272 OA 
HETATM   33  C   UNL     1      -9.003  19.024  68.230  1.00  0.00    -0.332 C  
HETATM   34  H   UNL     1      -6.011  16.354  65.778  1.00  0.00     0.000 HD 
HETATM   35  C   UNL     1      -8.400  19.406  66.853  1.00  0.00    -0.287 C  
HETATM   36  O   UNL     1      -9.339  19.198  65.827  1.00  0.00    -0.387 OA 
HETATM   37  C   UNL     1      -7.157  18.526  66.609  1.00  0.00    -0.208 C  
HETATM   38  O   UNL     1      -6.446  16.207  66.609  1.00  0.00    -0.254 OA 
HETATM   39  H   UNL     1      -8.969  19.432  64.984  1.00  0.00     0.000 HD 
HETATM   40  O   UNL     1      -6.617  18.734  65.326  1.00  0.00    -0.407 OA 
HETATM   41  C   UNL     1      -7.563  17.050  66.756  1.00  0.00    -0.238 C  
HETATM   42  H   UNL     1      -5.852  18.192  65.176  1.00  0.00     0.000 HD 
BRANCH  33  43
HETATM   43  C   UNL     1     -10.234  19.876  68.580  1.00  0.00    -0.409 C  
HETATM   44  O   UNL     1     -10.388  20.002  69.968  1.00  0.00    -0.614 OA 
HETATM   45  H   UNL     1     -11.148  20.529  70.184  1.00  0.00     0.000 HD 
ENDBRANCH  33  43
ENDBRANCH  30  31
ENDBRANCH  29  30
BRANCH  29  46
HETATM   46  C   UNL     1     -10.586  14.535  69.423  1.00  0.00    -0.157 C  
HETATM   47  O   UNL     1     -10.474  13.134  69.322  1.00  0.00    -0.433 OA 
HETATM   48  H   UNL     1     -10.777  12.711  70.116  1.00  0.00     0.000 HD 
BRANCH  46  49
HETATM   49  C   UNL     1     -11.987  14.976  69.906  1.00  0.00    -0.334 C  
HETATM   50  H   UNL     1     -12.747  16.295  71.132  1.00  0.00     0.000 HD 
HETATM   51  O   UNL     1     -11.886  16.024  70.835  1.00  0.00    -0.393 OA 
ENDBRANCH  46  49
ENDBRANCH  29  46
ENDBRANCH  26  29
ENDBRANCH  23  26
ENDBRANCH  21  23
ENDBRANCH  20  21
ENDBRANCH  19  20
ENDBRANCH  18  19
ENDBRANCH  16  18
ENDBRANCH  13  16
ENDBRANCH  10  13
ENDBRANCH   7  10
ENDBRANCH   4   7
ENDBRANCH   2   4
TORSDOF 17
ENDMDL
MODEL      119
REMARK 921   NORMALIZED FREE ENERGY PREDICTED BY IDOCK:   -5.20 KCAL/MOL
REMARK 922        TOTAL FREE ENERGY PREDICTED BY IDOCK:  -13.80 KCAL/MOL
REMARK 923 INTER-LIGAND FREE ENERGY PREDICTED BY IDOCK:  -10.69 KCAL/MOL
REMARK 924 INTRA-LIGAND FREE ENERGY PREDICTED BY IDOCK:   -3.11 KCAL/MOL
REMARK 927      BINDING AFFINITY PREDICTED BY RF-SCORE:    0.00 PKD
ROOT
HETATM    1  O   UNL     1      -5.504  17.208  68.317  1.00  0.00    -0.124 OA 
HETATM    2  C   UNL     1      -5.658  18.107  69.382  1.00  0.00    -0.216 C  
HETATM    3  H   UNL     1      -4.817  16.585  68.522  1.00  0.00     0.000 HD 
ENDROOT
BRANCH   2   4
HETATM    4  C   UNL     1      -6.770  19.116  69.051  1.00  0.00    -0.307 C  
HETATM    5  O   UNL     1      -6.225  20.182  68.315  1.00  0.00    -0.254 OA 
HETATM    6  H   UNL     1      -6.912  20.806  68.110  1.00  0.00     0.000 HD 
BRANCH   4   7
HETATM    7  C   UNL     1      -7.914  18.457  68.237  1.00  0.00    -0.300 C  
HETATM    8  H   UNL     1      -9.039  16.878  68.384  1.00  0.00     0.000 HD 
HETATM    9  O   UNL     1      -8.338  17.281  68.883  1.00  0.00    -0.254 OA 
BRANCH   7  10
HETATM   10  C   UNL     1      -9.130  19.408  68.070  1.00  0.00    -0.328 C  
HETATM   11  H   UNL     1     -11.036  19.302  68.363  1.00  0.00     0.000 HD 
HETATM   12  O   UNL     1     -10.292  18.719  68.465  1.00  0.00    -0.361 OA 
BRANCH  10  13
HETATM   13  C   UNL     1      -9.319  19.921  66.616  1.00  0.00    -0.395 C  
HETATM   14  H   UNL     1      -8.179  20.462  65.139  1.00  0.00     0.000 HD 
HETATM   15  O   UNL     1      -8.064  20.149  66.029  1.00  0.00    -0.291 OA 
BRANCH  13  16
HETATM   16  C   UNL     1     -10.076  18.957  65.733  1.00  0.00    -0.052 C  
HETATM   17  O   UNL     1     -11.061  19.342  65.122  1.00  0.00    -0.383 OA 
BRANCH  16  18
HETATM   18  O   UNL     1      -9.690  17.671  65.615  1.00  0.00    -0.525 OA 
BRANCH  18  19
HETATM   19 CA   UNL     1     -11.141  16.105  64.473  1.00  0.00    -0.359 Ca 
BRANCH  19  20
HETATM   20  O   UNL     1     -12.590  14.540  63.332  1.00  0.00    -0.673 OA 
BRANCH  20  21
HETATM   21  C   UNL     1     -12.243  13.291  63.689  1.00  0.00    -0.451 C  
HETATM   22  O   UNL     1     -12.905  12.367  63.248  1.00  0.00    -0.696 OA 
BRANCH  21  23
HETATM   23  C   UNL     1     -11.187  13.027  64.738  1.00  0.00    -0.317 C  
HETATM   24  H   UNL     1     -10.092  11.527  65.267  1.00  0.00     0.000 HD 
HETATM   25  O   UNL     1     -10.756  11.694  64.609  1.00  0.00    -0.286 OA 
BRANCH  23  26
HETATM   26  C   UNL     1     -11.651  13.270  66.206  1.00  0.00    -0.346 C  
HETATM   27  H   UNL     1     -12.403  12.213  67.647  1.00  0.00     0.000 HD 
HETATM   28  O   UNL     1     -12.120  12.064  66.752  1.00  0.00    -0.613 OA 
BRANCH  26  29
HETATM   29  C   UNL     1     -10.621  13.927  67.187  1.00  0.00    -0.277 C  
BRANCH  29  30
HETATM   30  O   UNL     1      -9.951  12.859  67.841  1.00  0.00    -0.219 OA 
BRANCH  30  31
HETATM   31  C   UNL     1      -8.786  12.379  67.200  1.00  0.00    -0.197 C  
HETATM   32  O   UNL     1      -8.975  11.036  66.788  1.00  0.00    -0.151 OA 
HETATM   33  C   UNL     1      -7.817  10.546  66.129  1.00  0.00    -0.145 C  
HETATM   34  H   UNL     1      -6.735  13.832  69.311  1.00  0.00     0.000 HD 
HETATM   35  C   UNL     1      -6.633  10.456  67.126  1.00  0.00    -0.073 C  
HETATM   36  O   UNL     1      -6.954   9.603  68.198  1.00  0.00    -0.075 OA 
HETATM   37  C   UNL     1      -6.340  11.874  67.659  1.00  0.00    -0.086 C  
HETATM   38  O   UNL     1      -7.438  13.782  68.676  1.00  0.00    -0.113 OA 
HETATM   39  H   UNL     1      -6.229   9.549  68.809  1.00  0.00     0.000 HD 
HETATM   40  O   UNL     1      -5.350  11.860  68.658  1.00  0.00    -0.049 OA 
HETATM   41  C   UNL     1      -7.638  12.460  68.238  1.00  0.00    -0.131 C  
HETATM   42  H   UNL     1      -5.170  12.733  68.985  1.00  0.00     0.000 HD 
BRANCH  33  43
HETATM   43  C   UNL     1      -8.163   9.180  65.516  1.00  0.00    -0.123 C  
HETATM   44  O   UNL     1      -9.547   8.952  65.528  1.00  0.00    -0.440 OA 
HETATM   45  H   UNL     1      -9.761   8.109  65.149  1.00  0.00     0.000 HD 
ENDBRANCH  33  43
ENDBRANCH  30  31
ENDBRANCH  29  30
BRANCH  29  46
HETATM   46  C   UNL     1     -11.209  14.966  68.207  1.00  0.00    -0.294 C  
HETATM   47  O   UNL     1     -11.158  16.273  67.683  1.00  0.00    -0.287 OA 
HETATM   48  H   UNL     1     -11.514  16.901  68.299  1.00  0.00     0.000 HD 
BRANCH  46  49
HETATM   49  C   UNL     1     -10.624  14.885  69.635  1.00  0.00    -0.197 C  
HETATM   50  H   UNL     1     -10.984  15.656  71.395  1.00  0.00     0.000 HD 
HETATM   51  O   UNL     1     -11.344  15.705  70.517  1.00  0.00    -0.301 OA 
ENDBRANCH  46  49
ENDBRANCH  29  46
ENDBRANCH  26  29
ENDBRANCH  23  26
ENDBRANCH  21  23
ENDBRANCH  20  21
ENDBRANCH  19  20
ENDBRANCH  18  19
ENDBRANCH  16  18
ENDBRANCH  13  16
ENDBRANCH  10  13
ENDBRANCH   7  10
ENDBRANCH   4   7
ENDBRANCH   2   4
TORSDOF 17
ENDMDL
MODEL      120
REMARK 921   NORMALIZED FREE ENERGY PREDICTED BY IDOCK:   -5.19 KCAL/MOL
REMARK 922        TOTAL FREE ENERGY PREDICTED BY IDOCK:  -13.79 KCAL/MOL
REMARK 923 INTER-LIGAND FREE ENERGY PREDICTED BY IDOCK:  -12.89 KCAL/MOL
REMARK 924 INTRA-LIGAND FREE ENERGY PREDICTED BY IDOCK:   -0.90 KCAL/MOL
REMARK 927      BINDING AFFINITY PREDICTED BY RF-SCORE:    0.00 PKD
ROOT
HETATM    1  O   UNL     1     -12.897   8.549  73.062  1.00  0.00    -0.701 OA 
HETATM    2  C   UNL     1     -11.676   8.306  72.418  1.00  0.00    -0.397 C  
HETATM    3  H   UNL     1     -12.761   8.590  74.001  1.00  0.00     0.000 HD 
ENDROOT
BRANCH   2   4
HETATM    4  C   UNL     1     -11.897   8.239  70.897  1.00  0.00    -0.216 C  
HETATM    5  O   UNL     1     -12.300   9.503  70.431  1.00  0.00    -0.479 OA 
HETATM    6  H   UNL     1     -12.436   9.461  69.491  1.00  0.00     0.000 HD 
BRANCH   4   7
HETATM    7  C   UNL     1     -10.609   7.799  70.153  1.00  0.00    -0.237 C  
HETATM    8  H   UNL     1      -8.715   7.631  70.561  1.00  0.00     0.000 HD 
HETATM    9  O   UNL     1      -9.504   7.900  71.018  1.00  0.00    -0.154 OA 
BRANCH   7  10
HETATM   10  C   UNL     1     -10.710   6.341  69.631  1.00  0.00    -0.306 C  
HETATM   11  H   UNL     1     -10.713   4.575  70.413  1.00  0.00     0.000 HD 
HETATM   12  O   UNL     1     -10.651   5.468  70.733  1.00  0.00    -0.256 OA 
BRANCH  10  13
HETATM   13  C   UNL     1      -9.584   5.963  68.629  1.00  0.00    -0.123 C  
HETATM   14  H   UNL     1      -8.527   4.390  68.205  1.00  0.00     0.000 HD 
HETATM   15  O   UNL     1      -9.215   4.621  68.818  1.00  0.00    -0.113 OA 
BRANCH  13  16
HETATM   16  C   UNL     1      -9.985   6.136  67.183  1.00  0.00    -0.154 C  
HETATM   17  O   UNL     1      -9.391   5.517  66.313  1.00  0.00    -0.149 OA 
BRANCH  16  18
HETATM   18  O   UNL     1     -10.982   6.972  66.832  1.00  0.00    -0.371 OA 
BRANCH  18  19
HETATM   19 CA   UNL     1     -10.477   8.895  65.452  1.00  0.00    -0.422 Ca 
BRANCH  19  20
HETATM   20  O   UNL     1      -9.973  10.818  64.072  1.00  0.00    -0.293 OA 
BRANCH  20  21
HETATM   21  C   UNL     1     -10.949  11.729  64.229  1.00  0.00    -0.359 C  
HETATM   22  O   UNL     1     -11.190  12.473  63.293  1.00  0.00    -0.452 OA 
BRANCH  21  23
HETATM   23  C   UNL     1     -11.617  11.960  65.565  1.00  0.00    -0.218 C  
HETATM   24  H   UNL     1     -13.181  12.897  66.199  1.00  0.00     0.000 HD 
HETATM   25  O   UNL     1     -12.761  12.752  65.359  1.00  0.00    -0.621 OA 
BRANCH  23  26
HETATM   26  C   UNL     1     -10.712  12.644  66.635  1.00  0.00    -0.253 C  
HETATM   27  H   UNL     1      -8.835  12.629  67.120  1.00  0.00     0.000 HD 
HETATM   28  O   UNL     1      -9.386  12.212  66.468  1.00  0.00    -0.220 OA 
BRANCH  26  29
HETATM   29  C   UNL     1     -10.750  14.209  66.716  1.00  0.00    -0.286 C  
BRANCH  29  30
HETATM   30  O   UNL     1     -11.837  14.541  67.566  1.00  0.00    -0.378 OA 
BRANCH  30  31
HETATM   31  C   UNL     1     -11.578  14.468  68.954  1.00  0.00    -0.309 C  
HETATM   32  O   UNL     1     -12.610  13.745  69.605  1.00  0.00    -0.217 OA 
HETATM   33  C   UNL     1     -12.354  13.651  70.998  1.00  0.00    -0.354 C  
HETATM   34  H   UNL     1     -10.503  17.563  69.162  1.00  0.00     0.000 HD 
HETATM   35  C   UNL     1     -12.428  15.055  71.651  1.00  0.00    -0.339 C  
HETATM   36  O   UNL     1     -13.697  15.628  71.448  1.00  0.00    -0.523 OA 
HETATM   37  C   UNL     1     -11.346  15.946  71.005  1.00  0.00    -0.389 C  
HETATM   38  O   UNL     1     -10.529  16.670  68.840  1.00  0.00    -0.279 OA 
HETATM   39  H   UNL     1     -13.742  16.488  71.848  1.00  0.00     0.000 HD 
HETATM   40  O   UNL     1     -11.424  17.273  71.465  1.00  0.00    -0.004 OA 
HETATM   41  C   UNL     1     -11.536  15.925  69.480  1.00  0.00    -0.335 C  
HETATM   42  H   UNL     1     -10.757  17.821  71.068  1.00  0.00     0.000 HD 
BRANCH  33  43
HETATM   43  C   UNL     1     -13.377  12.676  71.602  1.00  0.00    -0.223 C  
HETATM   44  O   UNL     1     -14.070  13.263  72.671  1.00  0.00    -0.744 OA 
HETATM   45  H   UNL     1     -14.702  12.661  73.044  1.00  0.00     0.000 HD 
ENDBRANCH  33  43
ENDBRANCH  30  31
ENDBRANCH  29  30
BRANCH  29  46
HETATM   46  C   UNL     1     -10.823  14.965  65.342  1.00  0.00    -0.369 C  
HETATM   47  O   UNL     1      -9.800  14.536  64.474  1.00  0.00    -0.548 OA 
HETATM   48  H   UNL     1      -9.844  14.994  63.644  1.00  0.00     0.000 HD 
BRANCH  46  49
HETATM   49  C   UNL     1     -10.893  16.507  65.447  1.00  0.00    -0.206 C  
HETATM   50  H   UNL     1     -11.638  17.996  64.423  1.00  0.00     0.000 HD 
HETATM   51  O   UNL     1     -11.595  17.048  64.359  1.00  0.00    -0.893 OA 
ENDBRANCH  46  49
ENDBRANCH  29  46
ENDBRANCH  26  29
ENDBRANCH  23  26
ENDBRANCH  21  23
ENDBRANCH  20  21
ENDBRANCH  19  20
ENDBRANCH  18  19
ENDBRANCH  16  18
ENDBRANCH  13  16
ENDBRANCH  10  13
ENDBRANCH   7  10
ENDBRANCH   4   7
ENDBRANCH   2   4
TORSDOF 17
ENDMDL
MODEL      121
REMARK 921   NORMALIZED FREE ENERGY PREDICTED BY IDOCK:   -5.19 KCAL/MOL
REMARK 922        TOTAL FREE ENERGY PREDICTED BY IDOCK:  -13.79 KCAL/MOL
REMARK 923 INTER-LIGAND FREE ENERGY PREDICTED BY IDOCK:  -10.32 KCAL/MOL
REMARK 924 INTRA-LIGAND FREE ENERGY PREDICTED BY IDOCK:   -3.47 KCAL/MOL
REMARK 927      BINDING AFFINITY PREDICTED BY RF-SCORE:    0.00 PKD
ROOT
HETATM    1  O   UNL     1     -10.700  19.433  67.597  1.00  0.00    -0.453 OA 
HETATM    2  C   UNL     1      -9.831  18.531  66.967  1.00  0.00    -0.325 C  
HETATM    3  H   UNL     1     -10.266  20.270  67.709  1.00  0.00     0.000 HD 
ENDROOT
BRANCH   2   4
HETATM    4  C   UNL     1     -10.534  17.175  66.785  1.00  0.00    -0.263 C  
HETATM    5  O   UNL     1     -10.091  16.579  65.592  1.00  0.00    -0.483 OA 
HETATM    6  H   UNL     1     -10.526  15.741  65.480  1.00  0.00     0.000 HD 
BRANCH   4   7
HETATM    7  C   UNL     1     -10.250  16.222  67.976  1.00  0.00    -0.256 C  
HETATM    8  H   UNL     1     -10.050  16.373  69.904  1.00  0.00     0.000 HD 
HETATM    9  O   UNL     1     -10.225  16.957  69.175  1.00  0.00    -0.283 OA 
BRANCH   7  10
HETATM   10  C   UNL     1     -11.320  15.104  68.092  1.00  0.00    -0.335 C  
HETATM   11  H   UNL     1     -12.483  14.423  69.475  1.00  0.00     0.000 HD 
HETATM   12  O   UNL     1     -11.828  15.107  69.404  1.00  0.00    -0.305 OA 
BRANCH  10  13
HETATM   13  C   UNL     1     -10.771  13.687  67.769  1.00  0.00    -0.246 C  
HETATM   14  H   UNL     1     -10.684  11.960  68.653  1.00  0.00     0.000 HD 
HETATM   15  O   UNL     1     -11.019  12.827  68.851  1.00  0.00    -0.245 OA 
BRANCH  13  16
HETATM   16  C   UNL     1     -11.389  13.071  66.535  1.00  0.00    -0.320 C  
HETATM   17  O   UNL     1     -11.225  13.601  65.447  1.00  0.00    -0.295 OA 
BRANCH  16  18
HETATM   18  O   UNL     1     -12.131  11.948  66.614  1.00  0.00    -0.587 OA 
BRANCH  18  19
HETATM   19 CA   UNL     1     -12.736  11.086  68.793  1.00  0.00    -0.323 Ca 
BRANCH  19  20
HETATM   20  O   UNL     1     -13.341  10.224  70.972  1.00  0.00    -0.368 OA 
BRANCH  20  21
HETATM   21  C   UNL     1     -12.390   9.363  71.375  1.00  0.00    -0.357 C  
HETATM   22  O   UNL     1     -11.301   9.818  71.680  1.00  0.00    -0.349 OA 
BRANCH  21  23
HETATM   23  C   UNL     1     -12.585   7.866  71.292  1.00  0.00    -0.245 C  
HETATM   24  H   UNL     1     -14.074   6.644  71.418  1.00  0.00     0.000 HD 
HETATM   25  O   UNL     1     -13.952   7.584  71.470  1.00  0.00    -0.408 OA 
BRANCH  23  26
HETATM   26  C   UNL     1     -11.758   7.045  72.328  1.00  0.00    -0.255 C  
HETATM   27  H   UNL     1     -11.773   5.242  73.042  1.00  0.00     0.000 HD 
HETATM   28  O   UNL     1     -12.278   5.742  72.411  1.00  0.00    -0.207 OA 
BRANCH  26  29
HETATM   29  C   UNL     1     -10.205   6.979  72.120  1.00  0.00    -0.186 C  
BRANCH  29  30
HETATM   30  O   UNL     1      -9.991   6.228  70.934  1.00  0.00    -0.183 OA 
BRANCH  30  31
HETATM   31  C   UNL     1      -9.332   6.908  69.885  1.00  0.00    -0.150 C  
HETATM   32  O   UNL     1      -8.930   8.197  70.317  1.00  0.00    -0.143 OA 
HETATM   33  C   UNL     1      -8.253   8.887  69.277  1.00  0.00    -0.114 C  
HETATM   34  H   UNL     1     -11.399   5.839  67.569  1.00  0.00     0.000 HD 
HETATM   35  C   UNL     1      -9.230   9.184  68.110  1.00  0.00    -0.131 C  
HETATM   36  O   UNL     1     -10.311   9.964  68.558  1.00  0.00    -0.180 OA 
HETATM   37  C   UNL     1      -9.749   7.839  67.559  1.00  0.00    -0.158 C  
HETATM   38  O   UNL     1     -10.776   5.764  68.282  1.00  0.00    -0.236 OA 
HETATM   39  H   UNL     1     -10.910  10.145  67.843  1.00  0.00     0.000 HD 
HETATM   40  O   UNL     1     -10.731   8.028  66.570  1.00  0.00    -0.342 OA 
HETATM   41  C   UNL     1     -10.348   7.031  68.722  1.00  0.00    -0.187 C  
HETATM   42  H   UNL     1     -11.050   7.200  66.231  1.00  0.00     0.000 HD 
BRANCH  33  43
HETATM   43  C   UNL     1      -7.653  10.170  69.872  1.00  0.00    -0.166 C  
HETATM   44  O   UNL     1      -7.248   9.975  71.201  1.00  0.00    -0.295 OA 
HETATM   45  H   UNL     1      -6.877  10.768  71.568  1.00  0.00     0.000 HD 
ENDBRANCH  33  43
ENDBRANCH  30  31
ENDBRANCH  29  30
BRANCH  29  46
HETATM   46  C   UNL     1      -9.374   6.424  73.329  1.00  0.00    -0.131 C  
HETATM   47  O   UNL     1     -10.196   5.709  74.222  1.00  0.00    -0.235 OA 
HETATM   48  H   UNL     1      -9.693   5.373  74.953  1.00  0.00     0.000 HD 
BRANCH  46  49
HETATM   49  C   UNL     1      -8.494   7.469  74.053  1.00  0.00    -0.215 C  
HETATM   50  H   UNL     1      -8.018   9.354  73.848  1.00  0.00     0.000 HD 
HETATM   51  O   UNL     1      -8.559   8.711  73.403  1.00  0.00    -0.361 OA 
ENDBRANCH  46  49
ENDBRANCH  29  46
ENDBRANCH  26  29
ENDBRANCH  23  26
ENDBRANCH  21  23
ENDBRANCH  20  21
ENDBRANCH  19  20
ENDBRANCH  18  19
ENDBRANCH  16  18
ENDBRANCH  13  16
ENDBRANCH  10  13
ENDBRANCH   7  10
ENDBRANCH   4   7
ENDBRANCH   2   4
TORSDOF 17
ENDMDL
MODEL      122
REMARK 921   NORMALIZED FREE ENERGY PREDICTED BY IDOCK:   -5.18 KCAL/MOL
REMARK 922        TOTAL FREE ENERGY PREDICTED BY IDOCK:  -13.78 KCAL/MOL
REMARK 923 INTER-LIGAND FREE ENERGY PREDICTED BY IDOCK:  -11.27 KCAL/MOL
REMARK 924 INTRA-LIGAND FREE ENERGY PREDICTED BY IDOCK:   -2.51 KCAL/MOL
REMARK 927      BINDING AFFINITY PREDICTED BY RF-SCORE:    0.00 PKD
ROOT
HETATM    1  O   UNL     1      -9.039   7.424  70.854  1.00  0.00    -0.152 OA 
HETATM    2  C   UNL     1      -8.924   6.329  71.722  1.00  0.00    -0.140 C  
HETATM    3  H   UNL     1      -8.251   7.954  70.902  1.00  0.00     0.000 HD 
ENDROOT
BRANCH   2   4
HETATM    4  C   UNL     1     -10.199   5.472  71.644  1.00  0.00    -0.209 C  
HETATM    5  O   UNL     1      -9.895   4.153  72.025  1.00  0.00    -0.158 OA 
HETATM    6  H   UNL     1     -10.683   3.623  71.977  1.00  0.00     0.000 HD 
BRANCH   4   7
HETATM    7  C   UNL     1     -11.318   6.030  72.562  1.00  0.00    -0.300 C  
HETATM    8  H   UNL     1     -11.430   7.123  74.167  1.00  0.00     0.000 HD 
HETATM    9  O   UNL     1     -10.744   6.781  73.605  1.00  0.00    -0.316 OA 
BRANCH   7  10
HETATM   10  C   UNL     1     -12.314   6.928  71.782  1.00  0.00    -0.361 C  
HETATM   11  H   UNL     1     -12.738   7.258  69.927  1.00  0.00     0.000 HD 
HETATM   12  O   UNL     1     -12.128   6.708  70.405  1.00  0.00    -0.374 OA 
BRANCH  10  13
HETATM   13  C   UNL     1     -12.143   8.444  72.077  1.00  0.00    -0.356 C  
HETATM   14  H   UNL     1     -11.101   9.922  71.368  1.00  0.00     0.000 HD 
HETATM   15  O   UNL     1     -11.206   8.995  71.188  1.00  0.00    -0.260 OA 
BRANCH  13  16
HETATM   16  C   UNL     1     -13.426   9.230  71.944  1.00  0.00    -0.430 C  
HETATM   17  O   UNL     1     -14.241   9.217  72.854  1.00  0.00    -0.512 OA 
BRANCH  16  18
HETATM   18  O   UNL     1     -13.696   9.940  70.830  1.00  0.00    -0.238 OA 
BRANCH  18  19
HETATM   19 CA   UNL     1     -12.604  12.074  70.500  1.00  0.00    -0.272 Ca 
BRANCH  19  20
HETATM   20  O   UNL     1     -11.513  14.209  70.169  1.00  0.00    -0.242 OA 
BRANCH  20  21
HETATM   21  C   UNL     1     -11.784  14.644  68.926  1.00  0.00    -0.309 C  
HETATM   22  O   UNL     1     -12.036  15.827  68.778  1.00  0.00    -0.314 OA 
BRANCH  21  23
HETATM   23  C   UNL     1     -11.949  13.688  67.765  1.00  0.00    -0.352 C  
HETATM   24  H   UNL     1     -12.208  11.788  67.550  1.00  0.00     0.000 HD 
HETATM   25  O   UNL     1     -12.105  12.388  68.279  1.00  0.00    -0.313 OA 
BRANCH  23  26
HETATM   26  C   UNL     1     -10.769  13.694  66.746  1.00  0.00    -0.272 C  
HETATM   27  H   UNL     1     -10.515  14.146  64.877  1.00  0.00     0.000 HD 
HETATM   28  O   UNL     1     -11.234  14.142  65.498  1.00  0.00    -0.305 OA 
BRANCH  26  29
HETATM   29  C   UNL     1      -9.478  14.490  67.143  1.00  0.00    -0.231 C  
BRANCH  29  30
HETATM   30  O   UNL     1      -9.097  15.235  65.995  1.00  0.00    -0.310 OA 
BRANCH  30  31
HETATM   31  C   UNL     1      -8.750  16.586  66.225  1.00  0.00    -0.333 C  
HETATM   32  O   UNL     1      -8.093  16.714  67.475  1.00  0.00    -0.162 OA 
HETATM   33  C   UNL     1      -7.726  18.065  67.712  1.00  0.00    -0.222 C  
HETATM   34  H   UNL     1     -11.565  17.766  65.016  1.00  0.00     0.000 HD 
HETATM   35  C   UNL     1      -8.994  18.942  67.878  1.00  0.00    -0.297 C  
HETATM   36  O   UNL     1      -9.778  18.478  68.949  1.00  0.00    -0.353 OA 
HETATM   37  C   UNL     1      -9.806  18.870  66.568  1.00  0.00    -0.368 C  
HETATM   38  O   UNL     1     -10.754  17.272  65.010  1.00  0.00    -0.708 OA 
HETATM   39  H   UNL     1     -10.555  19.015  69.050  1.00  0.00     0.000 HD 
HETATM   40  O   UNL     1     -11.032  19.551  66.679  1.00  0.00    -0.418 OA 
HETATM   41  C   UNL     1     -10.073  17.393  66.235  1.00  0.00    -0.322 C  
HETATM   42  H   UNL     1     -11.532  19.507  65.873  1.00  0.00     0.000 HD 
BRANCH  33  43
HETATM   43  C   UNL     1      -6.830  18.099  68.961  1.00  0.00    -0.250 C  
HETATM   44  O   UNL     1      -6.693  16.823  69.525  1.00  0.00    -0.234 OA 
HETATM   45  H   UNL     1      -6.139  16.844  70.296  1.00  0.00     0.000 HD 
ENDBRANCH  33  43
ENDBRANCH  30  31
ENDBRANCH  29  30
BRANCH  29  46
HETATM   46  C   UNL     1      -8.292  13.635  67.712  1.00  0.00    -0.181 C  
HETATM   47  O   UNL     1      -7.084  13.948  67.058  1.00  0.00    -0.378 OA 
HETATM   48  H   UNL     1      -6.367  13.431  67.402  1.00  0.00     0.000 HD 
BRANCH  46  49
HETATM   49  C   UNL     1      -8.551  12.111  67.765  1.00  0.00    -0.164 C  
HETATM   50  H   UNL     1      -7.922  10.502  66.850  1.00  0.00     0.000 HD 
HETATM   51  O   UNL     1      -7.763  11.439  66.818  1.00  0.00    -0.149 OA 
ENDBRANCH  46  49
ENDBRANCH  29  46
ENDBRANCH  26  29
ENDBRANCH  23  26
ENDBRANCH  21  23
ENDBRANCH  20  21
ENDBRANCH  19  20
ENDBRANCH  18  19
ENDBRANCH  16  18
ENDBRANCH  13  16
ENDBRANCH  10  13
ENDBRANCH   7  10
ENDBRANCH   4   7
ENDBRANCH   2   4
TORSDOF 17
ENDMDL
MODEL      123
REMARK 921   NORMALIZED FREE ENERGY PREDICTED BY IDOCK:   -5.18 KCAL/MOL
REMARK 922        TOTAL FREE ENERGY PREDICTED BY IDOCK:  -13.77 KCAL/MOL
REMARK 923 INTER-LIGAND FREE ENERGY PREDICTED BY IDOCK:  -11.28 KCAL/MOL
REMARK 924 INTRA-LIGAND FREE ENERGY PREDICTED BY IDOCK:   -2.49 KCAL/MOL
REMARK 927      BINDING AFFINITY PREDICTED BY RF-SCORE:    0.00 PKD
ROOT
HETATM    1  O   UNL     1     -11.076   5.220  65.714  1.00  0.00    -0.762 OA 
HETATM    2  C   UNL     1     -10.914   5.962  66.893  1.00  0.00    -0.217 C  
HETATM    3  H   UNL     1     -12.002   5.098  65.538  1.00  0.00     0.000 HD 
ENDROOT
BRANCH   2   4
HETATM    4  C   UNL     1      -9.415   6.159  67.177  1.00  0.00    -0.119 C  
HETATM    5  O   UNL     1      -8.678   5.181  66.487  1.00  0.00    -0.111 OA 
HETATM    6  H   UNL     1      -7.753   5.304  66.663  1.00  0.00     0.000 HD 
BRANCH   4   7
HETATM    7  C   UNL     1      -8.934   7.570  66.745  1.00  0.00    -0.144 C  
HETATM    8  H   UNL     1      -9.726   9.171  65.977  1.00  0.00     0.000 HD 
HETATM    9  O   UNL     1     -10.021   8.307  66.242  1.00  0.00    -0.224 OA 
BRANCH   7  10
HETATM   10  C   UNL     1      -8.297   8.352  67.925  1.00  0.00    -0.131 C  
HETATM   11  H   UNL     1      -8.644   8.557  69.814  1.00  0.00     0.000 HD 
HETATM   12  O   UNL     1      -9.035   8.078  69.091  1.00  0.00    -0.144 OA 
BRANCH  10  13
HETATM   13  C   UNL     1      -8.261   9.889  67.701  1.00  0.00    -0.114 C  
HETATM   14  H   UNL     1      -8.177  11.485  68.804  1.00  0.00     0.000 HD 
HETATM   15  O   UNL     1      -8.199  10.545  68.941  1.00  0.00    -0.123 OA 
BRANCH  13  16
HETATM   16  C   UNL     1      -7.084  10.348  66.873  1.00  0.00    -0.094 C  
HETATM   17  O   UNL     1      -6.099   9.633  66.774  1.00  0.00    -0.061 OA 
BRANCH  16  18
HETATM   18  O   UNL     1      -7.095  11.542  66.248  1.00  0.00    -0.010 OA 
BRANCH  18  19
HETATM   19 CA   UNL     1      -8.888  12.047  64.702  1.00  0.00    -0.399 Ca 
BRANCH  19  20
HETATM   20  O   UNL     1     -10.679  12.551  63.156  1.00  0.00    -0.305 OA 
BRANCH  20  21
HETATM   21  C   UNL     1     -11.847  12.513  63.821  1.00  0.00    -0.496 C  
HETATM   22  O   UNL     1     -12.816  12.050  63.245  1.00  0.00    -0.732 OA 
BRANCH  21  23
HETATM   23  C   UNL     1     -12.018  13.176  65.170  1.00  0.00    -0.394 C  
HETATM   24  H   UNL     1     -13.382  14.223  66.045  1.00  0.00     0.000 HD 
HETATM   25  O   UNL     1     -13.274  13.807  65.198  1.00  0.00    -0.757 OA 
BRANCH  23  26
HETATM   26  C   UNL     1     -10.916  14.219  65.526  1.00  0.00    -0.319 C  
HETATM   27  H   UNL     1     -10.700  16.143  65.419  1.00  0.00     0.000 HD 
HETATM   28  O   UNL     1     -11.372  15.507  65.201  1.00  0.00    -0.318 OA 
BRANCH  26  29
HETATM   29  C   UNL     1     -10.366  14.211  66.994  1.00  0.00    -0.267 C  
BRANCH  29  30
HETATM   30  O   UNL     1     -11.412  14.704  67.818  1.00  0.00    -0.310 OA 
BRANCH  30  31
HETATM   31  C   UNL     1     -11.318  14.383  69.191  1.00  0.00    -0.277 C  
HETATM   32  O   UNL     1     -12.231  13.347  69.513  1.00  0.00    -0.286 OA 
HETATM   33  C   UNL     1     -12.135  13.003  70.887  1.00  0.00    -0.090 C  
HETATM   34  H   UNL     1     -11.011  17.508  70.150  1.00  0.00     0.000 HD 
HETATM   35  C   UNL     1     -12.608  14.189  71.768  1.00  0.00    -0.315 C  
HETATM   36  O   UNL     1     -13.939  14.529  71.464  1.00  0.00    -0.397 OA 
HETATM   37  C   UNL     1     -11.686  15.395  71.491  1.00  0.00    -0.404 C  
HETATM   38  O   UNL     1     -10.793  16.720  69.667  1.00  0.00    -0.333 OA 
HETATM   39  H   UNL     1     -14.228  15.256  72.003  1.00  0.00     0.000 HD 
HETATM   40  O   UNL     1     -12.121  16.547  72.170  1.00  0.00    -0.605 OA 
HETATM   41  C   UNL     1     -11.675  15.669  69.978  1.00  0.00    -0.357 C  
HETATM   42  H   UNL     1     -11.553  17.290  72.000  1.00  0.00     0.000 HD 
BRANCH  33  43
HETATM   43  C   UNL     1     -12.977  11.738  71.118  1.00  0.00    -0.187 C  
HETATM   44  O   UNL     1     -13.508  11.709  72.416  1.00  0.00    -0.602 OA 
HETATM   45  H   UNL     1     -14.028  10.928  72.558  1.00  0.00     0.000 HD 
ENDBRANCH  33  43
ENDBRANCH  30  31
ENDBRANCH  29  30
BRANCH  29  46
HETATM   46  C   UNL     1      -9.019  14.982  67.227  1.00  0.00    -0.199 C  
HETATM   47  O   UNL     1      -8.540  15.537  66.023  1.00  0.00    -0.392 OA 
HETATM   48  H   UNL     1      -7.726  16.004  66.164  1.00  0.00     0.000 HD 
BRANCH  46  49
HETATM   49  C   UNL     1      -7.928  14.183  67.976  1.00  0.00    -0.149 C  
HETATM   50  H   UNL     1      -6.886  14.347  69.622  1.00  0.00     0.000 HD 
HETATM   51  O   UNL     1      -7.556  14.837  69.161  1.00  0.00    -0.140 OA 
ENDBRANCH  46  49
ENDBRANCH  29  46
ENDBRANCH  26  29
ENDBRANCH  23  26
ENDBRANCH  21  23
ENDBRANCH  20  21
ENDBRANCH  19  20
ENDBRANCH  18  19
ENDBRANCH  16  18
ENDBRANCH  13  16
ENDBRANCH  10  13
ENDBRANCH   7  10
ENDBRANCH   4   7
ENDBRANCH   2   4
TORSDOF 17
ENDMDL
MODEL      124
REMARK 921   NORMALIZED FREE ENERGY PREDICTED BY IDOCK:   -5.17 KCAL/MOL
REMARK 922        TOTAL FREE ENERGY PREDICTED BY IDOCK:  -13.76 KCAL/MOL
REMARK 923 INTER-LIGAND FREE ENERGY PREDICTED BY IDOCK:   -9.83 KCAL/MOL
REMARK 924 INTRA-LIGAND FREE ENERGY PREDICTED BY IDOCK:   -3.93 KCAL/MOL
REMARK 927      BINDING AFFINITY PREDICTED BY RF-SCORE:    0.00 PKD
ROOT
HETATM    1  O   UNL     1      -8.919  19.385  65.854  1.00  0.00    -0.422 OA 
HETATM    2  C   UNL     1      -9.912  18.711  66.579  1.00  0.00    -0.380 C  
HETATM    3  H   UNL     1      -9.058  20.323  65.919  1.00  0.00     0.000 HD 
ENDROOT
BRANCH   2   4
HETATM    4  C   UNL     1      -9.687  17.193  66.475  1.00  0.00    -0.287 C  
HETATM    5  O   UNL     1      -9.400  16.677  67.750  1.00  0.00    -0.219 OA 
HETATM    6  H   UNL     1      -9.261  15.739  67.686  1.00  0.00     0.000 HD 
BRANCH   4   7
HETATM    7  C   UNL     1     -10.932  16.471  65.894  1.00  0.00     0.029 C  
HETATM    8  H   UNL     1     -11.845  16.364  64.181  1.00  0.00     0.000 HD 
HETATM    9  O   UNL     1     -11.083  16.806  64.536  1.00  0.00    -0.989 OA 
BRANCH   7  10
HETATM   10  C   UNL     1     -10.821  14.929  66.024  1.00  0.00    -0.328 C  
HETATM   11  H   UNL     1     -10.508  13.445  64.828  1.00  0.00     0.000 HD 
HETATM   12  O   UNL     1     -10.576  14.390  64.748  1.00  0.00    -0.421 OA 
BRANCH  10  13
HETATM   13  C   UNL     1     -12.096  14.265  66.614  1.00  0.00    -0.420 C  
HETATM   14  H   UNL     1     -13.747  13.501  65.932  1.00  0.00     0.000 HD 
HETATM   15  O   UNL     1     -12.968  13.908  65.572  1.00  0.00    -0.673 OA 
BRANCH  13  16
HETATM   16  C   UNL     1     -11.807  13.022  67.423  1.00  0.00    -0.357 C  
HETATM   17  O   UNL     1     -11.386  13.128  68.564  1.00  0.00    -0.248 OA 
BRANCH  16  18
HETATM   18  O   UNL     1     -11.995  11.793  66.902  1.00  0.00    -0.605 OA 
BRANCH  18  19
HETATM   19 CA   UNL     1     -11.921   9.869  68.368  1.00  0.00    -0.502 Ca 
BRANCH  19  20
HETATM   20  O   UNL     1     -11.848   7.944  69.833  1.00  0.00     0.232 OA 
BRANCH  20  21
HETATM   21  C   UNL     1     -10.982   8.193  70.830  1.00  0.00    -0.244 C  
HETATM   22  O   UNL     1     -10.804   7.320  71.663  1.00  0.00    -0.220 OA 
BRANCH  21  23
HETATM   23  C   UNL     1     -10.371   9.562  71.032  1.00  0.00    -0.283 C  
HETATM   24  H   UNL     1     -10.830  11.377  70.561  1.00  0.00     0.000 HD 
HETATM   25  O   UNL     1     -11.214  10.517  70.434  1.00  0.00    -0.304 OA 
BRANCH  23  26
HETATM   26  C   UNL     1      -8.931   9.723  70.457  1.00  0.00     0.007 C  
HETATM   27  H   UNL     1      -7.127   9.274  71.008  1.00  0.00     0.000 HD 
HETATM   28  O   UNL     1      -8.005   9.176  71.359  1.00  0.00    -0.314 OA 
BRANCH  26  29
HETATM   29  C   UNL     1      -8.663   9.157  69.020  1.00  0.00    -0.135 C  
BRANCH  29  30
HETATM   30  O   UNL     1      -7.607   8.217  69.149  1.00  0.00    -0.092 OA 
BRANCH  30  31
HETATM   31  C   UNL     1      -7.900   6.900  68.727  1.00  0.00    -0.118 C  
HETATM   32  O   UNL     1      -9.160   6.865  68.078  1.00  0.00    -0.122 OA 
HETATM   33  C   UNL     1      -9.460   5.550  67.635  1.00  0.00    -0.118 C  
HETATM   34  H   UNL     1      -6.720   5.505  71.455  1.00  0.00     0.000 HD 
HETATM   35  C   UNL     1      -9.653   4.609  68.852  1.00  0.00    -0.164 C  
HETATM   36  O   UNL     1     -10.696   5.073  69.675  1.00  0.00    -0.123 OA 
HETATM   37  C   UNL     1      -8.334   4.575  69.653  1.00  0.00    -0.069 C  
HETATM   38  O   UNL     1      -6.699   6.046  70.675  1.00  0.00    -0.049 OA 
HETATM   39  H   UNL     1     -10.814   4.496  70.420  1.00  0.00     0.000 HD 
HETATM   40  O   UNL     1      -8.465   3.830  70.838  1.00  0.00    -0.069 OA 
HETATM   41  C   UNL     1      -7.934   6.019  70.001  1.00  0.00    -0.109 C  
HETATM   42  H   UNL     1      -7.653   3.809  71.330  1.00  0.00     0.000 HD 
BRANCH  33  43
HETATM   43  C   UNL     1     -10.716   5.623  66.753  1.00  0.00    -0.284 C  
HETATM   44  O   UNL     1     -11.566   6.661  67.162  1.00  0.00    -0.749 OA 
HETATM   45  H   UNL     1     -12.342   6.706  66.617  1.00  0.00     0.000 HD 
ENDBRANCH  33  43
ENDBRANCH  30  31
ENDBRANCH  29  30
BRANCH  29  46
HETATM   46  C   UNL     1      -8.370  10.223  67.905  1.00  0.00    -0.114 C  
HETATM   47  O   UNL     1      -8.688  11.521  68.352  1.00  0.00    -0.153 OA 
HETATM   48  H   UNL     1      -8.511  12.166  67.678  1.00  0.00     0.000 HD 
BRANCH  46  49
HETATM   49  C   UNL     1      -8.990   9.912  66.523  1.00  0.00    -0.146 C  
HETATM   50  H   UNL     1     -10.575   9.014  65.815  1.00  0.00     0.000 HD 
HETATM   51  O   UNL     1     -10.194   9.206  66.664  1.00  0.00    -0.263 OA 
ENDBRANCH  46  49
ENDBRANCH  29  46
ENDBRANCH  26  29
ENDBRANCH  23  26
ENDBRANCH  21  23
ENDBRANCH  20  21
ENDBRANCH  19  20
ENDBRANCH  18  19
ENDBRANCH  16  18
ENDBRANCH  13  16
ENDBRANCH  10  13
ENDBRANCH   7  10
ENDBRANCH   4   7
ENDBRANCH   2   4
TORSDOF 17
ENDMDL
MODEL      125
REMARK 921   NORMALIZED FREE ENERGY PREDICTED BY IDOCK:   -5.16 KCAL/MOL
REMARK 922        TOTAL FREE ENERGY PREDICTED BY IDOCK:  -13.73 KCAL/MOL
REMARK 923 INTER-LIGAND FREE ENERGY PREDICTED BY IDOCK:  -11.45 KCAL/MOL
REMARK 924 INTRA-LIGAND FREE ENERGY PREDICTED BY IDOCK:   -2.28 KCAL/MOL
REMARK 927      BINDING AFFINITY PREDICTED BY RF-SCORE:    0.00 PKD
ROOT
HETATM    1  O   UNL     1     -10.532  18.253  65.803  1.00  0.00    -0.589 OA 
HETATM    2  C   UNL     1      -9.690  17.135  65.729  1.00  0.00    -0.014 C  
HETATM    3  H   UNL     1     -10.028  19.043  65.647  1.00  0.00     0.000 HD 
ENDROOT
BRANCH   2   4
HETATM    4  C   UNL     1     -10.506  15.855  65.982  1.00  0.00    -0.345 C  
HETATM    5  O   UNL     1     -11.047  15.899  67.278  1.00  0.00    -0.281 OA 
HETATM    6  H   UNL     1     -11.551  15.109  67.435  1.00  0.00     0.000 HD 
BRANCH   4   7
HETATM    7  C   UNL     1     -11.652  15.696  64.948  1.00  0.00    -0.156 C  
HETATM    8  H   UNL     1     -12.147  16.482  63.240  1.00  0.00     0.000 HD 
HETATM    9  O   UNL     1     -11.445  16.579  63.872  1.00  0.00    -1.145 OA 
BRANCH   7  10
HETATM   10  C   UNL     1     -11.742  14.247  64.401  1.00  0.00    -0.389 C  
HETATM   11  H   UNL     1     -12.623  13.363  62.926  1.00  0.00     0.000 HD 
HETATM   12  O   UNL     1     -12.568  14.251  63.261  1.00  0.00    -0.716 OA 
BRANCH  10  13
HETATM   13  C   UNL     1     -12.312  13.232  65.430  1.00  0.00    -0.479 C  
HETATM   14  H   UNL     1     -13.444  11.654  65.395  1.00  0.00     0.000 HD 
HETATM   15  O   UNL     1     -13.096  12.275  64.765  1.00  0.00    -0.724 OA 
BRANCH  13  16
HETATM   16  C   UNL     1     -11.242  12.498  66.205  1.00  0.00    -0.321 C  
HETATM   17  O   UNL     1     -10.593  11.621  65.657  1.00  0.00    -0.260 OA 
BRANCH  16  18
HETATM   18  O   UNL     1     -10.997  12.787  67.498  1.00  0.00    -0.236 OA 
BRANCH  18  19
HETATM   19 CA   UNL     1      -8.799  12.346  68.409  1.00  0.00    -0.148 Ca 
BRANCH  19  20
HETATM   20  O   UNL     1      -6.601  11.904  69.320  1.00  0.00    -0.096 OA 
BRANCH  20  21
HETATM   21  C   UNL     1      -6.661  10.791  70.070  1.00  0.00    -0.159 C  
HETATM   22  O   UNL     1      -6.200  10.838  71.198  1.00  0.00    -0.344 OA 
BRANCH  21  23
HETATM   23  C   UNL     1      -7.117   9.467  69.498  1.00  0.00    -0.068 C  
HETATM   24  H   UNL     1      -6.354   8.097  68.373  1.00  0.00     0.000 HD 
HETATM   25  O   UNL     1      -6.068   8.929  68.732  1.00  0.00    -0.044 OA 
BRANCH  23  26
HETATM   26  C   UNL     1      -8.401   9.548  68.617  1.00  0.00    -0.117 C  
HETATM   27  H   UNL     1      -8.817   9.827  66.744  1.00  0.00     0.000 HD 
HETATM   28  O   UNL     1      -8.035   9.778  67.281  1.00  0.00    -0.105 OA 
BRANCH  26  29
HETATM   29  C   UNL     1      -9.399   8.341  68.688  1.00  0.00    -0.143 C  
BRANCH  29  30
HETATM   30  O   UNL     1      -9.911   8.321  70.013  1.00  0.00    -0.184 OA 
BRANCH  30  31
HETATM   31  C   UNL     1     -11.284   8.627  70.146  1.00  0.00    -0.146 C  
HETATM   32  O   UNL     1     -11.444   9.873  70.804  1.00  0.00    -0.298 OA 
HETATM   33  C   UNL     1     -12.819  10.201  70.931  1.00  0.00    -0.355 C  
HETATM   34  H   UNL     1     -12.147   5.549  70.892  1.00  0.00     0.000 HD 
HETATM   35  C   UNL     1     -13.521   9.198  71.882  1.00  0.00    -0.430 C  
HETATM   36  O   UNL     1     -12.918   9.218  73.153  1.00  0.00    -0.474 OA 
HETATM   37  C   UNL     1     -13.400   7.786  71.271  1.00  0.00    -0.187 C  
HETATM   38  O   UNL     1     -11.760   6.243  70.372  1.00  0.00    -0.367 OA 
HETATM   39  H   UNL     1     -13.348   8.603  73.735  1.00  0.00     0.000 HD 
HETATM   40  O   UNL     1     -13.915   6.801  72.133  1.00  0.00    -0.550 OA 
HETATM   41  C   UNL     1     -11.916   7.495  70.995  1.00  0.00    -0.290 C  
HETATM   42  H   UNL     1     -13.841   5.932  71.756  1.00  0.00     0.000 HD 
BRANCH  33  43
HETATM   43  C   UNL     1     -12.916  11.648  71.441  1.00  0.00    -0.324 C  
HETATM   44  O   UNL     1     -13.620  11.715  72.652  1.00  0.00    -0.450 OA 
HETATM   45  H   UNL     1     -13.679  12.609  72.967  1.00  0.00     0.000 HD 
ENDBRANCH  33  43
ENDBRANCH  30  31
ENDBRANCH  29  30
BRANCH  29  46
HETATM   46  C   UNL     1      -8.822   6.946  68.258  1.00  0.00    -0.122 C  
HETATM   47  O   UNL     1      -7.911   7.084  67.192  1.00  0.00    -0.110 OA 
HETATM   48  H   UNL     1      -7.562   6.240  66.931  1.00  0.00     0.000 HD 
BRANCH  46  49
HETATM   49  C   UNL     1      -9.883   5.855  67.983  1.00  0.00    -0.125 C  
HETATM   50  H   UNL     1     -10.724   5.009  66.435  1.00  0.00     0.000 HD 
HETATM   51  O   UNL     1     -10.072   5.679  66.604  1.00  0.00    -0.164 OA 
ENDBRANCH  46  49
ENDBRANCH  29  46
ENDBRANCH  26  29
ENDBRANCH  23  26
ENDBRANCH  21  23
ENDBRANCH  20  21
ENDBRANCH  19  20
ENDBRANCH  18  19
ENDBRANCH  16  18
ENDBRANCH  13  16
ENDBRANCH  10  13
ENDBRANCH   7  10
ENDBRANCH   4   7
ENDBRANCH   2   4
TORSDOF 17
ENDMDL
MODEL      126
REMARK 921   NORMALIZED FREE ENERGY PREDICTED BY IDOCK:   -5.16 KCAL/MOL
REMARK 922        TOTAL FREE ENERGY PREDICTED BY IDOCK:  -13.73 KCAL/MOL
REMARK 923 INTER-LIGAND FREE ENERGY PREDICTED BY IDOCK:  -11.25 KCAL/MOL
REMARK 924 INTRA-LIGAND FREE ENERGY PREDICTED BY IDOCK:   -2.48 KCAL/MOL
REMARK 927      BINDING AFFINITY PREDICTED BY RF-SCORE:    0.00 PKD
ROOT
HETATM    1  O   UNL     1      -7.798  10.718  63.280  1.00  0.00    -0.349 OA 
HETATM    2  C   UNL     1      -8.927   9.891  63.355  1.00  0.00    -0.256 C  
HETATM    3  H   UNL     1      -8.017  11.516  62.815  1.00  0.00     0.000 HD 
ENDROOT
BRANCH   2   4
HETATM    4  C   UNL     1      -8.572   8.598  64.109  1.00  0.00    -0.009 C  
HETATM    5  O   UNL     1      -7.199   8.336  63.962  1.00  0.00    -0.084 OA 
HETATM    6  H   UNL     1      -6.980   7.537  64.427  1.00  0.00     0.000 HD 
BRANCH   4   7
HETATM    7  C   UNL     1      -8.920   8.704  65.618  1.00  0.00    -0.182 C  
HETATM    8  H   UNL     1     -10.359   9.437  66.699  1.00  0.00     0.000 HD 
HETATM    9  O   UNL     1     -10.147   9.372  65.775  1.00  0.00    -0.288 OA 
BRANCH   7  10
HETATM   10  C   UNL     1      -9.014   7.308  66.290  1.00  0.00    -0.156 C  
HETATM   11  H   UNL     1      -8.645   5.483  65.778  1.00  0.00     0.000 HD 
HETATM   12  O   UNL     1      -8.587   6.338  65.365  1.00  0.00    -0.147 OA 
BRANCH  10  13
HETATM   13  C   UNL     1     -10.448   6.949  66.771  1.00  0.00    -0.230 C  
HETATM   14  H   UNL     1     -11.674   5.453  66.595  1.00  0.00     0.000 HD 
HETATM   15  O   UNL     1     -10.797   5.673  66.301  1.00  0.00    -0.202 OA 
BRANCH  13  16
HETATM   16  C   UNL     1     -10.593   6.946  68.274  1.00  0.00    -0.215 C  
HETATM   17  O   UNL     1     -11.326   6.129  68.810  1.00  0.00    -0.344 OA 
BRANCH  16  18
HETATM   18  O   UNL     1      -9.935   7.839  69.040  1.00  0.00    -0.173 OA 
BRANCH  18  19
HETATM   19 CA   UNL     1     -11.133   9.754  69.911  1.00  0.00    -0.199 Ca 
BRANCH  19  20
HETATM   20  O   UNL     1     -12.331  11.668  70.781  1.00  0.00    -0.376 OA 
BRANCH  20  21
HETATM   21  C   UNL     1     -12.005  12.749  70.052  1.00  0.00    -0.301 C  
HETATM   22  O   UNL     1     -11.930  13.822  70.625  1.00  0.00    -0.316 OA 
BRANCH  21  23
HETATM   23  C   UNL     1     -11.905  12.692  68.544  1.00  0.00    -0.300 C  
HETATM   24  H   UNL     1     -12.060  11.329  67.186  1.00  0.00     0.000 HD 
HETATM   25  O   UNL     1     -12.123  11.365  68.133  1.00  0.00    -0.623 OA 
BRANCH  23  26
HETATM   26  C   UNL     1     -10.544  13.186  67.964  1.00  0.00    -0.236 C  
HETATM   27  H   UNL     1      -9.160  12.480  66.804  1.00  0.00     0.000 HD 
HETATM   28  O   UNL     1      -9.989  12.179  67.158  1.00  0.00    -0.199 OA 
BRANCH  26  29
HETATM   29  C   UNL     1     -10.546  14.545  67.182  1.00  0.00    -0.274 C  
BRANCH  29  30
HETATM   30  O   UNL     1     -11.307  15.456  67.962  1.00  0.00    -0.327 OA 
BRANCH  30  31
HETATM   31  C   UNL     1     -10.712  16.718  68.188  1.00  0.00    -0.361 C  
HETATM   32  O   UNL     1     -10.735  17.488  66.999  1.00  0.00    -0.276 OA 
HETATM   33  C   UNL     1     -10.154  18.765  67.216  1.00  0.00    -0.357 C  
HETATM   34  H   UNL     1      -8.296  15.513  70.057  1.00  0.00     0.000 HD 
HETATM   35  C   UNL     1      -8.641  18.617  67.522  1.00  0.00    -0.269 C  
HETATM   36  O   UNL     1      -7.981  17.981  66.454  1.00  0.00    -0.250 OA 
HETATM   37  C   UNL     1      -8.487  17.775  68.805  1.00  0.00    -0.211 C  
HETATM   38  O   UNL     1      -9.193  15.675  69.792  1.00  0.00    -0.255 OA 
HETATM   39  H   UNL     1      -7.055  17.890  66.642  1.00  0.00     0.000 HD 
HETATM   40  O   UNL     1      -7.136  17.500  69.087  1.00  0.00    -0.251 OA 
HETATM   41  C   UNL     1      -9.247  16.452  68.620  1.00  0.00    -0.231 C  
HETATM   42  H   UNL     1      -7.042  16.982  69.877  1.00  0.00     0.000 HD 
BRANCH  33  43
HETATM   43  C   UNL     1     -10.412  19.622  65.967  1.00  0.00    -0.523 C  
HETATM   44  O   UNL     1      -9.335  20.482  65.708  1.00  0.00    -0.593 OA 
HETATM   45  H   UNL     1      -9.494  21.011  64.935  1.00  0.00     0.000 HD 
ENDBRANCH  33  43
ENDBRANCH  30  31
ENDBRANCH  29  30
BRANCH  29  46
HETATM   46  C   UNL     1     -11.046  14.480  65.695  1.00  0.00    -0.327 C  
HETATM   47  O   UNL     1     -10.521  15.547  64.939  1.00  0.00    -0.422 OA 
HETATM   48  H   UNL     1     -10.823  15.508  64.040  1.00  0.00     0.000 HD 
BRANCH  46  49
HETATM   49  C   UNL     1     -12.577  14.341  65.525  1.00  0.00    -0.413 C  
HETATM   50  H   UNL     1     -13.852  12.977  64.948  1.00  0.00     0.000 HD 
HETATM   51  O   UNL     1     -12.911  13.062  65.052  1.00  0.00    -0.723 OA 
ENDBRANCH  46  49
ENDBRANCH  29  46
ENDBRANCH  26  29
ENDBRANCH  23  26
ENDBRANCH  21  23
ENDBRANCH  20  21
ENDBRANCH  19  20
ENDBRANCH  18  19
ENDBRANCH  16  18
ENDBRANCH  13  16
ENDBRANCH  10  13
ENDBRANCH   7  10
ENDBRANCH   4   7
ENDBRANCH   2   4
TORSDOF 17
ENDMDL
MODEL      127
REMARK 921   NORMALIZED FREE ENERGY PREDICTED BY IDOCK:   -5.15 KCAL/MOL
REMARK 922        TOTAL FREE ENERGY PREDICTED BY IDOCK:  -13.71 KCAL/MOL
REMARK 923 INTER-LIGAND FREE ENERGY PREDICTED BY IDOCK:   -9.93 KCAL/MOL
REMARK 924 INTRA-LIGAND FREE ENERGY PREDICTED BY IDOCK:   -3.79 KCAL/MOL
REMARK 927      BINDING AFFINITY PREDICTED BY RF-SCORE:    0.00 PKD
ROOT
HETATM    1  O   UNL     1      -8.826   6.775  74.350  1.00  0.00    -0.156 OA 
HETATM    2  C   UNL     1     -10.185   6.429  74.368  1.00  0.00    -0.324 C  
HETATM    3  H   UNL     1      -8.478   6.749  75.234  1.00  0.00     0.000 HD 
ENDROOT
BRANCH   2   4
HETATM    4  C   UNL     1     -10.748   6.471  72.938  1.00  0.00    -0.251 C  
HETATM    5  O   UNL     1     -11.930   5.712  72.882  1.00  0.00    -0.541 OA 
HETATM    6  H   UNL     1     -12.278   5.737  71.998  1.00  0.00     0.000 HD 
BRANCH   4   7
HETATM    7  C   UNL     1     -11.045   7.924  72.484  1.00  0.00    -0.362 C  
HETATM    8  H   UNL     1     -10.066   9.597  72.335  1.00  0.00     0.000 HD 
HETATM    9  O   UNL     1      -9.883   8.707  72.613  1.00  0.00    -0.250 OA 
BRANCH   7  10
HETATM   10  C   UNL     1     -11.533   7.984  71.012  1.00  0.00    -0.279 C  
HETATM   11  H   UNL     1     -13.157   7.547  70.061  1.00  0.00     0.000 HD 
HETATM   12  O   UNL     1     -12.858   7.511  70.962  1.00  0.00    -0.249 OA 
BRANCH  10  13
HETATM   13  C   UNL     1     -10.662   7.145  70.036  1.00  0.00    -0.248 C  
HETATM   14  H   UNL     1     -10.914   5.625  68.854  1.00  0.00     0.000 HD 
HETATM   15  O   UNL     1     -11.447   6.138  69.450  1.00  0.00    -0.423 OA 
BRANCH  13  16
HETATM   16  C   UNL     1     -10.050   7.962  68.924  1.00  0.00    -0.197 C  
HETATM   17  O   UNL     1      -9.068   7.541  68.333  1.00  0.00    -0.134 OA 
BRANCH  16  18
HETATM   18  O   UNL     1     -10.562   9.160  68.576  1.00  0.00    -0.212 OA 
BRANCH  18  19
HETATM   19 CA   UNL     1     -10.435   9.871  66.266  1.00  0.00    -0.212 Ca 
BRANCH  19  20
HETATM   20  O   UNL     1     -10.309  10.581  63.957  1.00  0.00    -0.289 OA 
BRANCH  20  21
HETATM   21  C   UNL     1     -10.839  11.812  63.854  1.00  0.00    -0.404 C  
HETATM   22  O   UNL     1     -10.371  12.567  63.018  1.00  0.00    -0.143 OA 
BRANCH  21  23
HETATM   23  C   UNL     1     -11.858  12.327  64.846  1.00  0.00    -0.358 C  
HETATM   24  H   UNL     1     -13.783  12.451  64.930  1.00  0.00     0.000 HD 
HETATM   25  O   UNL     1     -13.142  12.128  64.307  1.00  0.00    -0.723 OA 
BRANCH  23  26
HETATM   26  C   UNL     1     -11.694  13.829  65.227  1.00  0.00    -0.338 C  
HETATM   27  H   UNL     1     -12.720  15.167  66.185  1.00  0.00     0.000 HD 
HETATM   28  O   UNL     1     -12.820  14.252  65.953  1.00  0.00    -0.434 OA 
BRANCH  26  29
HETATM   29  C   UNL     1     -10.390  14.239  65.994  1.00  0.00    -0.309 C  
BRANCH  29  30
HETATM   30  O   UNL     1     -10.080  13.160  66.864  1.00  0.00    -0.238 OA 
BRANCH  30  31
HETATM   31  C   UNL     1      -8.714  12.806  66.944  1.00  0.00    -0.168 C  
HETATM   32  O   UNL     1      -8.524  11.484  66.467  1.00  0.00    -0.170 OA 
HETATM   33  C   UNL     1      -7.153  11.121  66.527  1.00  0.00    -0.124 C  
HETATM   34  H   UNL     1      -8.261  14.249  69.857  1.00  0.00     0.000 HD 
HETATM   35  C   UNL     1      -6.685  11.045  68.004  1.00  0.00    -0.063 C  
HETATM   36  O   UNL     1      -7.448  10.101  68.715  1.00  0.00    -0.079 OA 
HETATM   37  C   UNL     1      -6.859  12.441  68.639  1.00  0.00    -0.087 C  
HETATM   38  O   UNL     1      -8.506  14.195  68.942  1.00  0.00    -0.113 OA 
HETATM   39  H   UNL     1      -7.162  10.055  69.620  1.00  0.00     0.000 HD 
HETATM   40  O   UNL     1      -6.562  12.426  70.014  1.00  0.00    -0.357 OA 
HETATM   41  C   UNL     1      -8.314  12.895  68.438  1.00  0.00    -0.116 C  
HETATM   42  H   UNL     1      -6.669  13.285  70.405  1.00  0.00     0.000 HD 
BRANCH  33  43
HETATM   43  C   UNL     1      -6.986   9.780  65.796  1.00  0.00    -0.103 C  
HETATM   44  O   UNL     1      -8.150   9.003  65.884  1.00  0.00    -0.104 OA 
HETATM   45  H   UNL     1      -8.047   8.175  65.432  1.00  0.00     0.000 HD 
ENDBRANCH  33  43
ENDBRANCH  30  31
ENDBRANCH  29  30
BRANCH  29  46
HETATM   46  C   UNL     1     -10.442  15.612  66.753  1.00  0.00    -0.297 C  
HETATM   47  O   UNL     1     -11.459  15.611  67.729  1.00  0.00    -0.307 OA 
HETATM   48  H   UNL     1     -11.490  16.441  68.188  1.00  0.00     0.000 HD 
BRANCH  46  49
HETATM   49  C   UNL     1     -10.505  16.861  65.843  1.00  0.00    -0.285 C  
HETATM   50  H   UNL     1      -9.267  18.184  65.111  1.00  0.00     0.000 HD 
HETATM   51  O   UNL     1      -9.228  17.416  65.670  1.00  0.00    -0.477 OA 
ENDBRANCH  46  49
ENDBRANCH  29  46
ENDBRANCH  26  29
ENDBRANCH  23  26
ENDBRANCH  21  23
ENDBRANCH  20  21
ENDBRANCH  19  20
ENDBRANCH  18  19
ENDBRANCH  16  18
ENDBRANCH  13  16
ENDBRANCH  10  13
ENDBRANCH   7  10
ENDBRANCH   4   7
ENDBRANCH   2   4
TORSDOF 17
ENDMDL
MODEL      128
REMARK 921   NORMALIZED FREE ENERGY PREDICTED BY IDOCK:   -5.15 KCAL/MOL
REMARK 922        TOTAL FREE ENERGY PREDICTED BY IDOCK:  -13.70 KCAL/MOL
REMARK 923 INTER-LIGAND FREE ENERGY PREDICTED BY IDOCK:  -11.24 KCAL/MOL
REMARK 924 INTRA-LIGAND FREE ENERGY PREDICTED BY IDOCK:   -2.47 KCAL/MOL
REMARK 927      BINDING AFFINITY PREDICTED BY RF-SCORE:    0.00 PKD
ROOT
HETATM    1  O   UNL     1     -10.792  17.041  66.824  1.00  0.00    -0.157 OA 
HETATM    2  C   UNL     1      -9.789  16.072  66.684  1.00  0.00    -0.260 C  
HETATM    3  H   UNL     1     -10.707  17.470  67.667  1.00  0.00     0.000 HD 
ENDROOT
BRANCH   2   4
HETATM    4  C   UNL     1      -9.927  15.377  65.318  1.00  0.00    -0.270 C  
HETATM    5  O   UNL     1      -9.441  14.062  65.415  1.00  0.00    -0.533 OA 
HETATM    6  H   UNL     1      -9.526  13.633  64.571  1.00  0.00     0.000 HD 
BRANCH   4   7
HETATM    7  C   UNL     1     -11.403  15.349  64.839  1.00  0.00    -0.363 C  
HETATM    8  H   UNL     1     -12.506  16.325  63.570  1.00  0.00     0.000 HD 
HETATM    9  O   UNL     1     -11.603  16.342  63.863  1.00  0.00    -0.987 OA 
BRANCH   7  10
HETATM   10  C   UNL     1     -11.794  13.970  64.245  1.00  0.00    -0.410 C  
HETATM   11  H   UNL     1     -12.622  13.334  62.620  1.00  0.00     0.000 HD 
HETATM   12  O   UNL     1     -12.382  14.179  62.984  1.00  0.00    -0.488 OA 
BRANCH  10  13
HETATM   13  C   UNL     1     -12.784  13.171  65.137  1.00  0.00    -0.405 C  
HETATM   14  H   UNL     1     -13.922  11.608  64.950  1.00  0.00     0.000 HD 
HETATM   15  O   UNL     1     -13.316  12.096  64.405  1.00  0.00    -0.740 OA 
BRANCH  13  16
HETATM   16  C   UNL     1     -12.149  12.611  66.387  1.00  0.00    -0.260 C  
HETATM   17  O   UNL     1     -11.574  11.535  66.345  1.00  0.00    -0.412 OA 
BRANCH  16  18
HETATM   18  O   UNL     1     -12.214  13.276  67.559  1.00  0.00    -0.304 OA 
BRANCH  18  19
HETATM   19 CA   UNL     1     -12.340  12.017  69.622  1.00  0.00    -0.257 Ca 
BRANCH  19  20
HETATM   20  O   UNL     1     -12.466  10.759  71.685  1.00  0.00    -0.354 OA 
BRANCH  20  21
HETATM   21  C   UNL     1     -12.993   9.551  71.423  1.00  0.00    -0.368 C  
HETATM   22  O   UNL     1     -14.180   9.385  71.649  1.00  0.00    -0.168 OA 
BRANCH  21  23
HETATM   23  C   UNL     1     -12.130   8.374  71.028  1.00  0.00    -0.198 C  
HETATM   24  H   UNL     1     -12.297   6.451  71.058  1.00  0.00     0.000 HD 
HETATM   25  O   UNL     1     -12.839   7.190  71.306  1.00  0.00    -0.380 OA 
BRANCH  23  26
HETATM   26  C   UNL     1     -10.745   8.315  71.741  1.00  0.00    -0.266 C  
HETATM   27  H   UNL     1     -10.067   7.785  73.478  1.00  0.00     0.000 HD 
HETATM   28  O   UNL     1     -10.912   7.820  73.045  1.00  0.00    -0.386 OA 
BRANCH  26  29
HETATM   29  C   UNL     1      -9.598   7.525  71.021  1.00  0.00    -0.160 C  
BRANCH  29  30
HETATM   30  O   UNL     1     -10.000   7.379  69.666  1.00  0.00    -0.177 OA 
BRANCH  30  31
HETATM   31  C   UNL     1      -9.112   7.905  68.701  1.00  0.00    -0.136 C  
HETATM   32  O   UNL     1      -8.416   9.019  69.234  1.00  0.00    -0.122 OA 
HETATM   33  C   UNL     1      -7.509   9.549  68.280  1.00  0.00    -0.078 C  
HETATM   34  H   UNL     1     -11.218   7.535  66.210  1.00  0.00     0.000 HD 
HETATM   35  C   UNL     1      -8.287  10.149  67.080  1.00  0.00    -0.125 C  
HETATM   36  O   UNL     1      -9.154  11.169  67.515  1.00  0.00    -0.144 OA 
HETATM   37  C   UNL     1      -9.103   9.019  66.418  1.00  0.00    -0.170 C  
HETATM   38  O   UNL     1     -10.690   7.264  66.950  1.00  0.00    -0.338 OA 
HETATM   39  H   UNL     1      -9.630  11.536  66.780  1.00  0.00     0.000 HD 
HETATM   40  O   UNL     1      -9.927   9.508  65.389  1.00  0.00    -0.409 OA 
HETATM   41  C   UNL     1      -9.975   8.348  67.492  1.00  0.00    -0.200 C  
HETATM   42  H   UNL     1     -10.429   8.812  64.981  1.00  0.00     0.000 HD 
BRANCH  33  43
HETATM   43  C   UNL     1      -6.635  10.596  68.987  1.00  0.00    -0.062 C  
HETATM   44  O   UNL     1      -7.094  10.849  70.288  1.00  0.00    -0.460 OA 
HETATM   45  H   UNL     1      -6.554  11.496  70.725  1.00  0.00     0.000 HD 
ENDBRANCH  33  43
ENDBRANCH  30  31
ENDBRANCH  29  30
BRANCH  29  46
HETATM   46  C   UNL     1      -9.199   6.152  71.668  1.00  0.00    -0.145 C  
HETATM   47  O   UNL     1      -7.851   5.841  71.401  1.00  0.00    -0.107 OA 
HETATM   48  H   UNL     1      -7.610   5.010  71.793  1.00  0.00     0.000 HD 
BRANCH  46  49
HETATM   49  C   UNL     1     -10.147   4.975  71.343  1.00  0.00    -0.199 C  
HETATM   50  H   UNL     1     -10.724   3.971  69.768  1.00  0.00     0.000 HD 
HETATM   51  O   UNL     1     -10.141   4.695  69.968  1.00  0.00    -0.238 OA 
ENDBRANCH  46  49
ENDBRANCH  29  46
ENDBRANCH  26  29
ENDBRANCH  23  26
ENDBRANCH  21  23
ENDBRANCH  20  21
ENDBRANCH  19  20
ENDBRANCH  18  19
ENDBRANCH  16  18
ENDBRANCH  13  16
ENDBRANCH  10  13
ENDBRANCH   7  10
ENDBRANCH   4   7
ENDBRANCH   2   4
TORSDOF 17
ENDMDL
MODEL      129
REMARK 921   NORMALIZED FREE ENERGY PREDICTED BY IDOCK:   -5.15 KCAL/MOL
REMARK 922        TOTAL FREE ENERGY PREDICTED BY IDOCK:  -13.70 KCAL/MOL
REMARK 923 INTER-LIGAND FREE ENERGY PREDICTED BY IDOCK:   -9.03 KCAL/MOL
REMARK 924 INTRA-LIGAND FREE ENERGY PREDICTED BY IDOCK:   -4.67 KCAL/MOL
REMARK 927      BINDING AFFINITY PREDICTED BY RF-SCORE:    0.00 PKD
ROOT
HETATM    1  O   UNL     1      -7.576  12.537  67.021  1.00  0.00    -0.322 OA 
HETATM    2  C   UNL     1      -8.667  13.401  66.852  1.00  0.00    -0.142 C  
HETATM    3  H   UNL     1      -6.820  13.031  67.316  1.00  0.00     0.000 HD 
ENDROOT
BRANCH   2   4
HETATM    4  C   UNL     1      -9.891  12.601  66.374  1.00  0.00    -0.259 C  
HETATM    5  O   UNL     1      -9.457  11.448  65.697  1.00  0.00    -0.222 OA 
HETATM    6  H   UNL     1     -10.214  10.954  65.402  1.00  0.00     0.000 HD 
BRANCH   4   7
HETATM    7  C   UNL     1     -10.803  12.192  67.561  1.00  0.00    -0.243 C  
HETATM    8  H   UNL     1     -10.583  11.776  69.448  1.00  0.00     0.000 HD 
HETATM    9  O   UNL     1     -10.024  12.027  68.721  1.00  0.00    -0.176 OA 
BRANCH   7  10
HETATM   10  C   UNL     1     -11.904  13.250  67.838  1.00  0.00    -0.349 C  
HETATM   11  H   UNL     1     -12.871  14.563  66.803  1.00  0.00     0.000 HD 
HETATM   12  O   UNL     1     -12.197  13.915  66.633  1.00  0.00    -0.437 OA 
BRANCH  10  13
HETATM   13  C   UNL     1     -11.497  14.301  68.907  1.00  0.00    -0.286 C  
HETATM   14  H   UNL     1     -11.324  16.233  69.008  1.00  0.00     0.000 HD 
HETATM   15  O   UNL     1     -11.573  15.590  68.355  1.00  0.00    -0.355 OA 
BRANCH  13  16
HETATM   16  C   UNL     1     -12.369  14.273  70.140  1.00  0.00    -0.353 C  
HETATM   17  O   UNL     1     -12.815  15.317  70.591  1.00  0.00    -0.397 OA 
BRANCH  16  18
HETATM   18  O   UNL     1     -12.659  13.112  70.762  1.00  0.00    -0.324 OA 
BRANCH  18  19
HETATM   19 CA   UNL     1     -11.028  11.324  70.739  1.00  0.00    -0.428 Ca 
BRANCH  19  20
HETATM   20  O   UNL     1      -9.397   9.537  70.715  1.00  0.00    -0.245 OA 
BRANCH  20  21
HETATM   21  C   UNL     1      -9.462   8.877  71.884  1.00  0.00    -0.230 C  
HETATM   22  O   UNL     1      -8.442   8.785  72.545  1.00  0.00    -0.403 OA 
BRANCH  21  23
HETATM   23  C   UNL     1     -10.701   8.117  72.303  1.00  0.00    -0.313 C  
HETATM   24  H   UNL     1     -11.318   7.227  73.901  1.00  0.00     0.000 HD 
HETATM   25  O   UNL     1     -10.540   7.704  73.638  1.00  0.00    -0.306 OA 
BRANCH  23  26
HETATM   26  C   UNL     1     -11.029   6.873  71.422  1.00  0.00    -0.240 C  
HETATM   27  H   UNL     1     -12.082   6.498  69.838  1.00  0.00     0.000 HD 
HETATM   28  O   UNL     1     -11.883   7.256  70.374  1.00  0.00    -0.236 OA 
BRANCH  26  29
HETATM   29  C   UNL     1      -9.819   6.060  70.845  1.00  0.00    -0.184 C  
BRANCH  29  30
HETATM   30  O   UNL     1     -10.137   5.775  69.491  1.00  0.00    -0.179 OA 
BRANCH  30  31
HETATM   31  C   UNL     1      -9.235   6.279  68.527  1.00  0.00    -0.123 C  
HETATM   32  O   UNL     1      -8.235   7.062  69.158  1.00  0.00    -0.119 OA 
HETATM   33  C   UNL     1      -7.312   7.563  68.203  1.00  0.00    -0.096 C  
HETATM   34  H   UNL     1     -11.579   6.946  66.328  1.00  0.00     0.000 HD 
HETATM   35  C   UNL     1      -8.017   8.569  67.257  1.00  0.00    -0.102 C  
HETATM   36  O   UNL     1      -8.556   9.642  67.991  1.00  0.00    -0.119 OA 
HETATM   37  C   UNL     1      -9.147   7.826  66.515  1.00  0.00    -0.170 C  
HETATM   38  O   UNL     1     -11.072   6.408  66.924  1.00  0.00    -0.384 OA 
HETATM   39  H   UNL     1      -8.988  10.258  67.411  1.00  0.00     0.000 HD 
HETATM   40  O   UNL     1      -9.909   8.701  65.720  1.00  0.00    -0.466 OA 
HETATM   41  C   UNL     1     -10.062   7.157  67.555  1.00  0.00    -0.188 C  
HETATM   42  H   UNL     1     -10.605   8.243  65.263  1.00  0.00     0.000 HD 
BRANCH  33  43
HETATM   43  C   UNL     1      -6.143   8.205  68.966  1.00  0.00    -0.039 C  
HETATM   44  O   UNL     1      -6.603   9.079  69.961  1.00  0.00    -0.040 OA 
HETATM   45  H   UNL     1      -5.881   9.476  70.433  1.00  0.00     0.000 HD 
ENDBRANCH  33  43
ENDBRANCH  30  31
ENDBRANCH  29  30
BRANCH  29  46
HETATM   46  C   UNL     1      -9.417   4.769  71.642  1.00  0.00    -0.151 C  
HETATM   47  O   UNL     1      -8.992   3.749  70.768  1.00  0.00    -0.081 OA 
HETATM   48  H   UNL     1      -8.749   2.968  71.250  1.00  0.00     0.000 HD 
BRANCH  46  49
HETATM   49  C   UNL     1     -10.473   4.270  72.655  1.00  0.00    -0.171 C  
HETATM   50  H   UNL     1     -10.696   4.191  74.595  1.00  0.00     0.000 HD 
HETATM   51  O   UNL     1     -10.048   4.499  73.972  1.00  0.00    -0.153 OA 
ENDBRANCH  46  49
ENDBRANCH  29  46
ENDBRANCH  26  29
ENDBRANCH  23  26
ENDBRANCH  21  23
ENDBRANCH  20  21
ENDBRANCH  19  20
ENDBRANCH  18  19
ENDBRANCH  16  18
ENDBRANCH  13  16
ENDBRANCH  10  13
ENDBRANCH   7  10
ENDBRANCH   4   7
ENDBRANCH   2   4
TORSDOF 17
ENDMDL
MODEL      130
REMARK 921   NORMALIZED FREE ENERGY PREDICTED BY IDOCK:   -5.14 KCAL/MOL
REMARK 922        TOTAL FREE ENERGY PREDICTED BY IDOCK:  -13.69 KCAL/MOL
REMARK 923 INTER-LIGAND FREE ENERGY PREDICTED BY IDOCK:  -11.33 KCAL/MOL
REMARK 924 INTRA-LIGAND FREE ENERGY PREDICTED BY IDOCK:   -2.36 KCAL/MOL
REMARK 927      BINDING AFFINITY PREDICTED BY RF-SCORE:    0.00 PKD
ROOT
HETATM    1  O   UNL     1      -9.628   7.609  74.212  1.00  0.00    -0.387 OA 
HETATM    2  C   UNL     1      -9.135   7.095  73.005  1.00  0.00    -0.136 C  
HETATM    3  H   UNL     1      -8.951   8.117  74.643  1.00  0.00     0.000 HD 
ENDROOT
BRANCH   2   4
HETATM    4  C   UNL     1     -10.232   6.272  72.306  1.00  0.00    -0.187 C  
HETATM    5  O   UNL     1     -11.227   5.937  73.241  1.00  0.00    -0.430 OA 
HETATM    6  H   UNL     1     -11.904   5.429  72.809  1.00  0.00     0.000 HD 
BRANCH   4   7
HETATM    7  C   UNL     1     -10.870   7.057  71.130  1.00  0.00    -0.237 C  
HETATM    8  H   UNL     1     -11.806   6.634  69.479  1.00  0.00     0.000 HD 
HETATM    9  O   UNL     1     -11.415   6.153  70.199  1.00  0.00    -0.391 OA 
BRANCH   7  10
HETATM   10  C   UNL     1     -11.987   8.019  71.613  1.00  0.00    -0.298 C  
HETATM   11  H   UNL     1     -13.853   8.310  71.205  1.00  0.00     0.000 HD 
HETATM   12  O   UNL     1     -13.169   7.720  70.909  1.00  0.00    -0.041 OA 
BRANCH  10  13
HETATM   13  C   UNL     1     -11.644   9.520  71.404  1.00  0.00    -0.395 C  
HETATM   14  H   UNL     1     -11.085  10.660  69.935  1.00  0.00     0.000 HD 
HETATM   15  O   UNL     1     -11.295   9.742  70.062  1.00  0.00    -0.242 OA 
BRANCH  13  16
HETATM   16  C   UNL     1     -12.784  10.450  71.748  1.00  0.00    -0.421 C  
HETATM   17  O   UNL     1     -13.629  10.099  72.557  1.00  0.00    -0.220 OA 
BRANCH  16  18
HETATM   18  O   UNL     1     -12.894  11.661  71.167  1.00  0.00    -0.364 OA 
BRANCH  18  19
HETATM   19 CA   UNL     1     -12.584  11.854  68.774  1.00  0.00    -0.282 Ca 
BRANCH  19  20
HETATM   20  O   UNL     1     -12.273  12.047  66.382  1.00  0.00    -0.551 OA 
BRANCH  20  21
HETATM   21  C   UNL     1     -11.929  13.313  66.092  1.00  0.00    -0.418 C  
HETATM   22  O   UNL     1     -12.824  14.111  65.871  1.00  0.00    -0.471 OA 
BRANCH  21  23
HETATM   23  C   UNL     1     -10.489  13.717  65.870  1.00  0.00    -0.297 C  
HETATM   24  H   UNL     1      -8.951  12.964  64.979  1.00  0.00     0.000 HD 
HETATM   25  O   UNL     1      -9.856  12.710  65.119  1.00  0.00    -0.206 OA 
BRANCH  23  26
HETATM   26  C   UNL     1      -9.674  13.967  67.175  1.00  0.00    -0.244 C  
HETATM   27  H   UNL     1      -7.816  14.256  67.651  1.00  0.00     0.000 HD 
HETATM   28  O   UNL     1      -8.313  14.104  66.855  1.00  0.00    -0.159 OA 
BRANCH  26  29
HETATM   29  C   UNL     1     -10.123  15.161  68.086  1.00  0.00    -0.222 C  
BRANCH  29  30
HETATM   30  O   UNL     1      -8.948  15.903  68.384  1.00  0.00    -0.180 OA 
BRANCH  30  31
HETATM   31  C   UNL     1      -9.040  17.301  68.200  1.00  0.00    -0.257 C  
HETATM   32  O   UNL     1      -9.788  17.590  67.030  1.00  0.00    -0.274 OA 
HETATM   33  C   UNL     1      -9.901  18.993  66.841  1.00  0.00    -0.331 C  
HETATM   34  H   UNL     1      -5.934  17.867  69.099  1.00  0.00     0.000 HD 
HETATM   35  C   UNL     1      -8.508  19.605  66.542  1.00  0.00    -0.345 C  
HETATM   36  O   UNL     1      -7.951  19.024  65.389  1.00  0.00    -0.253 OA 
HETATM   37  C   UNL     1      -7.592  19.339  67.755  1.00  0.00    -0.259 C  
HETATM   38  O   UNL     1      -6.822  17.543  69.191  1.00  0.00    -0.244 OA 
HETATM   39  H   UNL     1      -7.097  19.399  65.206  1.00  0.00     0.000 HD 
HETATM   40  O   UNL     1      -6.273  19.766  67.513  1.00  0.00    -0.192 OA 
HETATM   41  C   UNL     1      -7.592  17.829  68.049  1.00  0.00    -0.236 C  
HETATM   42  H   UNL     1      -5.710  19.602  68.260  1.00  0.00     0.000 HD 
BRANCH  33  43
HETATM   43  C   UNL     1     -10.899  19.238  65.699  1.00  0.00    -0.181 C  
HETATM   44  O   UNL     1     -11.047  18.096  64.897  1.00  0.00    -0.673 OA 
HETATM   45  H   UNL     1     -11.664  18.247  64.192  1.00  0.00     0.000 HD 
ENDBRANCH  33  43
ENDBRANCH  30  31
ENDBRANCH  29  30
BRANCH  29  46
HETATM   46  C   UNL     1     -10.920  14.774  69.382  1.00  0.00    -0.265 C  
HETATM   47  O   UNL     1     -10.914  13.379  69.580  1.00  0.00    -0.460 OA 
HETATM   48  H   UNL     1     -11.395  13.145  70.364  1.00  0.00     0.000 HD 
BRANCH  46  49
HETATM   49  C   UNL     1     -12.342  15.372  69.478  1.00  0.00    -0.174 C  
HETATM   50  H   UNL     1     -13.630  15.829  70.876  1.00  0.00     0.000 HD 
HETATM   51  O   UNL     1     -12.755  15.462  70.817  1.00  0.00    -0.404 OA 
ENDBRANCH  46  49
ENDBRANCH  29  46
ENDBRANCH  26  29
ENDBRANCH  23  26
ENDBRANCH  21  23
ENDBRANCH  20  21
ENDBRANCH  19  20
ENDBRANCH  18  19
ENDBRANCH  16  18
ENDBRANCH  13  16
ENDBRANCH  10  13
ENDBRANCH   7  10
ENDBRANCH   4   7
ENDBRANCH   2   4
TORSDOF 17
ENDMDL
MODEL      131
REMARK 921   NORMALIZED FREE ENERGY PREDICTED BY IDOCK:   -5.14 KCAL/MOL
REMARK 922        TOTAL FREE ENERGY PREDICTED BY IDOCK:  -13.69 KCAL/MOL
REMARK 923 INTER-LIGAND FREE ENERGY PREDICTED BY IDOCK:  -10.02 KCAL/MOL
REMARK 924 INTRA-LIGAND FREE ENERGY PREDICTED BY IDOCK:   -3.66 KCAL/MOL
REMARK 927      BINDING AFFINITY PREDICTED BY RF-SCORE:    0.00 PKD
ROOT
HETATM    1  O   UNL     1     -12.206   7.038  70.661  1.00  0.00    -0.524 OA 
HETATM    2  C   UNL     1     -11.147   6.230  70.227  1.00  0.00    -0.364 C  
HETATM    3  H   UNL     1     -12.911   7.010  70.025  1.00  0.00     0.000 HD 
ENDROOT
BRANCH   2   4
HETATM    4  C   UNL     1     -10.005   6.276  71.257  1.00  0.00    -0.180 C  
HETATM    5  O   UNL     1     -10.161   5.220  72.171  1.00  0.00    -0.178 OA 
HETATM    6  H   UNL     1      -9.455   5.249  72.807  1.00  0.00     0.000 HD 
BRANCH   4   7
HETATM    7  C   UNL     1      -8.616   6.167  70.573  1.00  0.00    -0.138 C  
HETATM    8  H   UNL     1      -7.585   4.799  69.654  1.00  0.00     0.000 HD 
HETATM    9  O   UNL     1      -8.436   4.865  70.072  1.00  0.00    -0.081 OA 
BRANCH   7  10
HETATM   10  C   UNL     1      -8.461   7.183  69.410  1.00  0.00    -0.134 C  
HETATM   11  H   UNL     1      -8.157   7.088  67.505  1.00  0.00     0.000 HD 
HETATM   12  O   UNL     1      -8.252   6.466  68.217  1.00  0.00    -0.115 OA 
BRANCH  10  13
HETATM   13  C   UNL     1      -7.285   8.178  69.611  1.00  0.00    -0.065 C  
HETATM   14  H   UNL     1      -5.837   8.904  68.538  1.00  0.00     0.000 HD 
HETATM   15  O   UNL     1      -6.556   8.295  68.416  1.00  0.00    -0.057 OA 
BRANCH  13  16
HETATM   16  C   UNL     1      -7.733   9.562  70.018  1.00  0.00    -0.142 C  
HETATM   17  O   UNL     1      -8.353   9.716  71.059  1.00  0.00    -0.253 OA 
BRANCH  16  18
HETATM   18  O   UNL     1      -7.470  10.635  69.245  1.00  0.00    -0.107 OA 
BRANCH  18  19
HETATM   19 CA   UNL     1      -9.014  12.499  69.251  1.00  0.00    -0.358 Ca 
BRANCH  19  20
HETATM   20  O   UNL     1     -10.558  14.362  69.257  1.00  0.00    -0.236 OA 
BRANCH  20  21
HETATM   21  C   UNL     1      -9.869  15.495  69.036  1.00  0.00    -0.235 C  
HETATM   22  O   UNL     1     -10.076  16.443  69.775  1.00  0.00    -0.194 OA 
BRANCH  21  23
HETATM   23  C   UNL     1      -8.993  15.669  67.816  1.00  0.00    -0.176 C  
HETATM   24  H   UNL     1      -7.528  16.817  67.304  1.00  0.00     0.000 HD 
HETATM   25  O   UNL     1      -8.078  16.707  68.070  1.00  0.00    -0.173 OA 
BRANCH  23  26
HETATM   26  C   UNL     1      -9.766  15.984  66.500  1.00  0.00    -0.264 C  
HETATM   27  H   UNL     1      -9.352  16.728  64.757  1.00  0.00     0.000 HD 
HETATM   28  O   UNL     1      -8.880  16.536  65.559  1.00  0.00    -0.325 OA 
BRANCH  26  29
HETATM   29  C   UNL     1     -10.570  14.811  65.839  1.00  0.00    -0.314 C  
BRANCH  29  30
HETATM   30  O   UNL     1      -9.698  13.691  65.814  1.00  0.00    -0.237 OA 
BRANCH  30  31
HETATM   31  C   UNL     1     -10.323  12.424  65.848  1.00  0.00    -0.257 C  
HETATM   32  O   UNL     1     -10.242  11.874  67.152  1.00  0.00    -0.206 OA 
HETATM   33  C   UNL     1     -10.881  10.607  67.204  1.00  0.00    -0.270 C  
HETATM   34  H   UNL     1      -9.147  11.498  62.926  1.00  0.00     0.000 HD 
HETATM   35  C   UNL     1     -10.107   9.585  66.332  1.00  0.00    -0.258 C  
HETATM   36  O   UNL     1      -8.780   9.456  66.782  1.00  0.00    -0.126 OA 
HETATM   37  C   UNL     1     -10.116  10.088  64.873  1.00  0.00    -0.114 C  
HETATM   38  O   UNL     1      -9.613  12.051  63.541  1.00  0.00    -0.255 OA 
HETATM   39  H   UNL     1      -8.306   8.830  66.247  1.00  0.00     0.000 HD 
HETATM   40  O   UNL     1      -9.334   9.270  64.037  1.00  0.00    -0.401 OA 
HETATM   41  C   UNL     1      -9.561  11.522  64.844  1.00  0.00    -0.186 C  
HETATM   42  H   UNL     1      -9.340   9.579  63.139  1.00  0.00     0.000 HD 
BRANCH  33  43
HETATM   43  C   UNL     1     -10.955  10.174  68.676  1.00  0.00    -0.230 C  
HETATM   44  O   UNL     1     -10.709  11.253  69.538  1.00  0.00    -0.390 OA 
HETATM   45  H   UNL     1     -10.756  10.985  70.447  1.00  0.00     0.000 HD 
ENDBRANCH  33  43
ENDBRANCH  30  31
ENDBRANCH  29  30
BRANCH  29  46
HETATM   46  C   UNL     1     -11.185  15.111  64.427  1.00  0.00    -0.169 C  
HETATM   47  O   UNL     1     -11.275  16.498  64.199  1.00  0.00    -1.355 OA 
HETATM   48  H   UNL     1     -11.647  16.680  63.345  1.00  0.00     0.000 HD 
BRANCH  46  49
HETATM   49  C   UNL     1     -12.515  14.381  64.124  1.00  0.00    -0.199 C  
HETATM   50  H   UNL     1     -14.035  13.665  65.123  1.00  0.00     0.000 HD 
HETATM   51  O   UNL     1     -13.218  14.114  65.309  1.00  0.00    -0.760 OA 
ENDBRANCH  46  49
ENDBRANCH  29  46
ENDBRANCH  26  29
ENDBRANCH  23  26
ENDBRANCH  21  23
ENDBRANCH  20  21
ENDBRANCH  19  20
ENDBRANCH  18  19
ENDBRANCH  16  18
ENDBRANCH  13  16
ENDBRANCH  10  13
ENDBRANCH   7  10
ENDBRANCH   4   7
ENDBRANCH   2   4
TORSDOF 17
ENDMDL
MODEL      132
REMARK 921   NORMALIZED FREE ENERGY PREDICTED BY IDOCK:   -5.13 KCAL/MOL
REMARK 922        TOTAL FREE ENERGY PREDICTED BY IDOCK:  -13.67 KCAL/MOL
REMARK 923 INTER-LIGAND FREE ENERGY PREDICTED BY IDOCK:  -10.74 KCAL/MOL
REMARK 924 INTRA-LIGAND FREE ENERGY PREDICTED BY IDOCK:   -2.93 KCAL/MOL
REMARK 927      BINDING AFFINITY PREDICTED BY RF-SCORE:    0.00 PKD
ROOT
HETATM    1  O   UNL     1     -11.528  13.653  70.569  1.00  0.00    -0.511 OA 
HETATM    2  C   UNL     1     -11.897  13.188  69.299  1.00  0.00    -0.323 C  
HETATM    3  H   UNL     1     -12.229  13.483  71.187  1.00  0.00     0.000 HD 
ENDROOT
BRANCH   2   4
HETATM    4  C   UNL     1     -10.762  13.463  68.298  1.00  0.00    -0.258 C  
HETATM    5  O   UNL     1      -9.556  12.957  68.811  1.00  0.00    -0.402 OA 
HETATM    6  H   UNL     1      -8.855  13.127  68.193  1.00  0.00     0.000 HD 
BRANCH   4   7
HETATM    7  C   UNL     1     -11.050  12.814  66.918  1.00  0.00    -0.270 C  
HETATM    8  H   UNL     1     -12.265  11.477  66.199  1.00  0.00     0.000 HD 
HETATM    9  O   UNL     1     -12.089  11.874  67.044  1.00  0.00    -0.600 OA 
BRANCH   7  10
HETATM   10  C   UNL     1     -11.450  13.869  65.853  1.00  0.00    -0.325 C  
HETATM   11  H   UNL     1     -13.098  14.614  65.175  1.00  0.00     0.000 HD 
HETATM   12  O   UNL     1     -12.853  13.967  65.827  1.00  0.00    -0.516 OA 
BRANCH  10  13
HETATM   13  C   UNL     1     -10.943  13.529  64.424  1.00  0.00    -0.384 C  
HETATM   14  H   UNL     1      -9.656  12.316  63.623  1.00  0.00     0.000 HD 
HETATM   15  O   UNL     1      -9.965  12.524  64.496  1.00  0.00    -0.253 OA 
BRANCH  13  16
HETATM   16  C   UNL     1     -12.036  13.047  63.499  1.00  0.00    -0.542 C  
HETATM   17  O   UNL     1     -12.742  13.859  62.921  1.00  0.00    -0.521 OA 
BRANCH  16  18
HETATM   18  O   UNL     1     -12.256  11.731  63.306  1.00  0.00    -0.489 OA 
BRANCH  18  19
HETATM   19 CA   UNL     1     -10.432  10.172  63.628  1.00  0.00    -0.404 Ca 
BRANCH  19  20
HETATM   20  O   UNL     1      -8.609   8.614  63.948  1.00  0.00    -0.126 OA 
BRANCH  20  21
HETATM   21  C   UNL     1      -8.201   8.684  65.227  1.00  0.00    -0.147 C  
HETATM   22  O   UNL     1      -7.828   9.766  65.648  1.00  0.00    -0.107 OA 
BRANCH  21  23
HETATM   23  C   UNL     1      -8.034   7.446  66.079  1.00  0.00    -0.115 C  
HETATM   24  H   UNL     1      -8.119   5.538  65.798  1.00  0.00     0.000 HD 
HETATM   25  O   UNL     1      -8.224   6.316  65.263  1.00  0.00    -0.131 OA 
BRANCH  23  26
HETATM   26  C   UNL     1      -9.002   7.361  67.298  1.00  0.00    -0.124 C  
HETATM   27  H   UNL     1     -10.103   6.004  68.140  1.00  0.00     0.000 HD 
HETATM   28  O   UNL     1      -9.513   6.056  67.397  1.00  0.00    -0.111 OA 
BRANCH  26  29
HETATM   29  C   UNL     1      -8.444   7.814  68.692  1.00  0.00    -0.129 C  
BRANCH  29  30
HETATM   30  O   UNL     1      -8.918   6.869  69.640  1.00  0.00    -0.143 OA 
BRANCH  30  31
HETATM   31  C   UNL     1      -9.608   7.405  70.752  1.00  0.00    -0.170 C  
HETATM   32  O   UNL     1      -8.824   7.265  71.925  1.00  0.00    -0.122 OA 
HETATM   33  C   UNL     1      -9.498   7.814  73.047  1.00  0.00    -0.251 C  
HETATM   34  H   UNL     1     -12.523   6.216  69.823  1.00  0.00     0.000 HD 
HETATM   35  C   UNL     1     -10.771   6.986  73.362  1.00  0.00    -0.345 C  
HETATM   36  O   UNL     1     -10.435   5.646  73.629  1.00  0.00    -0.226 OA 
HETATM   37  C   UNL     1     -11.707   7.054  72.137  1.00  0.00    -0.283 C  
HETATM   38  O   UNL     1     -11.717   6.709  69.736  1.00  0.00    -0.332 OA 
HETATM   39  H   UNL     1     -11.215   5.140  73.822  1.00  0.00     0.000 HD 
HETATM   40  O   UNL     1     -12.837   6.232  72.301  1.00  0.00    -0.525 OA 
HETATM   41  C   UNL     1     -10.924   6.600  70.894  1.00  0.00    -0.268 C  
HETATM   42  H   UNL     1     -13.413   6.274  71.547  1.00  0.00     0.000 HD 
BRANCH  33  43
HETATM   43  C   UNL     1      -8.514   7.834  74.227  1.00  0.00    -0.233 C  
HETATM   44  O   UNL     1      -7.563   8.855  74.080  1.00  0.00    -0.409 OA 
HETATM   45  H   UNL     1      -6.955   8.868  74.809  1.00  0.00     0.000 HD 
ENDBRANCH  33  43
ENDBRANCH  30  31
ENDBRANCH  29  30
BRANCH  29  46
HETATM   46  C   UNL     1      -8.772   9.289  69.115  1.00  0.00    -0.139 C  
HETATM   47  O   UNL     1      -9.614   9.910  68.172  1.00  0.00    -0.138 OA 
HETATM   48  H   UNL     1      -9.812  10.802  68.428  1.00  0.00     0.000 HD 
BRANCH  46  49
HETATM   49  C   UNL     1      -7.541  10.159  69.462  1.00  0.00    -0.139 C  
HETATM   50  H   UNL     1      -6.256  10.333  70.925  1.00  0.00     0.000 HD 
HETATM   51  O   UNL     1      -7.012   9.798  70.711  1.00  0.00    -0.226 OA 
ENDBRANCH  46  49
ENDBRANCH  29  46
ENDBRANCH  26  29
ENDBRANCH  23  26
ENDBRANCH  21  23
ENDBRANCH  20  21
ENDBRANCH  19  20
ENDBRANCH  18  19
ENDBRANCH  16  18
ENDBRANCH  13  16
ENDBRANCH  10  13
ENDBRANCH   7  10
ENDBRANCH   4   7
ENDBRANCH   2   4
TORSDOF 17
ENDMDL
MODEL      133
REMARK 921   NORMALIZED FREE ENERGY PREDICTED BY IDOCK:   -5.12 KCAL/MOL
REMARK 922        TOTAL FREE ENERGY PREDICTED BY IDOCK:  -13.65 KCAL/MOL
REMARK 923 INTER-LIGAND FREE ENERGY PREDICTED BY IDOCK:  -10.99 KCAL/MOL
REMARK 924 INTRA-LIGAND FREE ENERGY PREDICTED BY IDOCK:   -2.66 KCAL/MOL
REMARK 927      BINDING AFFINITY PREDICTED BY RF-SCORE:    0.00 PKD
ROOT
HETATM    1  O   UNL     1      -8.568   5.946  70.067  1.00  0.00    -0.126 OA 
HETATM    2  C   UNL     1      -8.168   7.253  70.377  1.00  0.00    -0.125 C  
HETATM    3  H   UNL     1      -8.278   5.722  69.190  1.00  0.00     0.000 HD 
ENDROOT
BRANCH   2   4
HETATM    4  C   UNL     1      -8.638   7.615  71.796  1.00  0.00    -0.113 C  
HETATM    5  O   UNL     1      -7.815   8.631  72.313  1.00  0.00    -0.295 OA 
HETATM    6  H   UNL     1      -8.106   8.855  73.189  1.00  0.00     0.000 HD 
BRANCH   4   7
HETATM    7  C   UNL     1     -10.115   8.092  71.803  1.00  0.00    -0.205 C  
HETATM    8  H   UNL     1     -11.660   7.959  70.630  1.00  0.00     0.000 HD 
HETATM    9  O   UNL     1     -10.756   7.666  70.625  1.00  0.00    -0.223 OA 
BRANCH   7  10
HETATM   10  C   UNL     1     -10.895   7.546  73.028  1.00  0.00    -0.392 C  
HETATM   11  H   UNL     1     -10.458   6.980  74.823  1.00  0.00     0.000 HD 
HETATM   12  O   UNL     1      -9.980   7.315  74.072  1.00  0.00    -0.300 OA 
BRANCH  10  13
HETATM   13  C   UNL     1     -11.667   6.230  72.735  1.00  0.00    -0.039 C  
HETATM   14  H   UNL     1     -12.694   5.482  71.266  1.00  0.00     0.000 HD 
HETATM   15  O   UNL     1     -12.223   6.287  71.446  1.00  0.00    -0.214 OA 
BRANCH  13  16
HETATM   16  C   UNL     1     -10.799   4.996  72.813  1.00  0.00    -0.244 C  
HETATM   17  O   UNL     1     -10.658   4.422  73.881  1.00  0.00    -0.207 OA 
BRANCH  16  18
HETATM   18  O   UNL     1     -10.166   4.520  71.722  1.00  0.00    -0.193 OA 
BRANCH  18  19
HETATM   19 CA   UNL     1     -10.676   5.468  69.555  1.00  0.00    -0.185 Ca 
BRANCH  19  20
HETATM   20  O   UNL     1     -11.187   6.416  67.387  1.00  0.00    -0.352 OA 
BRANCH  20  21
HETATM   21  C   UNL     1     -10.227   7.300  67.066  1.00  0.00    -0.278 C  
HETATM   22  O   UNL     1      -9.071   6.911  67.061  1.00  0.00    -0.128 OA 
BRANCH  21  23
HETATM   23  C   UNL     1     -10.526   8.771  66.885  1.00  0.00    -0.249 C  
HETATM   24  H   UNL     1      -9.924  10.183  65.714  1.00  0.00     0.000 HD 
HETATM   25  O   UNL     1      -9.736   9.259  65.828  1.00  0.00    -0.278 OA 
BRANCH  23  26
HETATM   26  C   UNL     1     -10.279   9.646  68.151  1.00  0.00    -0.190 C  
HETATM   27  H   UNL     1      -8.830  10.715  68.872  1.00  0.00     0.000 HD 
HETATM   28  O   UNL     1      -8.981  10.181  68.101  1.00  0.00    -0.121 OA 
BRANCH  26  29
HETATM   29  C   UNL     1     -11.308  10.790  68.447  1.00  0.00    -0.302 C  
BRANCH  29  30
HETATM   30  O   UNL     1     -10.714  11.995  67.987  1.00  0.00    -0.199 OA 
BRANCH  30  31
HETATM   31  C   UNL     1     -11.450  12.714  67.018  1.00  0.00    -0.346 C  
HETATM   32  O   UNL     1     -11.541  11.963  65.819  1.00  0.00    -0.327 OA 
HETATM   33  C   UNL     1     -12.292  12.668  64.842  1.00  0.00    -0.498 C  
HETATM   34  H   UNL     1     -10.097  15.605  67.783  1.00  0.00     0.000 HD 
HETATM   35  C   UNL     1     -11.535  13.951  64.410  1.00  0.00    -0.361 C  
HETATM   36  O   UNL     1     -10.273  13.626  63.882  1.00  0.00    -0.620 OA 
HETATM   37  C   UNL     1     -11.364  14.852  65.651  1.00  0.00    -0.325 C  
HETATM   38  O   UNL     1     -10.566  14.795  67.940  1.00  0.00    -0.244 OA 
HETATM   39  H   UNL     1      -9.810  14.412  63.618  1.00  0.00     0.000 HD 
HETATM   40  O   UNL     1     -10.585  15.988  65.365  1.00  0.00    -0.386 OA 
HETATM   41  C   UNL     1     -10.683  14.035  66.762  1.00  0.00    -0.285 C  
HETATM   42  H   UNL     1     -10.480  16.542  66.128  1.00  0.00     0.000 HD 
BRANCH  33  43
HETATM   43  C   UNL     1     -12.541  11.717  63.660  1.00  0.00    -0.344 C  
HETATM   44  O   UNL     1     -11.335  11.256  63.114  1.00  0.00    -0.837 OA 
HETATM   45  H   UNL     1     -11.489  10.668  62.384  1.00  0.00     0.000 HD 
ENDBRANCH  33  43
ENDBRANCH  30  31
ENDBRANCH  29  30
BRANCH  29  46
HETATM   46  C   UNL     1     -11.798  10.905  69.934  1.00  0.00    -0.349 C  
HETATM   47  O   UNL     1     -12.747   9.907  70.232  1.00  0.00    -0.524 OA 
HETATM   48  H   UNL     1     -13.043   9.976  71.131  1.00  0.00     0.000 HD 
BRANCH  46  49
HETATM   49  C   UNL     1     -12.276  12.312  70.359  1.00  0.00    -0.288 C  
HETATM   50  H   UNL     1     -13.027  13.169  71.947  1.00  0.00     0.000 HD 
HETATM   51  O   UNL     1     -12.733  12.304  71.686  1.00  0.00    -0.296 OA 
ENDBRANCH  46  49
ENDBRANCH  29  46
ENDBRANCH  26  29
ENDBRANCH  23  26
ENDBRANCH  21  23
ENDBRANCH  20  21
ENDBRANCH  19  20
ENDBRANCH  18  19
ENDBRANCH  16  18
ENDBRANCH  13  16
ENDBRANCH  10  13
ENDBRANCH   7  10
ENDBRANCH   4   7
ENDBRANCH   2   4
TORSDOF 17
ENDMDL
MODEL      134
REMARK 921   NORMALIZED FREE ENERGY PREDICTED BY IDOCK:   -5.09 KCAL/MOL
REMARK 922        TOTAL FREE ENERGY PREDICTED BY IDOCK:  -13.59 KCAL/MOL
REMARK 923 INTER-LIGAND FREE ENERGY PREDICTED BY IDOCK:  -10.78 KCAL/MOL
REMARK 924 INTRA-LIGAND FREE ENERGY PREDICTED BY IDOCK:   -2.81 KCAL/MOL
REMARK 927      BINDING AFFINITY PREDICTED BY RF-SCORE:    0.00 PKD
ROOT
HETATM    1  O   UNL     1      -8.364   5.134  69.312  1.00  0.00    -0.086 OA 
HETATM    2  C   UNL     1      -7.979   5.232  70.656  1.00  0.00    -0.103 C  
HETATM    3  H   UNL     1      -7.689   4.684  68.818  1.00  0.00     0.000 HD 
ENDROOT
BRANCH   2   4
HETATM    4  C   UNL     1      -9.072   5.961  71.456  1.00  0.00    -0.143 C  
HETATM    5  O   UNL     1      -8.506   7.065  72.117  1.00  0.00    -0.112 OA 
HETATM    6  H   UNL     1      -9.181   7.515  72.610  1.00  0.00     0.000 HD 
BRANCH   4   7
HETATM    7  C   UNL     1     -10.224   6.444  70.536  1.00  0.00    -0.189 C  
HETATM    8  H   UNL     1     -12.168   6.395  70.544  1.00  0.00     0.000 HD 
HETATM    9  O   UNL     1     -11.463   6.099  71.107  1.00  0.00    -0.302 OA 
BRANCH   7  10
HETATM   10  C   UNL     1     -10.182   7.979  70.311  1.00  0.00    -0.200 C  
HETATM   11  H   UNL     1     -11.468   9.420  70.270  1.00  0.00     0.000 HD 
HETATM   12  O   UNL     1     -11.494   8.480  70.408  1.00  0.00    -0.233 OA 
BRANCH  10  13
HETATM   13  C   UNL     1      -9.589   8.387  68.934  1.00  0.00    -0.153 C  
HETATM   14  H   UNL     1     -10.079   9.557  67.464  1.00  0.00     0.000 HD 
HETATM   15  O   UNL     1     -10.443   9.308  68.306  1.00  0.00    -0.209 OA 
BRANCH  13  16
HETATM   16  C   UNL     1      -8.219   9.017  69.034  1.00  0.00    -0.119 C  
HETATM   17  O   UNL     1      -7.520   8.794  70.010  1.00  0.00    -0.050 OA 
BRANCH  16  18
HETATM   18  O   UNL     1      -7.756   9.833  68.066  1.00  0.00    -0.083 OA 
BRANCH  18  19
HETATM   19 CA   UNL     1      -9.059  10.126  66.047  1.00  0.00    -0.136 Ca 
BRANCH  19  20
HETATM   20  O   UNL     1     -10.361  10.419  64.029  1.00  0.00    -0.209 OA 
BRANCH  20  21
HETATM   21  C   UNL     1     -11.119  11.522  64.161  1.00  0.00    -0.344 C  
HETATM   22  O   UNL     1     -11.679  11.951  63.167  1.00  0.00    -0.330 OA 
BRANCH  21  23
HETATM   23  C   UNL     1     -11.148  12.320  65.445  1.00  0.00    -0.311 C  
HETATM   24  H   UNL     1     -12.027  12.174  67.157  1.00  0.00     0.000 HD 
HETATM   25  O   UNL     1     -12.009  11.673  66.351  1.00  0.00    -0.433 OA 
BRANCH  23  26
HETATM   26  C   UNL     1     -11.605  13.801  65.280  1.00  0.00    -0.321 C  
HETATM   27  H   UNL     1     -13.285  14.768  65.227  1.00  0.00     0.000 HD 
HETATM   28  O   UNL     1     -13.007  13.865  65.328  1.00  0.00    -0.747 OA 
BRANCH  26  29
HETATM   29  C   UNL     1     -10.997  14.856  66.268  1.00  0.00    -0.338 C  
BRANCH  29  30
HETATM   30  O   UNL     1     -11.961  15.049  67.293  1.00  0.00    -0.252 OA 
BRANCH  30  31
HETATM   31  C   UNL     1     -11.585  14.611  68.582  1.00  0.00    -0.314 C  
HETATM   32  O   UNL     1     -12.398  13.521  68.984  1.00  0.00    -0.252 OA 
HETATM   33  C   UNL     1     -12.020  13.061  70.273  1.00  0.00    -0.285 C  
HETATM   34  H   UNL     1     -11.133  17.648  69.745  1.00  0.00     0.000 HD 
HETATM   35  C   UNL     1     -12.320  14.149  71.337  1.00  0.00    -0.344 C  
HETATM   36  O   UNL     1     -13.689  14.471  71.341  1.00  0.00    -0.375 OA 
HETATM   37  C   UNL     1     -11.491  15.404  70.993  1.00  0.00    -0.364 C  
HETATM   38  O   UNL     1     -11.007  16.913  69.158  1.00  0.00    -0.277 OA 
HETATM   39  H   UNL     1     -13.873  15.137  71.992  1.00  0.00     0.000 HD 
HETATM   40  O   UNL     1     -11.794  16.477  71.850  1.00  0.00    -0.658 OA 
HETATM   41  C   UNL     1     -11.792  15.811  69.541  1.00  0.00    -0.347 C  
HETATM   42  H   UNL     1     -11.284  17.250  71.638  1.00  0.00     0.000 HD 
BRANCH  33  43
HETATM   43  C   UNL     1     -12.778  11.754  70.550  1.00  0.00    -0.050 C  
HETATM   44  O   UNL     1     -12.412  11.205  71.788  1.00  0.00    -0.237 OA 
HETATM   45  H   UNL     1     -12.881  10.398  71.959  1.00  0.00     0.000 HD 
ENDBRANCH  33  43
ENDBRANCH  30  31
ENDBRANCH  29  30
BRANCH  29  46
HETATM   46  C   UNL     1     -10.539  16.213  65.626  1.00  0.00    -0.363 C  
HETATM   47  O   UNL     1     -11.020  16.336  64.308  1.00  0.00    -1.086 OA 
HETATM   48  H   UNL     1     -10.743  17.157  63.920  1.00  0.00     0.000 HD 
BRANCH  46  49
HETATM   49  C   UNL     1      -9.024  16.506  65.726  1.00  0.00     0.029 C  
HETATM   50  H   UNL     1      -7.866  18.013  66.184  1.00  0.00     0.000 HD 
HETATM   51  O   UNL     1      -8.798  17.833  66.122  1.00  0.00    -0.451 OA 
ENDBRANCH  46  49
ENDBRANCH  29  46
ENDBRANCH  26  29
ENDBRANCH  23  26
ENDBRANCH  21  23
ENDBRANCH  20  21
ENDBRANCH  19  20
ENDBRANCH  18  19
ENDBRANCH  16  18
ENDBRANCH  13  16
ENDBRANCH  10  13
ENDBRANCH   7  10
ENDBRANCH   4   7
ENDBRANCH   2   4
TORSDOF 17
ENDMDL
MODEL      135
REMARK 921   NORMALIZED FREE ENERGY PREDICTED BY IDOCK:   -5.09 KCAL/MOL
REMARK 922        TOTAL FREE ENERGY PREDICTED BY IDOCK:  -13.59 KCAL/MOL
REMARK 923 INTER-LIGAND FREE ENERGY PREDICTED BY IDOCK:  -10.80 KCAL/MOL
REMARK 924 INTRA-LIGAND FREE ENERGY PREDICTED BY IDOCK:   -2.78 KCAL/MOL
REMARK 927      BINDING AFFINITY PREDICTED BY RF-SCORE:    0.00 PKD
ROOT
HETATM    1  O   UNL     1     -11.633   6.393  68.894  1.00  0.00    -0.576 OA 
HETATM    2  C   UNL     1     -10.638   5.714  68.176  1.00  0.00    -0.183 C  
HETATM    3  H   UNL     1     -12.247   6.792  68.289  1.00  0.00     0.000 HD 
ENDROOT
BRANCH   2   4
HETATM    4  C   UNL     1      -9.643   5.069  69.156  1.00  0.00    -0.154 C  
HETATM    5  O   UNL     1      -8.334   5.264  68.684  1.00  0.00    -0.090 OA 
HETATM    6  H   UNL     1      -7.719   4.866  69.289  1.00  0.00     0.000 HD 
BRANCH   4   7
HETATM    7  C   UNL     1      -9.775   5.669  70.580  1.00  0.00    -0.180 C  
HETATM    8  H   UNL     1     -11.036   5.570  72.056  1.00  0.00     0.000 HD 
HETATM    9  O   UNL     1     -10.956   5.201  71.184  1.00  0.00    -0.070 OA 
BRANCH   7  10
HETATM   10  C   UNL     1      -8.566   5.298  71.480  1.00  0.00    -0.130 C  
HETATM   11  H   UNL     1      -7.329   3.821  71.616  1.00  0.00     0.000 HD 
HETATM   12  O   UNL     1      -8.069   4.048  71.065  1.00  0.00    -0.062 OA 
BRANCH  10  13
HETATM   13  C   UNL     1      -8.920   5.221  72.991  1.00  0.00    -0.119 C  
HETATM   14  H   UNL     1      -8.120   4.492  74.604  1.00  0.00     0.000 HD 
HETATM   15  O   UNL     1      -7.904   4.539  73.680  1.00  0.00    -0.088 OA 
BRANCH  13  16
HETATM   16  C   UNL     1      -9.089   6.576  73.637  1.00  0.00    -0.132 C  
HETATM   17  O   UNL     1      -8.191   7.401  73.558  1.00  0.00    -0.114 OA 
BRANCH  16  18
HETATM   18  O   UNL     1     -10.213   6.891  74.312  1.00  0.00    -0.349 OA 
BRANCH  18  19
HETATM   19 CA   UNL     1     -11.812   8.401  73.301  1.00  0.00    -0.377 Ca 
BRANCH  19  20
HETATM   20  O   UNL     1     -13.410   9.910  72.289  1.00  0.00    -0.435 OA 
BRANCH  20  21
HETATM   21  C   UNL     1     -12.779  10.645  71.357  1.00  0.00    -0.440 C  
HETATM   22  O   UNL     1     -12.940  11.853  71.378  1.00  0.00    -0.385 OA 
BRANCH  21  23
HETATM   23  C   UNL     1     -12.034  10.005  70.207  1.00  0.00    -0.187 C  
HETATM   24  H   UNL     1     -11.123   8.332  69.895  1.00  0.00     0.000 HD 
HETATM   25  O   UNL     1     -11.590   8.734  70.617  1.00  0.00    -0.270 OA 
BRANCH  23  26
HETATM   26  C   UNL     1     -10.816  10.824  69.684  1.00  0.00    -0.241 C  
HETATM   27  H   UNL     1      -8.893  10.591  69.578  1.00  0.00     0.000 HD 
HETATM   28  O   UNL     1      -9.636  10.092  69.896  1.00  0.00    -0.226 OA 
BRANCH  26  29
HETATM   29  C   UNL     1     -10.866  11.321  68.198  1.00  0.00    -0.217 C  
BRANCH  29  30
HETATM   30  O   UNL     1     -12.066  12.070  68.066  1.00  0.00    -0.514 OA 
BRANCH  30  31
HETATM   31  C   UNL     1     -12.026  13.136  67.139  1.00  0.00    -0.341 C  
HETATM   32  O   UNL     1     -11.937  12.630  65.818  1.00  0.00    -0.423 OA 
HETATM   33  C   UNL     1     -11.912  13.691  64.875  1.00  0.00    -0.383 C  
HETATM   34  H   UNL     1     -10.049  14.992  68.990  1.00  0.00     0.000 HD 
HETATM   35  C   UNL     1     -10.609  14.517  65.035  1.00  0.00    -0.437 C  
HETATM   36  O   UNL     1      -9.480  13.699  64.846  1.00  0.00    -0.347 OA 
HETATM   37  C   UNL     1     -10.587  15.115  66.457  1.00  0.00    -0.304 C  
HETATM   38  O   UNL     1     -10.821  14.478  68.786  1.00  0.00    -0.232 OA 
HETATM   39  H   UNL     1      -8.682  14.205  64.944  1.00  0.00     0.000 HD 
HETATM   40  O   UNL     1      -9.379  15.786  66.720  1.00  0.00    -0.218 OA 
HETATM   41  C   UNL     1     -10.766  13.974  67.473  1.00  0.00    -0.268 C  
HETATM   42  H   UNL     1      -9.366  16.154  67.595  1.00  0.00     0.000 HD 
BRANCH  33  43
HETATM   43  C   UNL     1     -12.042  13.080  63.471  1.00  0.00    -0.542 C  
HETATM   44  O   UNL     1     -12.962  12.022  63.459  1.00  0.00    -0.774 OA 
HETATM   45  H   UNL     1     -13.043  11.645  62.591  1.00  0.00     0.000 HD 
ENDBRANCH  33  43
ENDBRANCH  30  31
ENDBRANCH  29  30
BRANCH  29  46
HETATM   46  C   UNL     1     -10.741  10.209  67.098  1.00  0.00    -0.221 C  
HETATM   47  O   UNL     1     -10.708   8.926  67.679  1.00  0.00    -0.406 OA 
HETATM   48  H   UNL     1     -10.633   8.253  67.013  1.00  0.00     0.000 HD 
BRANCH  46  49
HETATM   49  C   UNL     1      -9.596  10.420  66.080  1.00  0.00    -0.196 C  
HETATM   50  H   UNL     1      -7.981  11.510  65.923  1.00  0.00     0.000 HD 
HETATM   51  O   UNL     1      -8.685  11.380  66.548  1.00  0.00    -0.172 OA 
ENDBRANCH  46  49
ENDBRANCH  29  46
ENDBRANCH  26  29
ENDBRANCH  23  26
ENDBRANCH  21  23
ENDBRANCH  20  21
ENDBRANCH  19  20
ENDBRANCH  18  19
ENDBRANCH  16  18
ENDBRANCH  13  16
ENDBRANCH  10  13
ENDBRANCH   7  10
ENDBRANCH   4   7
ENDBRANCH   2   4
TORSDOF 17
ENDMDL
MODEL      136
REMARK 921   NORMALIZED FREE ENERGY PREDICTED BY IDOCK:   -5.08 KCAL/MOL
REMARK 922        TOTAL FREE ENERGY PREDICTED BY IDOCK:  -13.58 KCAL/MOL
REMARK 923 INTER-LIGAND FREE ENERGY PREDICTED BY IDOCK:   -9.47 KCAL/MOL
REMARK 924 INTRA-LIGAND FREE ENERGY PREDICTED BY IDOCK:   -4.11 KCAL/MOL
REMARK 927      BINDING AFFINITY PREDICTED BY RF-SCORE:    0.00 PKD
ROOT
HETATM    1  O   UNL     1      -9.354  18.849  67.179  1.00  0.00    -0.291 OA 
HETATM    2  C   UNL     1     -10.585  18.327  67.600  1.00  0.00    -0.405 C  
HETATM    3  H   UNL     1      -9.404  19.797  67.145  1.00  0.00     0.000 HD 
ENDROOT
BRANCH   2   4
HETATM    4  C   UNL     1     -10.504  16.791  67.654  1.00  0.00    -0.328 C  
HETATM    5  O   UNL     1     -11.448  16.309  68.576  1.00  0.00    -0.371 OA 
HETATM    6  H   UNL     1     -11.399  15.360  68.610  1.00  0.00     0.000 HD 
BRANCH   4   7
HETATM    7  C   UNL     1     -10.770  16.158  66.263  1.00  0.00    -0.213 C  
HETATM    8  H   UNL     1     -10.025  16.291  64.472  1.00  0.00     0.000 HD 
HETATM    9  O   UNL     1      -9.862  16.679  65.323  1.00  0.00    -0.496 OA 
BRANCH   7  10
HETATM   10  C   UNL     1     -10.634  14.612  66.294  1.00  0.00    -0.306 C  
HETATM   11  H   UNL     1      -9.983  13.244  65.096  1.00  0.00     0.000 HD 
HETATM   12  O   UNL     1     -10.066  14.190  65.077  1.00  0.00    -0.383 OA 
BRANCH  10  13
HETATM   13  C   UNL     1     -11.986  13.876  66.500  1.00  0.00    -0.439 C  
HETATM   14  H   UNL     1     -13.126  12.682  65.477  1.00  0.00     0.000 HD 
HETATM   15  O   UNL     1     -12.299  13.132  65.350  1.00  0.00    -0.433 OA 
BRANCH  13  16
HETATM   16  C   UNL     1     -11.981  12.929  67.677  1.00  0.00    -0.289 C  
HETATM   17  O   UNL     1     -11.881  13.374  68.811  1.00  0.00    -0.318 OA 
BRANCH  16  18
HETATM   18  O   UNL     1     -12.073  11.596  67.500  1.00  0.00    -0.611 OA 
BRANCH  18  19
HETATM   19 CA   UNL     1     -12.471  10.176  69.419  1.00  0.00    -0.453 Ca 
BRANCH  19  20
HETATM   20  O   UNL     1     -12.868   8.756  71.337  1.00  0.00    -0.322 OA 
BRANCH  20  21
HETATM   21  C   UNL     1     -11.686   8.437  71.891  1.00  0.00    -0.334 C  
HETATM   22  O   UNL     1     -11.672   8.133  73.072  1.00  0.00    -0.286 OA 
BRANCH  21  23
HETATM   23  C   UNL     1     -10.383   8.613  71.144  1.00  0.00    -0.230 C  
HETATM   24  H   UNL     1      -9.701   9.811  69.793  1.00  0.00     0.000 HD 
HETATM   25  O   UNL     1     -10.519   9.700  70.262  1.00  0.00    -0.242 OA 
BRANCH  23  26
HETATM   26  C   UNL     1      -9.920   7.360  70.339  1.00  0.00    -0.188 C  
HETATM   27  H   UNL     1     -10.534   6.365  68.792  1.00  0.00     0.000 HD 
HETATM   28  O   UNL     1     -10.816   7.128  69.283  1.00  0.00    -0.225 OA 
BRANCH  26  29
HETATM   29  C   UNL     1      -8.451   7.358  69.793  1.00  0.00    -0.136 C  
BRANCH  29  30
HETATM   30  O   UNL     1      -8.548   7.453  68.379  1.00  0.00    -0.124 OA 
BRANCH  30  31
HETATM   31  C   UNL     1      -8.010   8.625  67.802  1.00  0.00    -0.107 C  
HETATM   32  O   UNL     1      -7.542   9.498  68.817  1.00  0.00    -0.074 OA 
HETATM   33  C   UNL     1      -6.984  10.674  68.250  1.00  0.00    -0.072 C  
HETATM   34  H   UNL     1     -10.351   8.865  65.514  1.00  0.00     0.000 HD 
HETATM   35  C   UNL     1      -8.089  11.500  67.543  1.00  0.00    -0.137 C  
HETATM   36  O   UNL     1      -9.099  11.857  68.454  1.00  0.00    -0.187 OA 
HETATM   37  C   UNL     1      -8.688  10.639  66.411  1.00  0.00    -0.149 C  
HETATM   38  O   UNL     1      -9.649   8.451  66.001  1.00  0.00    -0.207 OA 
HETATM   39  H   UNL     1      -9.776  12.363  68.020  1.00  0.00     0.000 HD 
HETATM   40  O   UNL     1      -9.778  11.279  65.793  1.00  0.00    -0.209 OA 
HETATM   41  C   UNL     1      -9.156   9.301  67.007  1.00  0.00    -0.130 C  
HETATM   42  H   UNL     1     -10.147  10.748  65.097  1.00  0.00     0.000 HD 
BRANCH  33  43
HETATM   43  C   UNL     1      -6.301  11.464  69.377  1.00  0.00    -0.100 C  
HETATM   44  O   UNL     1      -6.873  11.172  70.624  1.00  0.00    -0.434 OA 
HETATM   45  H   UNL     1      -6.450  11.660  71.320  1.00  0.00     0.000 HD 
ENDBRANCH  33  43
ENDBRANCH  30  31
ENDBRANCH  29  30
BRANCH  29  46
HETATM   46  C   UNL     1      -7.552   6.153  70.243  1.00  0.00    -0.096 C  
HETATM   47  O   UNL     1      -6.185   6.483  70.159  1.00  0.00    -0.033 OA 
HETATM   48  H   UNL     1      -5.642   5.754  70.431  1.00  0.00     0.000 HD 
BRANCH  46  49
HETATM   49  C   UNL     1      -7.872   4.805  69.555  1.00  0.00    -0.066 C  
HETATM   50  H   UNL     1      -7.944   2.913  70.039  1.00  0.00     0.000 HD 
HETATM   51  O   UNL     1      -7.748   3.741  70.462  1.00  0.00    -0.044 OA 
ENDBRANCH  46  49
ENDBRANCH  29  46
ENDBRANCH  26  29
ENDBRANCH  23  26
ENDBRANCH  21  23
ENDBRANCH  20  21
ENDBRANCH  19  20
ENDBRANCH  18  19
ENDBRANCH  16  18
ENDBRANCH  13  16
ENDBRANCH  10  13
ENDBRANCH   7  10
ENDBRANCH   4   7
ENDBRANCH   2   4
TORSDOF 17
ENDMDL
MODEL      137
REMARK 921   NORMALIZED FREE ENERGY PREDICTED BY IDOCK:   -5.07 KCAL/MOL
REMARK 922        TOTAL FREE ENERGY PREDICTED BY IDOCK:  -13.55 KCAL/MOL
REMARK 923 INTER-LIGAND FREE ENERGY PREDICTED BY IDOCK:  -11.08 KCAL/MOL
REMARK 924 INTRA-LIGAND FREE ENERGY PREDICTED BY IDOCK:   -2.47 KCAL/MOL
REMARK 927      BINDING AFFINITY PREDICTED BY RF-SCORE:    0.00 PKD
ROOT
HETATM    1  O   UNL     1     -10.161  10.536  64.878  1.00  0.00    -0.328 OA 
HETATM    2  C   UNL     1      -9.045   9.808  64.441  1.00  0.00    -0.248 C  
HETATM    3  H   UNL     1     -10.908  10.338  64.325  1.00  0.00     0.000 HD 
ENDROOT
BRANCH   2   4
HETATM    4  C   UNL     1      -7.836  10.129  65.336  1.00  0.00    -0.142 C  
HETATM    5  O   UNL     1      -8.015  11.394  65.922  1.00  0.00    -0.365 OA 
HETATM    6  H   UNL     1      -7.268  11.592  66.475  1.00  0.00     0.000 HD 
BRANCH   4   7
HETATM    7  C   UNL     1      -7.653   9.064  66.450  1.00  0.00    -0.092 C  
HETATM    8  H   UNL     1      -6.930   9.000  68.253  1.00  0.00     0.000 HD 
HETATM    9  O   UNL     1      -7.042   9.653  67.572  1.00  0.00    -0.086 OA 
BRANCH   7  10
HETATM   10  C   UNL     1      -9.006   8.438  66.882  1.00  0.00    -0.145 C  
HETATM   11  H   UNL     1     -10.218   8.627  68.374  1.00  0.00     0.000 HD 
HETATM   12  O   UNL     1      -9.390   9.010  68.109  1.00  0.00    -0.141 OA 
BRANCH  10  13
HETATM   13  C   UNL     1      -8.950   6.894  67.043  1.00  0.00    -0.120 C  
HETATM   14  H   UNL     1      -8.567   5.624  68.462  1.00  0.00     0.000 HD 
HETATM   15  O   UNL     1      -8.600   6.569  68.363  1.00  0.00    -0.119 OA 
BRANCH  13  16
HETATM   16  C   UNL     1     -10.260   6.210  66.727  1.00  0.00    -0.206 C  
HETATM   17  O   UNL     1     -10.298   5.342  65.870  1.00  0.00    -0.143 OA 
BRANCH  16  18
HETATM   18  O   UNL     1     -11.395   6.550  67.370  1.00  0.00    -0.304 OA 
BRANCH  18  19
HETATM   19 CA   UNL     1     -11.781   8.871  67.935  1.00  0.00    -0.477 Ca 
BRANCH  19  20
HETATM   20  O   UNL     1     -12.167  11.192  68.500  1.00  0.00    -0.600 OA 
BRANCH  20  21
HETATM   21  C   UNL     1     -11.245  11.947  67.878  1.00  0.00    -0.263 C  
HETATM   22  O   UNL     1     -10.084  11.838  68.234  1.00  0.00    -0.186 OA 
BRANCH  21  23
HETATM   23  C   UNL     1     -11.632  13.026  66.892  1.00  0.00    -0.366 C  
HETATM   24  H   UNL     1     -12.669  13.123  65.266  1.00  0.00     0.000 HD 
HETATM   25  O   UNL     1     -12.426  12.446  65.886  1.00  0.00    -0.583 OA 
BRANCH  23  26
HETATM   26  C   UNL     1     -10.430  13.764  66.229  1.00  0.00    -0.291 C  
HETATM   27  H   UNL     1      -9.332  13.543  64.645  1.00  0.00     0.000 HD 
HETATM   28  O   UNL     1     -10.065  13.093  65.049  1.00  0.00    -0.284 OA 
BRANCH  26  29
HETATM   29  C   UNL     1     -10.598  15.294  65.933  1.00  0.00    -0.335 C  
BRANCH  29  30
HETATM   30  O   UNL     1     -11.313  15.839  67.033  1.00  0.00    -0.160 OA 
BRANCH  30  31
HETATM   31  C   UNL     1     -10.709  16.945  67.673  1.00  0.00    -0.290 C  
HETATM   32  O   UNL     1     -10.628  18.042  66.778  1.00  0.00    -0.344 OA 
HETATM   33  C   UNL     1     -10.036  19.165  67.413  1.00  0.00    -0.379 C  
HETATM   34  H   UNL     1      -8.464  15.125  69.230  1.00  0.00     0.000 HD 
HETATM   35  C   UNL     1      -8.554  18.866  67.754  1.00  0.00    -0.292 C  
HETATM   36  O   UNL     1      -7.831  18.557  66.586  1.00  0.00    -0.234 OA 
HETATM   37  C   UNL     1      -8.512  17.666  68.724  1.00  0.00    -0.213 C  
HETATM   38  O   UNL     1      -9.335  15.399  68.972  1.00  0.00    -0.201 OA 
HETATM   39  H   UNL     1      -6.923  18.373  66.795  1.00  0.00     0.000 HD 
HETATM   40  O   UNL     1      -7.193  17.260  68.992  1.00  0.00    -0.244 OA 
HETATM   41  C   UNL     1      -9.286  16.497  68.093  1.00  0.00    -0.218 C  
HETATM   42  H   UNL     1      -7.168  16.522  69.589  1.00  0.00     0.000 HD 
BRANCH  33  43
HETATM   43  C   UNL     1     -10.183  20.372  66.473  1.00  0.00    -0.234 C  
HETATM   44  O   UNL     1     -11.049  20.086  65.408  1.00  0.00    -0.267 OA 
HETATM   45  H   UNL     1     -11.139  20.832  64.827  1.00  0.00     0.000 HD 
ENDBRANCH  33  43
ENDBRANCH  30  31
ENDBRANCH  29  30
BRANCH  29  46
HETATM   46  C   UNL     1     -11.261  15.659  64.559  1.00  0.00    -0.325 C  
HETATM   47  O   UNL     1     -11.250  17.052  64.346  1.00  0.00    -1.167 OA 
HETATM   48  H   UNL     1     -11.651  17.272  63.515  1.00  0.00     0.000 HD 
BRANCH  46  49
HETATM   49  C   UNL     1     -12.660  15.043  64.323  1.00  0.00     0.076 C  
HETATM   50  H   UNL     1     -13.508  13.814  63.061  1.00  0.00     0.000 HD 
HETATM   51  O   UNL     1     -12.649  14.193  63.206  1.00  0.00    -0.766 OA 
ENDBRANCH  46  49
ENDBRANCH  29  46
ENDBRANCH  26  29
ENDBRANCH  23  26
ENDBRANCH  21  23
ENDBRANCH  20  21
ENDBRANCH  19  20
ENDBRANCH  18  19
ENDBRANCH  16  18
ENDBRANCH  13  16
ENDBRANCH  10  13
ENDBRANCH   7  10
ENDBRANCH   4   7
ENDBRANCH   2   4
TORSDOF 17
ENDMDL
MODEL      138
REMARK 921   NORMALIZED FREE ENERGY PREDICTED BY IDOCK:   -5.04 KCAL/MOL
REMARK 922        TOTAL FREE ENERGY PREDICTED BY IDOCK:  -13.49 KCAL/MOL
REMARK 923 INTER-LIGAND FREE ENERGY PREDICTED BY IDOCK:   -9.38 KCAL/MOL
REMARK 924 INTRA-LIGAND FREE ENERGY PREDICTED BY IDOCK:   -4.11 KCAL/MOL
REMARK 927      BINDING AFFINITY PREDICTED BY RF-SCORE:    0.00 PKD
ROOT
HETATM    1  O   UNL     1     -13.120  11.798  71.554  1.00  0.00    -0.407 OA 
HETATM    2  C   UNL     1     -12.939  10.446  71.875  1.00  0.00    -0.450 C  
HETATM    3  H   UNL     1     -13.805  12.167  72.099  1.00  0.00     0.000 HD 
ENDROOT
BRANCH   2   4
HETATM    4  C   UNL     1     -11.829   9.849  70.994  1.00  0.00    -0.376 C  
HETATM    5  O   UNL     1     -11.066  10.891  70.438  1.00  0.00    -0.464 OA 
HETATM    6  H   UNL     1     -10.380  10.522  69.893  1.00  0.00     0.000 HD 
BRANCH   4   7
HETATM    7  C   UNL     1     -10.901   8.906  71.805  1.00  0.00    -0.365 C  
HETATM    8  H   UNL     1     -11.058   7.744  73.356  1.00  0.00     0.000 HD 
HETATM    9  O   UNL     1     -11.627   8.321  72.859  1.00  0.00    -0.351 OA 
BRANCH   7  10
HETATM   10  C   UNL     1     -10.299   7.782  70.921  1.00  0.00    -0.200 C  
HETATM   11  H   UNL     1      -9.720   7.608  69.087  1.00  0.00     0.000 HD 
HETATM   12  O   UNL     1     -10.089   8.297  69.628  1.00  0.00    -0.190 OA 
BRANCH  10  13
HETATM   13  C   UNL     1     -11.204   6.523  70.820  1.00  0.00    -0.321 C  
HETATM   14  H   UNL     1     -12.159   5.566  69.425  1.00  0.00     0.000 HD 
HETATM   15  O   UNL     1     -11.606   6.336  69.487  1.00  0.00    -0.423 OA 
BRANCH  13  16
HETATM   16  C   UNL     1     -10.523   5.256  71.280  1.00  0.00    -0.204 C  
HETATM   17  O   UNL     1     -10.661   4.879  72.434  1.00  0.00    -0.209 OA 
BRANCH  16  18
HETATM   18  O   UNL     1      -9.752   4.535  70.442  1.00  0.00    -0.181 OA 
BRANCH  18  19
HETATM   19 CA   UNL     1      -8.573   5.667  68.657  1.00  0.00    -0.099 Ca 
BRANCH  19  20
HETATM   20  O   UNL     1      -7.394   6.800  66.873  1.00  0.00    -0.078 OA 
BRANCH  20  21
HETATM   21  C   UNL     1      -8.285   7.190  65.946  1.00  0.00    -0.132 C  
HETATM   22  O   UNL     1      -8.859   6.324  65.307  1.00  0.00    -0.069 OA 
BRANCH  21  23
HETATM   23  C   UNL     1      -8.457   8.644  65.567  1.00  0.00    -0.165 C  
HETATM   24  H   UNL     1      -8.406   9.675  63.937  1.00  0.00     0.000 HD 
HETATM   25  O   UNL     1      -8.298   8.762  64.175  1.00  0.00    -0.170 OA 
BRANCH  23  26
HETATM   26  C   UNL     1      -7.472   9.622  66.277  1.00  0.00    -0.098 C  
HETATM   27  H   UNL     1      -6.102  10.886  65.743  1.00  0.00     0.000 HD 
HETATM   28  O   UNL     1      -6.702  10.290  65.310  1.00  0.00    -0.124 OA 
BRANCH  26  29
HETATM   29  C   UNL     1      -8.086  10.665  67.273  1.00  0.00    -0.116 C  
BRANCH  29  30
HETATM   30  O   UNL     1      -7.906  11.942  66.679  1.00  0.00    -0.115 OA 
BRANCH  30  31
HETATM   31  C   UNL     1      -9.041  12.785  66.677  1.00  0.00    -0.187 C  
HETATM   32  O   UNL     1      -9.490  13.001  68.004  1.00  0.00    -0.204 OA 
HETATM   33  C   UNL     1     -10.621  13.859  68.018  1.00  0.00    -0.248 C  
HETATM   34  H   UNL     1     -10.384  11.375  64.034  1.00  0.00     0.000 HD 
HETATM   35  C   UNL     1     -11.827  13.163  67.336  1.00  0.00    -0.361 C  
HETATM   36  O   UNL     1     -12.145  11.964  67.999  1.00  0.00    -0.541 OA 
HETATM   37  C   UNL     1     -11.448  12.863  65.870  1.00  0.00    -0.346 C  
HETATM   38  O   UNL     1      -9.712  11.819  64.536  1.00  0.00    -0.223 OA 
HETATM   39  H   UNL     1     -12.884  11.538  67.581  1.00  0.00     0.000 HD 
HETATM   40  O   UNL     1     -12.451  12.128  65.214  1.00  0.00    -0.520 OA 
HETATM   41  C   UNL     1     -10.137  12.060  65.856  1.00  0.00    -0.236 C  
HETATM   42  H   UNL     1     -12.218  11.944  64.312  1.00  0.00     0.000 HD 
BRANCH  33  43
HETATM   43  C   UNL     1     -10.916  14.230  69.480  1.00  0.00    -0.169 C  
HETATM   44  O   UNL     1     -12.237  13.915  69.828  1.00  0.00    -0.330 OA 
HETATM   45  H   UNL     1     -12.420  14.144  70.732  1.00  0.00     0.000 HD 
ENDBRANCH  33  43
ENDBRANCH  30  31
ENDBRANCH  29  30
BRANCH  29  46
HETATM   46  C   UNL     1      -7.538  10.616  68.743  1.00  0.00    -0.109 C  
HETATM   47  O   UNL     1      -8.567  10.854  69.674  1.00  0.00    -0.370 OA 
HETATM   48  H   UNL     1      -8.236  10.824  70.563  1.00  0.00     0.000 HD 
BRANCH  46  49
HETATM   49  C   UNL     1      -6.295  11.497  69.007  1.00  0.00    -0.069 C  
HETATM   50  H   UNL     1      -5.219  12.063  70.538  1.00  0.00     0.000 HD 
HETATM   51  O   UNL     1      -5.983  11.521  70.375  1.00  0.00    -0.153 OA 
ENDBRANCH  46  49
ENDBRANCH  29  46
ENDBRANCH  26  29
ENDBRANCH  23  26
ENDBRANCH  21  23
ENDBRANCH  20  21
ENDBRANCH  19  20
ENDBRANCH  18  19
ENDBRANCH  16  18
ENDBRANCH  13  16
ENDBRANCH  10  13
ENDBRANCH   7  10
ENDBRANCH   4   7
ENDBRANCH   2   4
TORSDOF 17
ENDMDL
MODEL      139
REMARK 921   NORMALIZED FREE ENERGY PREDICTED BY IDOCK:   -5.03 KCAL/MOL
REMARK 922        TOTAL FREE ENERGY PREDICTED BY IDOCK:  -13.47 KCAL/MOL
REMARK 923 INTER-LIGAND FREE ENERGY PREDICTED BY IDOCK:  -10.03 KCAL/MOL
REMARK 924 INTRA-LIGAND FREE ENERGY PREDICTED BY IDOCK:   -3.45 KCAL/MOL
REMARK 927      BINDING AFFINITY PREDICTED BY RF-SCORE:    0.00 PKD
ROOT
HETATM    1  O   UNL     1     -14.158  15.383  70.841  1.00  0.00    -0.823 OA 
HETATM    2  C   UNL     1     -13.396  14.427  71.527  1.00  0.00    -0.355 C  
HETATM    3  H   UNL     1     -14.975  15.532  71.303  1.00  0.00     0.000 HD 
ENDROOT
BRANCH   2   4
HETATM    4  C   UNL     1     -12.074  14.186  70.779  1.00  0.00    -0.349 C  
HETATM    5  O   UNL     1     -11.965  12.822  70.456  1.00  0.00    -0.493 OA 
HETATM    6  H   UNL     1     -11.148  12.674  69.994  1.00  0.00     0.000 HD 
BRANCH   4   7
HETATM    7  C   UNL     1     -11.990  15.033  69.482  1.00  0.00    -0.313 C  
HETATM    8  H   UNL     1     -11.189  16.717  68.931  1.00  0.00     0.000 HD 
HETATM    9  O   UNL     1     -11.240  16.198  69.725  1.00  0.00    -0.323 OA 
BRANCH   7  10
HETATM   10  C   UNL     1     -11.336  14.246  68.316  1.00  0.00    -0.289 C  
HETATM   11  H   UNL     1      -9.538  13.827  67.750  1.00  0.00     0.000 HD 
HETATM   12  O   UNL     1      -9.938  14.309  68.464  1.00  0.00    -0.226 OA 
BRANCH  10  13
HETATM   13  C   UNL     1     -11.718  14.789  66.911  1.00  0.00    -0.302 C  
HETATM   14  H   UNL     1     -10.806  15.617  65.410  1.00  0.00     0.000 HD 
HETATM   15  O   UNL     1     -10.572  15.285  66.269  1.00  0.00    -0.294 OA 
BRANCH  13  16
HETATM   16  C   UNL     1     -12.339  13.745  66.013  1.00  0.00    -0.457 C  
HETATM   17  O   UNL     1     -13.163  14.079  65.176  1.00  0.00    -0.768 OA 
BRANCH  16  18
HETATM   18  O   UNL     1     -12.007  12.443  66.125  1.00  0.00    -0.549 OA 
BRANCH  18  19
HETATM   19 CA   UNL     1     -12.405  11.301  68.221  1.00  0.00    -0.282 Ca 
BRANCH  19  20
HETATM   20  O   UNL     1     -12.802  10.159  70.317  1.00  0.00    -0.179 OA 
BRANCH  20  21
HETATM   21  C   UNL     1     -11.697   9.470  70.649  1.00  0.00    -0.262 C  
HETATM   22  O   UNL     1     -10.874  10.019  71.362  1.00  0.00    -0.140 OA 
BRANCH  21  23
HETATM   23  C   UNL     1     -11.380   8.126  70.031  1.00  0.00     0.000 C  
HETATM   24  H   UNL     1     -12.065   6.328  70.178  1.00  0.00     0.000 HD 
HETATM   25  O   UNL     1     -12.264   7.171  70.566  1.00  0.00    -0.244 OA 
BRANCH  23  26
HETATM   26  C   UNL     1      -9.915   7.640  70.247  1.00  0.00    -0.189 C  
HETATM   27  H   UNL     1      -9.025   6.207  71.203  1.00  0.00     0.000 HD 
HETATM   28  O   UNL     1      -9.918   6.503  71.072  1.00  0.00    -0.183 OA 
BRANCH  26  29
HETATM   29  C   UNL     1      -9.054   7.359  68.967  1.00  0.00    -0.133 C  
BRANCH  29  30
HETATM   30  O   UNL     1      -8.460   8.597  68.603  1.00  0.00    -0.127 OA 
BRANCH  30  31
HETATM   31  C   UNL     1      -8.886   9.144  67.371  1.00  0.00    -0.118 C  
HETATM   32  O   UNL     1      -8.043   8.697  66.322  1.00  0.00    -0.100 OA 
HETATM   33  C   UNL     1      -8.469   9.228  65.076  1.00  0.00    -0.163 C  
HETATM   34  H   UNL     1      -9.550  12.099  68.637  1.00  0.00     0.000 HD 
HETATM   35  C   UNL     1      -8.282  10.767  65.060  1.00  0.00    -0.005 C  
HETATM   36  O   UNL     1      -6.932  11.103  65.272  1.00  0.00    -0.325 OA 
HETATM   37  C   UNL     1      -9.152  11.372  66.181  1.00  0.00    -0.207 C  
HETATM   38  O   UNL     1      -9.608  11.155  68.553  1.00  0.00    -0.181 OA 
HETATM   39  H   UNL     1      -6.819  12.046  65.262  1.00  0.00     0.000 HD 
HETATM   40  O   UNL     1      -8.949  12.758  66.305  1.00  0.00    -0.424 OA 
HETATM   41  C   UNL     1      -8.791  10.685  67.509  1.00  0.00    -0.132 C  
HETATM   42  H   UNL     1      -9.485  13.130  66.995  1.00  0.00     0.000 HD 
BRANCH  33  43
HETATM   43  C   UNL     1      -7.663   8.534  63.966  1.00  0.00    -0.137 C  
HETATM   44  O   UNL     1      -8.376   7.460  63.414  1.00  0.00    -0.358 OA 
HETATM   45  H   UNL     1      -7.879   7.032  62.728  1.00  0.00     0.000 HD 
ENDBRANCH  33  43
ENDBRANCH  30  31
ENDBRANCH  29  30
BRANCH  29  46
HETATM   46  C   UNL     1      -9.809   6.690  67.765  1.00  0.00    -0.124 C  
HETATM   47  O   UNL     1     -11.017   6.103  68.191  1.00  0.00    -0.311 OA 
HETATM   48  H   UNL     1     -11.474   5.698  67.464  1.00  0.00     0.000 HD 
BRANCH  46  49
HETATM   49  C   UNL     1      -8.956   5.721  66.914  1.00  0.00    -0.114 C  
HETATM   50  H   UNL     1      -8.834   5.158  65.046  1.00  0.00     0.000 HD 
HETATM   51  O   UNL     1      -9.358   5.754  65.569  1.00  0.00    -0.055 OA 
ENDBRANCH  46  49
ENDBRANCH  29  46
ENDBRANCH  26  29
ENDBRANCH  23  26
ENDBRANCH  21  23
ENDBRANCH  20  21
ENDBRANCH  19  20
ENDBRANCH  18  19
ENDBRANCH  16  18
ENDBRANCH  13  16
ENDBRANCH  10  13
ENDBRANCH   7  10
ENDBRANCH   4   7
ENDBRANCH   2   4
TORSDOF 17
ENDMDL
MODEL      140
REMARK 921   NORMALIZED FREE ENERGY PREDICTED BY IDOCK:   -5.03 KCAL/MOL
REMARK 922        TOTAL FREE ENERGY PREDICTED BY IDOCK:  -13.46 KCAL/MOL
REMARK 923 INTER-LIGAND FREE ENERGY PREDICTED BY IDOCK:  -11.24 KCAL/MOL
REMARK 924 INTRA-LIGAND FREE ENERGY PREDICTED BY IDOCK:   -2.22 KCAL/MOL
REMARK 927      BINDING AFFINITY PREDICTED BY RF-SCORE:    0.00 PKD
ROOT
HETATM    1  O   UNL     1      -5.803  16.539  68.983  1.00  0.00    -0.136 OA 
HETATM    2  C   UNL     1      -5.633  17.635  69.840  1.00  0.00    -0.238 C  
HETATM    3  H   UNL     1      -5.184  15.855  69.211  1.00  0.00     0.000 HD 
ENDROOT
BRANCH   2   4
HETATM    4  C   UNL     1      -6.636  18.741  69.471  1.00  0.00    -0.200 C  
HETATM    5  O   UNL     1      -5.937  19.856  68.976  1.00  0.00    -0.242 OA 
HETATM    6  H   UNL     1      -6.557  20.539  68.748  1.00  0.00     0.000 HD 
BRANCH   4   7
HETATM    7  C   UNL     1      -7.655  18.255  68.407  1.00  0.00    -0.290 C  
HETATM    8  H   UNL     1      -9.178  17.048  68.340  1.00  0.00     0.000 HD 
HETATM    9  O   UNL     1      -8.554  17.346  68.993  1.00  0.00    -0.189 OA 
BRANCH   7  10
HETATM   10  C   UNL     1      -8.456  19.432  67.791  1.00  0.00    -0.310 C  
HETATM   11  H   UNL     1     -10.152  20.294  68.126  1.00  0.00     0.000 HD 
HETATM   12  O   UNL     1      -9.661  19.573  68.503  1.00  0.00    -0.370 OA 
BRANCH  10  13
HETATM   13  C   UNL     1      -8.782  19.237  66.284  1.00  0.00    -0.321 C  
HETATM   14  H   UNL     1      -8.051  18.238  64.788  1.00  0.00     0.000 HD 
HETATM   15  O   UNL     1      -7.851  18.358  65.709  1.00  0.00    -0.510 OA 
BRANCH  13  16
HETATM   16  C   UNL     1     -10.163  18.678  66.037  1.00  0.00    -0.353 C  
HETATM   17  O   UNL     1     -11.006  19.367  65.483  1.00  0.00    -0.411 OA 
BRANCH  16  18
HETATM   18  O   UNL     1     -10.489  17.429  66.428  1.00  0.00    -0.326 OA 
BRANCH  18  19
HETATM   19 CA   UNL     1     -11.329  15.862  64.786  1.00  0.00    -0.331 Ca 
BRANCH  19  20
HETATM   20  O   UNL     1     -12.168  14.294  63.146  1.00  0.00    -0.364 OA 
BRANCH  20  21
HETATM   21  C   UNL     1     -11.886  13.046  63.557  1.00  0.00    -0.516 C  
HETATM   22  O   UNL     1     -12.745  12.191  63.420  1.00  0.00    -0.722 OA 
BRANCH  21  23
HETATM   23  C   UNL     1     -10.624  12.726  64.326  1.00  0.00    -0.400 C  
HETATM   24  H   UNL     1      -9.503  11.176  64.585  1.00  0.00     0.000 HD 
HETATM   25  O   UNL     1     -10.296  11.377  64.102  1.00  0.00    -0.285 OA 
BRANCH  23  26
HETATM   26  C   UNL     1     -10.716  12.979  65.862  1.00  0.00    -0.276 C  
HETATM   27  H   UNL     1     -12.016  13.710  67.101  1.00  0.00     0.000 HD 
HETATM   28  O   UNL     1     -11.960  13.556  66.165  1.00  0.00    -0.368 OA 
BRANCH  26  29
HETATM   29  C   UNL     1     -10.459  11.756  66.809  1.00  0.00    -0.225 C  
BRANCH  29  30
HETATM   30  O   UNL     1     -11.584  11.673  67.671  1.00  0.00    -0.428 OA 
BRANCH  30  31
HETATM   31  C   UNL     1     -11.315  11.261  68.996  1.00  0.00    -0.278 C  
HETATM   32  O   UNL     1     -11.417   9.851  69.099  1.00  0.00    -0.108 OA 
HETATM   33  C   UNL     1     -11.134   9.422  70.423  1.00  0.00    -0.261 C  
HETATM   34  H   UNL     1     -12.956  13.755  70.361  1.00  0.00     0.000 HD 
HETATM   35  C   UNL     1     -12.227   9.937  71.395  1.00  0.00    -0.408 C  
HETATM   36  O   UNL     1     -13.493   9.459  71.012  1.00  0.00    -0.556 OA 
HETATM   37  C   UNL     1     -12.219  11.480  71.359  1.00  0.00     0.019 C  
HETATM   38  O   UNL     1     -12.306  13.341  69.807  1.00  0.00    -0.240 OA 
HETATM   39  H   UNL     1     -14.162   9.775  71.608  1.00  0.00     0.000 HD 
HETATM   40  O   UNL     1     -13.262  12.022  72.132  1.00  0.00    -0.495 OA 
HETATM   41  C   UNL     1     -12.376  11.938  69.900  1.00  0.00    -0.099 C  
HETATM   42  H   UNL     1     -13.256  12.972  72.110  1.00  0.00     0.000 HD 
BRANCH  33  43
HETATM   43  C   UNL     1     -11.041   7.889  70.414  1.00  0.00    -0.245 C  
HETATM   44  O   UNL     1      -9.738   7.458  70.126  1.00  0.00    -0.175 OA 
HETATM   45  H   UNL     1      -9.681   6.511  70.121  1.00  0.00     0.000 HD 
ENDBRANCH  33  43
ENDBRANCH  30  31
ENDBRANCH  29  30
BRANCH  29  46
HETATM   46  C   UNL     1      -9.106  11.776  67.604  1.00  0.00    -0.177 C  
HETATM   47  O   UNL     1      -8.577  13.080  67.668  1.00  0.00    -0.165 OA 
HETATM   48  H   UNL     1      -7.759  13.093  68.149  1.00  0.00     0.000 HD 
BRANCH  46  49
HETATM   49  C   UNL     1      -8.057  10.741  67.137  1.00  0.00    -0.124 C  
HETATM   50  H   UNL     1      -7.760   8.814  67.277  1.00  0.00     0.000 HD 
HETATM   51  O   UNL     1      -8.405   9.450  67.564  1.00  0.00    -0.120 OA 
ENDBRANCH  46  49
ENDBRANCH  29  46
ENDBRANCH  26  29
ENDBRANCH  23  26
ENDBRANCH  21  23
ENDBRANCH  20  21
ENDBRANCH  19  20
ENDBRANCH  18  19
ENDBRANCH  16  18
ENDBRANCH  13  16
ENDBRANCH  10  13
ENDBRANCH   7  10
ENDBRANCH   4   7
ENDBRANCH   2   4
TORSDOF 17
ENDMDL
MODEL      141
REMARK 921   NORMALIZED FREE ENERGY PREDICTED BY IDOCK:   -5.01 KCAL/MOL
REMARK 922        TOTAL FREE ENERGY PREDICTED BY IDOCK:  -13.43 KCAL/MOL
REMARK 923 INTER-LIGAND FREE ENERGY PREDICTED BY IDOCK:   -9.75 KCAL/MOL
REMARK 924 INTRA-LIGAND FREE ENERGY PREDICTED BY IDOCK:   -3.68 KCAL/MOL
REMARK 927      BINDING AFFINITY PREDICTED BY RF-SCORE:    0.00 PKD
ROOT
HETATM    1  O   UNL     1     -11.039   6.728  72.693  1.00  0.00    -0.250 OA 
HETATM    2  C   UNL     1     -11.476   8.045  72.493  1.00  0.00    -0.409 C  
HETATM    3  H   UNL     1     -10.857   6.589  73.615  1.00  0.00     0.000 HD 
ENDROOT
BRANCH   2   4
HETATM    4  C   UNL     1     -11.772   8.271  71.000  1.00  0.00    -0.270 C  
HETATM    5  O   UNL     1     -12.819   9.200  70.869  1.00  0.00    -0.509 OA 
HETATM    6  H   UNL     1     -13.002   9.339  69.947  1.00  0.00     0.000 HD 
BRANCH   4   7
HETATM    7  C   UNL     1     -10.521   8.791  70.244  1.00  0.00    -0.208 C  
HETATM    8  H   UNL     1      -8.638   9.076  70.633  1.00  0.00     0.000 HD 
HETATM    9  O   UNL     1      -9.403   8.756  71.097  1.00  0.00    -0.189 OA 
BRANCH   7  10
HETATM   10  C   UNL     1     -10.217   7.947  68.977  1.00  0.00    -0.209 C  
HETATM   11  H   UNL     1     -10.551   8.104  67.081  1.00  0.00     0.000 HD 
HETATM   12  O   UNL     1     -10.737   8.621  67.857  1.00  0.00    -0.194 OA 
BRANCH  10  13
HETATM   13  C   UNL     1     -10.819   6.516  69.028  1.00  0.00    -0.306 C  
HETATM   14  H   UNL     1     -11.581   5.248  67.769  1.00  0.00     0.000 HD 
HETATM   15  O   UNL     1     -11.213   6.124  67.738  1.00  0.00    -0.294 OA 
BRANCH  13  16
HETATM   16  C   UNL     1      -9.856   5.478  69.554  1.00  0.00    -0.189 C  
HETATM   17  O   UNL     1     -10.210   4.721  70.445  1.00  0.00    -0.243 OA 
BRANCH  16  18
HETATM   18  O   UNL     1      -8.604   5.379  69.066  1.00  0.00    -0.101 OA 
BRANCH  18  19
HETATM   19 CA   UNL     1      -7.867   6.953  67.382  1.00  0.00    -0.092 Ca 
BRANCH  19  20
HETATM   20  O   UNL     1      -7.130   8.526  65.698  1.00  0.00    -0.076 OA 
BRANCH  20  21
HETATM   21  C   UNL     1      -6.632   9.614  66.311  1.00  0.00    -0.071 C  
HETATM   22  O   UNL     1      -5.718   9.453  67.102  1.00  0.00    -0.044 OA 
BRANCH  21  23
HETATM   23  C   UNL     1      -7.280  10.973  66.174  1.00  0.00    -0.054 C  
HETATM   24  H   UNL     1      -6.851  12.781  66.698  1.00  0.00     0.000 HD 
HETATM   25  O   UNL     1      -6.444  11.927  66.784  1.00  0.00    -0.128 OA 
BRANCH  23  26
HETATM   26  C   UNL     1      -8.707  11.079  66.793  1.00  0.00    -0.152 C  
HETATM   27  H   UNL     1      -9.471  11.306  68.560  1.00  0.00     0.000 HD 
HETATM   28  O   UNL     1      -8.601  11.241  68.184  1.00  0.00    -0.137 OA 
BRANCH  26  29
HETATM   29  C   UNL     1      -9.666  12.172  66.207  1.00  0.00    -0.238 C  
BRANCH  29  30
HETATM   30  O   UNL     1     -10.951  11.913  66.753  1.00  0.00    -0.263 OA 
BRANCH  30  31
HETATM   31  C   UNL     1     -11.570  12.999  67.413  1.00  0.00    -0.356 C  
HETATM   32  O   UNL     1     -10.779  14.168  67.275  1.00  0.00    -0.275 OA 
HETATM   33  C   UNL     1     -11.397  15.271  67.921  1.00  0.00    -0.334 C  
HETATM   34  H   UNL     1     -12.524  11.202  69.989  1.00  0.00     0.000 HD 
HETATM   35  C   UNL     1     -11.436  15.038  69.453  1.00  0.00    -0.300 C  
HETATM   36  O   UNL     1     -10.135  14.871  69.961  1.00  0.00    -0.466 OA 
HETATM   37  C   UNL     1     -12.270  13.769  69.729  1.00  0.00    -0.310 C  
HETATM   38  O   UNL     1     -12.454  11.441  69.073  1.00  0.00    -0.364 OA 
HETATM   39  H   UNL     1     -10.159  14.728  70.900  1.00  0.00     0.000 HD 
HETATM   40  O   UNL     1     -12.257  13.426  71.093  1.00  0.00    -0.383 OA 
HETATM   41  C   UNL     1     -11.685  12.608  68.908  1.00  0.00    -0.325 C  
HETATM   42  H   UNL     1     -12.771  12.645  71.263  1.00  0.00     0.000 HD 
BRANCH  33  43
HETATM   43  C   UNL     1     -10.613  16.538  67.547  1.00  0.00    -0.313 C  
HETATM   44  O   UNL     1     -10.681  17.499  68.566  1.00  0.00    -0.330 OA 
HETATM   45  H   UNL     1     -10.196  18.282  68.335  1.00  0.00     0.000 HD 
ENDBRANCH  33  43
ENDBRANCH  30  31
ENDBRANCH  29  30
BRANCH  29  46
HETATM   46  C   UNL     1      -9.701  12.287  64.642  1.00  0.00     0.002 C  
HETATM   47  O   UNL     1     -10.022  13.599  64.240  1.00  0.00    -0.749 OA 
HETATM   48  H   UNL     1     -10.043  13.669  63.293  1.00  0.00     0.000 HD 
BRANCH  46  49
HETATM   49  C   UNL     1     -10.571  11.227  63.928  1.00  0.00    -0.391 C  
HETATM   50  H   UNL     1     -10.340   9.447  63.153  1.00  0.00     0.000 HD 
HETATM   51  O   UNL     1      -9.806  10.099  63.592  1.00  0.00    -0.232 OA 
ENDBRANCH  46  49
ENDBRANCH  29  46
ENDBRANCH  26  29
ENDBRANCH  23  26
ENDBRANCH  21  23
ENDBRANCH  20  21
ENDBRANCH  19  20
ENDBRANCH  18  19
ENDBRANCH  16  18
ENDBRANCH  13  16
ENDBRANCH  10  13
ENDBRANCH   7  10
ENDBRANCH   4   7
ENDBRANCH   2   4
TORSDOF 17
ENDMDL
MODEL      142
REMARK 921   NORMALIZED FREE ENERGY PREDICTED BY IDOCK:   -5.01 KCAL/MOL
REMARK 922        TOTAL FREE ENERGY PREDICTED BY IDOCK:  -13.43 KCAL/MOL
REMARK 923 INTER-LIGAND FREE ENERGY PREDICTED BY IDOCK:  -12.09 KCAL/MOL
REMARK 924 INTRA-LIGAND FREE ENERGY PREDICTED BY IDOCK:   -1.34 KCAL/MOL
REMARK 927      BINDING AFFINITY PREDICTED BY RF-SCORE:    0.00 PKD
ROOT
HETATM    1  O   UNL     1     -14.040   9.018  73.225  1.00  0.00    -1.218 OA 
HETATM    2  C   UNL     1     -14.116   8.487  71.930  1.00  0.00    -0.447 C  
HETATM    3  H   UNL     1     -14.865   8.882  73.675  1.00  0.00     0.000 HD 
ENDROOT
BRANCH   2   4
HETATM    4  C   UNL     1     -12.779   8.706  71.201  1.00  0.00    -0.123 C  
HETATM    5  O   UNL     1     -12.861   9.873  70.422  1.00  0.00    -0.545 OA 
HETATM    6  H   UNL     1     -12.035  10.008  69.972  1.00  0.00     0.000 HD 
BRANCH   4   7
HETATM    7  C   UNL     1     -11.599   8.833  72.200  1.00  0.00    -0.364 C  
HETATM    8  H   UNL     1     -10.927   7.855  73.740  1.00  0.00     0.000 HD 
HETATM    9  O   UNL     1     -11.649   7.777  73.128  1.00  0.00    -0.273 OA 
BRANCH   7  10
HETATM   10  C   UNL     1     -10.224   8.808  71.480  1.00  0.00    -0.300 C  
HETATM   11  H   UNL     1      -9.513   9.457  69.806  1.00  0.00     0.000 HD 
HETATM   12  O   UNL     1     -10.355   9.472  70.247  1.00  0.00    -0.230 OA 
BRANCH  10  13
HETATM   13  C   UNL     1      -9.686   7.373  71.224  1.00  0.00    -0.165 C  
HETATM   14  H   UNL     1      -9.602   5.691  72.192  1.00  0.00     0.000 HD 
HETATM   15  O   UNL     1      -9.931   6.569  72.349  1.00  0.00    -0.170 OA 
BRANCH  13  16
HETATM   16  C   UNL     1     -10.316   6.701  70.027  1.00  0.00    -0.199 C  
HETATM   17  O   UNL     1     -11.286   5.975  70.181  1.00  0.00    -0.363 OA 
BRANCH  16  18
HETATM   18  O   UNL     1      -9.818   6.879  68.787  1.00  0.00    -0.146 OA 
BRANCH  18  19
HETATM   19 CA   UNL     1      -9.880   9.087  67.798  1.00  0.00    -0.140 Ca 
BRANCH  19  20
HETATM   20  O   UNL     1      -9.942  11.294  66.809  1.00  0.00    -0.199 OA 
BRANCH  20  21
HETATM   21  C   UNL     1      -9.865  12.210  67.790  1.00  0.00    -0.199 C  
HETATM   22  O   UNL     1      -8.783  12.385  68.324  1.00  0.00    -0.183 OA 
BRANCH  21  23
HETATM   23  C   UNL     1     -11.098  12.883  68.349  1.00  0.00    -0.262 C  
HETATM   24  H   UNL     1     -12.963  12.429  68.555  1.00  0.00     0.000 HD 
HETATM   25  O   UNL     1     -12.189  12.006  68.203  1.00  0.00    -0.428 OA 
BRANCH  23  26
HETATM   26  C   UNL     1     -11.451  14.249  67.685  1.00  0.00    -0.346 C  
HETATM   27  H   UNL     1     -12.536  14.862  66.200  1.00  0.00     0.000 HD 
HETATM   28  O   UNL     1     -12.321  14.030  66.604  1.00  0.00    -0.451 OA 
BRANCH  26  29
HETATM   29  C   UNL     1     -12.036  15.370  68.612  1.00  0.00    -0.216 C  
BRANCH  29  30
HETATM   30  O   UNL     1     -11.075  16.416  68.632  1.00  0.00    -0.338 OA 
BRANCH  30  31
HETATM   31  C   UNL     1      -9.817  16.106  68.068  1.00  0.00    -0.231 C  
HETATM   32  O   UNL     1      -8.841  15.989  69.090  1.00  0.00    -0.232 OA 
HETATM   33  C   UNL     1      -7.574  15.663  68.539  1.00  0.00    -0.132 C  
HETATM   34  H   UNL     1     -10.189  18.137  65.516  1.00  0.00     0.000 HD 
HETATM   35  C   UNL     1      -7.051  16.837  67.672  1.00  0.00    -0.134 C  
HETATM   36  O   UNL     1      -6.936  18.008  68.443  1.00  0.00    -0.219 OA 
HETATM   37  C   UNL     1      -8.050  17.069  66.519  1.00  0.00    -0.285 C  
HETATM   38  O   UNL     1     -10.413  17.422  66.099  1.00  0.00    -0.347 OA 
HETATM   39  H   UNL     1      -6.615  18.727  67.911  1.00  0.00     0.000 HD 
HETATM   40  O   UNL     1      -7.704  18.195  65.751  1.00  0.00    -0.523 OA 
HETATM   41  C   UNL     1      -9.452  17.273  67.117  1.00  0.00    -0.256 C  
HETATM   42  H   UNL     1      -8.319  18.338  65.041  1.00  0.00     0.000 HD 
BRANCH  33  43
HETATM   43  C   UNL     1      -6.623  15.332  69.700  1.00  0.00    -0.174 C  
HETATM   44  O   UNL     1      -6.981  14.128  70.324  1.00  0.00    -0.395 OA 
HETATM   45  H   UNL     1      -6.393  13.923  71.042  1.00  0.00     0.000 HD 
ENDBRANCH  33  43
ENDBRANCH  30  31
ENDBRANCH  29  30
BRANCH  29  46
HETATM   46  C   UNL     1     -12.448  14.920  70.058  1.00  0.00    -0.275 C  
HETATM   47  O   UNL     1     -13.756  15.342  70.365  1.00  0.00    -0.715 OA 
HETATM   48  H   UNL     1     -14.005  15.070  71.240  1.00  0.00     0.000 HD 
BRANCH  46  49
HETATM   49  C   UNL     1     -11.438  15.287  71.170  1.00  0.00    -0.369 C  
HETATM   50  H   UNL     1     -11.332  16.526  72.679  1.00  0.00     0.000 HD 
HETATM   51  O   UNL     1     -11.952  16.300  71.996  1.00  0.00    -0.500 OA 
ENDBRANCH  46  49
ENDBRANCH  29  46
ENDBRANCH  26  29
ENDBRANCH  23  26
ENDBRANCH  21  23
ENDBRANCH  20  21
ENDBRANCH  19  20
ENDBRANCH  18  19
ENDBRANCH  16  18
ENDBRANCH  13  16
ENDBRANCH  10  13
ENDBRANCH   7  10
ENDBRANCH   4   7
ENDBRANCH   2   4
TORSDOF 17
ENDMDL
MODEL      143
REMARK 921   NORMALIZED FREE ENERGY PREDICTED BY IDOCK:   -5.01 KCAL/MOL
REMARK 922        TOTAL FREE ENERGY PREDICTED BY IDOCK:  -13.42 KCAL/MOL
REMARK 923 INTER-LIGAND FREE ENERGY PREDICTED BY IDOCK:  -10.98 KCAL/MOL
REMARK 924 INTRA-LIGAND FREE ENERGY PREDICTED BY IDOCK:   -2.44 KCAL/MOL
REMARK 927      BINDING AFFINITY PREDICTED BY RF-SCORE:    0.00 PKD
ROOT
HETATM    1  O   UNL     1     -14.411  15.383  70.736  1.00  0.00    -0.842 OA 
HETATM    2  C   UNL     1     -13.354  15.287  71.652  1.00  0.00    -0.463 C  
HETATM    3  H   UNL     1     -15.181  15.728  71.171  1.00  0.00     0.000 HD 
ENDROOT
BRANCH   2   4
HETATM    4  C   UNL     1     -12.106  14.729  70.946  1.00  0.00    -0.324 C  
HETATM    5  O   UNL     1     -12.185  13.326  70.904  1.00  0.00    -0.398 OA 
HETATM    6  H   UNL     1     -11.414  12.981  70.468  1.00  0.00     0.000 HD 
BRANCH   4   7
HETATM    7  C   UNL     1     -11.972  15.283  69.503  1.00  0.00    -0.330 C  
HETATM    8  H   UNL     1     -10.904  16.624  68.587  1.00  0.00     0.000 HD 
HETATM    9  O   UNL     1     -10.986  16.285  69.471  1.00  0.00    -0.304 OA 
BRANCH   7  10
HETATM   10  C   UNL     1     -11.596  14.171  68.488  1.00  0.00    -0.316 C  
HETATM   11  H   UNL     1     -10.015  13.145  68.064  1.00  0.00     0.000 HD 
HETATM   12  O   UNL     1     -10.246  13.826  68.685  1.00  0.00    -0.232 OA 
BRANCH  10  13
HETATM   13  C   UNL     1     -11.795  14.593  67.006  1.00  0.00    -0.337 C  
HETATM   14  H   UNL     1     -10.711  15.352  65.585  1.00  0.00     0.000 HD 
HETATM   15  O   UNL     1     -10.589  15.094  66.491  1.00  0.00    -0.291 OA 
BRANCH  13  16
HETATM   16  C   UNL     1     -12.244  13.459  66.115  1.00  0.00    -0.415 C  
HETATM   17  O   UNL     1     -12.891  13.701  65.107  1.00  0.00    -0.687 OA 
BRANCH  16  18
HETATM   18  O   UNL     1     -11.954  12.178  66.417  1.00  0.00    -0.611 OA 
BRANCH  18  19
HETATM   19 CA   UNL     1     -12.727  11.259  68.518  1.00  0.00    -0.256 Ca 
BRANCH  19  20
HETATM   20  O   UNL     1     -13.500  10.339  70.619  1.00  0.00    -0.234 OA 
BRANCH  20  21
HETATM   21  C   UNL     1     -12.438   9.898  71.314  1.00  0.00    -0.381 C  
HETATM   22  O   UNL     1     -11.703  10.730  71.821  1.00  0.00     0.296 OA 
BRANCH  21  23
HETATM   23  C   UNL     1     -12.047   8.438  71.334  1.00  0.00    -0.301 C  
HETATM   24  H   UNL     1     -12.882   6.778  71.859  1.00  0.00     0.000 HD 
HETATM   25  O   UNL     1     -13.127   7.696  71.847  1.00  0.00    -0.310 OA 
BRANCH  23  26
HETATM   26  C   UNL     1     -10.770   8.117  72.167  1.00  0.00    -0.293 C  
HETATM   27  H   UNL     1     -10.365   7.544  73.975  1.00  0.00     0.000 HD 
HETATM   28  O   UNL     1     -11.144   7.740  73.468  1.00  0.00    -0.279 OA 
BRANCH  26  29
HETATM   29  C   UNL     1      -9.773   7.059  71.579  1.00  0.00    -0.165 C  
BRANCH  29  30
HETATM   30  O   UNL     1      -9.184   7.656  70.433  1.00  0.00    -0.156 OA 
BRANCH  30  31
HETATM   31  C   UNL     1      -9.996   7.702  69.277  1.00  0.00    -0.180 C  
HETATM   32  O   UNL     1      -9.763   6.560  68.471  1.00  0.00    -0.129 OA 
HETATM   33  C   UNL     1     -10.584   6.586  67.313  1.00  0.00    -0.315 C  
HETATM   34  H   UNL     1      -9.571  10.924  68.813  1.00  0.00     0.000 HD 
HETATM   35  C   UNL     1     -10.174   7.766  66.395  1.00  0.00     0.018 C  
HETATM   36  O   UNL     1      -8.826   7.646  66.008  1.00  0.00    -0.161 OA 
HETATM   37  C   UNL     1     -10.375   9.081  67.178  1.00  0.00    -0.272 C  
HETATM   38  O   UNL     1      -9.812  10.137  69.287  1.00  0.00    -0.197 OA 
HETATM   39  H   UNL     1      -8.576   8.370  65.446  1.00  0.00     0.000 HD 
HETATM   40  O   UNL     1      -9.917  10.194  66.451  1.00  0.00    -0.212 OA 
HETATM   41  C   UNL     1      -9.603   8.987  68.504  1.00  0.00    -0.153 C  
HETATM   42  H   UNL     1     -10.042  11.003  66.933  1.00  0.00     0.000 HD 
BRANCH  33  43
HETATM   43  C   UNL     1     -10.449   5.228  66.606  1.00  0.00    -0.290 C  
HETATM   44  O   UNL     1     -11.442   5.061  65.630  1.00  0.00    -0.821 OA 
HETATM   45  H   UNL     1     -11.358   4.222  65.193  1.00  0.00     0.000 HD 
ENDBRANCH  33  43
ENDBRANCH  30  31
ENDBRANCH  29  30
BRANCH  29  46
HETATM   46  C   UNL     1     -10.380   5.647  71.262  1.00  0.00    -0.228 C  
HETATM   47  O   UNL     1     -11.458   5.356  72.121  1.00  0.00    -0.161 OA 
HETATM   48  H   UNL     1     -11.825   4.502  71.930  1.00  0.00     0.000 HD 
BRANCH  46  49
HETATM   49  C   UNL     1      -9.354   4.492  71.200  1.00  0.00    -0.149 C  
HETATM   50  H   UNL     1      -7.974   3.717  72.348  1.00  0.00     0.000 HD 
HETATM   51  O   UNL     1      -8.605   4.426  72.386  1.00  0.00    -0.107 OA 
ENDBRANCH  46  49
ENDBRANCH  29  46
ENDBRANCH  26  29
ENDBRANCH  23  26
ENDBRANCH  21  23
ENDBRANCH  20  21
ENDBRANCH  19  20
ENDBRANCH  18  19
ENDBRANCH  16  18
ENDBRANCH  13  16
ENDBRANCH  10  13
ENDBRANCH   7  10
ENDBRANCH   4   7
ENDBRANCH   2   4
TORSDOF 17
ENDMDL
MODEL      144
REMARK 921   NORMALIZED FREE ENERGY PREDICTED BY IDOCK:   -5.00 KCAL/MOL
REMARK 922        TOTAL FREE ENERGY PREDICTED BY IDOCK:  -13.41 KCAL/MOL
REMARK 923 INTER-LIGAND FREE ENERGY PREDICTED BY IDOCK:  -11.09 KCAL/MOL
REMARK 924 INTRA-LIGAND FREE ENERGY PREDICTED BY IDOCK:   -2.32 KCAL/MOL
REMARK 927      BINDING AFFINITY PREDICTED BY RF-SCORE:    0.00 PKD
ROOT
HETATM    1  O   UNL     1     -10.890   8.130  67.489  1.00  0.00    -0.486 OA 
HETATM    2  C   UNL     1      -9.568   8.179  67.026  1.00  0.00    -0.196 C  
HETATM    3  H   UNL     1     -11.426   8.737  66.992  1.00  0.00     0.000 HD 
ENDROOT
BRANCH   2   4
HETATM    4  C   UNL     1      -8.700   7.197  67.831  1.00  0.00    -0.126 C  
HETATM    5  O   UNL     1      -7.537   6.898  67.100  1.00  0.00    -0.102 OA 
HETATM    6  H   UNL     1      -7.001   6.291  67.598  1.00  0.00     0.000 HD 
BRANCH   4   7
HETATM    7  C   UNL     1      -8.307   7.784  69.212  1.00  0.00    -0.136 C  
HETATM    8  H   UNL     1      -9.028   9.085  70.464  1.00  0.00     0.000 HD 
HETATM    9  O   UNL     1      -9.269   8.726  69.618  1.00  0.00    -0.146 OA 
BRANCH   7  10
HETATM   10  C   UNL     1      -8.190   6.681  70.299  1.00  0.00    -0.126 C  
HETATM   11  H   UNL     1      -7.552   4.860  70.377  1.00  0.00     0.000 HD 
HETATM   12  O   UNL     1      -7.623   5.535  69.711  1.00  0.00    -0.071 OA 
BRANCH  10  13
HETATM   13  C   UNL     1      -9.553   6.297  70.938  1.00  0.00    -0.176 C  
HETATM   14  H   UNL     1     -11.050   7.222  71.760  1.00  0.00     0.000 HD 
HETATM   15  O   UNL     1     -10.217   7.457  71.369  1.00  0.00    -0.188 OA 
BRANCH  13  16
HETATM   16  C   UNL     1     -10.472   5.559  69.994  1.00  0.00    -0.303 C  
HETATM   17  O   UNL     1     -10.285   4.373  69.770  1.00  0.00    -0.151 OA 
BRANCH  16  18
HETATM   18  O   UNL     1     -11.494   6.191  69.382  1.00  0.00    -0.423 OA 
BRANCH  18  19
HETATM   19 CA   UNL     1     -11.639   8.603  69.516  1.00  0.00    -0.412 Ca 
BRANCH  19  20
HETATM   20  O   UNL     1     -11.784  11.014  69.650  1.00  0.00    -0.269 OA 
BRANCH  20  21
HETATM   21  C   UNL     1     -11.624  11.526  68.418  1.00  0.00    -0.308 C  
HETATM   22  O   UNL     1     -11.893  10.814  67.465  1.00  0.00    -0.451 OA 
BRANCH  21  23
HETATM   23  C   UNL     1     -10.968  12.870  68.192  1.00  0.00    -0.248 C  
HETATM   24  H   UNL     1     -10.770  14.510  69.190  1.00  0.00     0.000 HD 
HETATM   25  O   UNL     1     -11.182  13.666  69.332  1.00  0.00    -0.249 OA 
BRANCH  23  26
HETATM   26  C   UNL     1     -11.474  13.637  66.933  1.00  0.00    -0.345 C  
HETATM   27  H   UNL     1     -12.939  14.831  66.496  1.00  0.00     0.000 HD 
HETATM   28  O   UNL     1     -12.631  14.363  67.264  1.00  0.00    -0.055 OA 
BRANCH  26  29
HETATM   29  C   UNL     1     -10.453  14.578  66.205  1.00  0.00    -0.298 C  
BRANCH  29  30
HETATM   30  O   UNL     1     -10.719  15.894  66.668  1.00  0.00    -0.316 OA 
BRANCH  30  31
HETATM   31  C   UNL     1      -9.628  16.791  66.634  1.00  0.00    -0.258 C  
HETATM   32  O   UNL     1      -8.964  16.799  67.887  1.00  0.00    -0.213 OA 
HETATM   33  C   UNL     1      -7.856  17.685  67.863  1.00  0.00    -0.221 C  
HETATM   34  H   UNL     1     -11.243  19.074  64.915  1.00  0.00     0.000 HD 
HETATM   35  C   UNL     1      -8.345  19.148  67.703  1.00  0.00    -0.290 C  
HETATM   36  O   UNL     1      -9.200  19.501  68.763  1.00  0.00    -0.366 OA 
HETATM   37  C   UNL     1      -9.102  19.261  66.363  1.00  0.00    -0.352 C  
HETATM   38  O   UNL     1     -10.887  18.213  65.099  1.00  0.00    -0.658 OA 
HETATM   39  H   UNL     1      -9.499  20.397  68.665  1.00  0.00     0.000 HD 
HETATM   40  O   UNL     1      -9.676  20.534  66.198  1.00  0.00    -0.648 OA 
HETATM   41  C   UNL     1     -10.210  18.195  66.333  1.00  0.00    -0.399 C  
HETATM   42  H   UNL     1     -10.142  20.604  65.373  1.00  0.00     0.000 HD 
BRANCH  33  43
HETATM   43  C   UNL     1      -7.057  17.479  69.160  1.00  0.00    -0.195 C  
HETATM   44  O   UNL     1      -6.426  18.665  69.563  1.00  0.00    -0.269 OA 
HETATM   45  H   UNL     1      -5.933  18.538  70.364  1.00  0.00     0.000 HD 
ENDBRANCH  33  43
ENDBRANCH  30  31
ENDBRANCH  29  30
BRANCH  29  46
HETATM   46  C   UNL     1     -10.440  14.495  64.638  1.00  0.00    -0.210 C  
HETATM   47  O   UNL     1     -11.376  15.386  64.077  1.00  0.00    -0.632 OA 
HETATM   48  H   UNL     1     -11.368  15.336  63.129  1.00  0.00     0.000 HD 
BRANCH  46  49
HETATM   49  C   UNL     1     -10.570  13.068  64.057  1.00  0.00    -0.344 C  
HETATM   50  H   UNL     1     -11.973  11.930  63.311  1.00  0.00     0.000 HD 
HETATM   51  O   UNL     1     -11.893  12.807  63.668  1.00  0.00    -0.453 OA 
ENDBRANCH  46  49
ENDBRANCH  29  46
ENDBRANCH  26  29
ENDBRANCH  23  26
ENDBRANCH  21  23
ENDBRANCH  20  21
ENDBRANCH  19  20
ENDBRANCH  18  19
ENDBRANCH  16  18
ENDBRANCH  13  16
ENDBRANCH  10  13
ENDBRANCH   7  10
ENDBRANCH   4   7
ENDBRANCH   2   4
TORSDOF 17
ENDMDL
MODEL      145
REMARK 921   NORMALIZED FREE ENERGY PREDICTED BY IDOCK:   -4.99 KCAL/MOL
REMARK 922        TOTAL FREE ENERGY PREDICTED BY IDOCK:  -13.39 KCAL/MOL
REMARK 923 INTER-LIGAND FREE ENERGY PREDICTED BY IDOCK:  -11.52 KCAL/MOL
REMARK 924 INTRA-LIGAND FREE ENERGY PREDICTED BY IDOCK:   -1.86 KCAL/MOL
REMARK 927      BINDING AFFINITY PREDICTED BY RF-SCORE:    0.00 PKD
ROOT
HETATM    1  O   UNL     1     -10.926   5.781  71.975  1.00  0.00    -0.245 OA 
HETATM    2  C   UNL     1     -10.994   5.440  70.617  1.00  0.00    -0.034 C  
HETATM    3  H   UNL     1     -10.790   4.998  72.495  1.00  0.00     0.000 HD 
ENDROOT
BRANCH   2   4
HETATM    4  C   UNL     1     -11.214   6.709  69.776  1.00  0.00    -0.356 C  
HETATM    5  O   UNL     1     -12.280   7.447  70.318  1.00  0.00    -0.526 OA 
HETATM    6  H   UNL     1     -12.416   8.231  69.799  1.00  0.00     0.000 HD 
BRANCH   4   7
HETATM    7  C   UNL     1      -9.941   7.594  69.735  1.00  0.00    -0.184 C  
HETATM    8  H   UNL     1      -8.016   7.323  69.803  1.00  0.00     0.000 HD 
HETATM    9  O   UNL     1      -8.796   6.781  69.828  1.00  0.00    -0.140 OA 
BRANCH   7  10
HETATM   10  C   UNL     1      -9.859   8.433  68.432  1.00  0.00    -0.176 C  
HETATM   11  H   UNL     1      -8.589   8.660  66.994  1.00  0.00     0.000 HD 
HETATM   12  O   UNL     1      -8.639   8.146  67.792  1.00  0.00    -0.130 OA 
BRANCH  10  13
HETATM   13  C   UNL     1      -9.951   9.964  68.675  1.00  0.00    -0.164 C  
HETATM   14  H   UNL     1     -10.882  11.157  69.892  1.00  0.00     0.000 HD 
HETATM   15  O   UNL     1     -10.826  10.221  69.743  1.00  0.00    -0.247 OA 
BRANCH  13  16
HETATM   16  C   UNL     1      -8.621  10.601  69.001  1.00  0.00    -0.146 C  
HETATM   17  O   UNL     1      -8.025  10.272  70.015  1.00  0.00    -0.148 OA 
BRANCH  16  18
HETATM   18  O   UNL     1      -8.082  11.539  68.197  1.00  0.00    -0.130 OA 
BRANCH  18  19
HETATM   19 CA   UNL     1      -8.091  13.851  68.913  1.00  0.00    -0.125 Ca 
BRANCH  19  20
HETATM   20  O   UNL     1      -8.098  16.163  69.629  1.00  0.00    -0.076 OA 
BRANCH  20  21
HETATM   21  C   UNL     1      -9.146  16.787  69.063  1.00  0.00    -0.191 C  
HETATM   22  O   UNL     1      -8.963  17.897  68.593  1.00  0.00    -0.291 OA 
BRANCH  21  23
HETATM   23  C   UNL     1     -10.549  16.228  69.150  1.00  0.00    -0.292 C  
HETATM   24  H   UNL     1     -11.929  16.130  70.496  1.00  0.00     0.000 HD 
HETATM   25  O   UNL     1     -11.048  16.480  70.441  1.00  0.00    -0.333 OA 
BRANCH  23  26
HETATM   26  C   UNL     1     -10.661  14.702  68.851  1.00  0.00    -0.253 C  
HETATM   27  H   UNL     1     -11.620  13.183  69.581  1.00  0.00     0.000 HD 
HETATM   28  O   UNL     1     -11.552  14.113  69.763  1.00  0.00    -0.271 OA 
BRANCH  26  29
HETATM   29  C   UNL     1     -11.048  14.281  67.391  1.00  0.00    -0.304 C  
BRANCH  29  30
HETATM   30  O   UNL     1     -11.575  12.965  67.479  1.00  0.00    -0.313 OA 
BRANCH  30  31
HETATM   31  C   UNL     1     -11.714  12.275  66.254  1.00  0.00    -0.366 C  
HETATM   32  O   UNL     1     -10.479  11.682  65.886  1.00  0.00    -0.239 OA 
HETATM   33  C   UNL     1     -10.608  10.971  64.664  1.00  0.00    -0.299 C  
HETATM   34  H   UNL     1     -13.612  14.581  64.891  1.00  0.00     0.000 HD 
HETATM   35  C   UNL     1     -10.897  11.957  63.502  1.00  0.00    -0.434 C  
HETATM   36  O   UNL     1      -9.859  12.900  63.386  1.00  0.00    -0.594 OA 
HETATM   37  C   UNL     1     -12.227  12.680  63.800  1.00  0.00    -0.514 C  
HETATM   38  O   UNL     1     -13.353  13.939  65.541  1.00  0.00    -0.662 OA 
HETATM   39  H   UNL     1     -10.037  13.504  62.674  1.00  0.00     0.000 HD 
HETATM   40  O   UNL     1     -12.502  13.676  62.846  1.00  0.00    -0.960 OA 
HETATM   41  C   UNL     1     -12.136  13.323  65.194  1.00  0.00    -0.413 C  
HETATM   42  H   UNL     1     -13.321  14.120  63.029  1.00  0.00     0.000 HD 
BRANCH  33  43
HETATM   43  C   UNL     1      -9.313  10.175  64.441  1.00  0.00    -0.293 C  
HETATM   44  O   UNL     1      -8.437  10.312  65.527  1.00  0.00    -0.149 OA 
HETATM   45  H   UNL     1      -7.637   9.819  65.389  1.00  0.00     0.000 HD 
ENDBRANCH  33  43
ENDBRANCH  30  31
ENDBRANCH  29  30
BRANCH  29  46
HETATM   46  C   UNL     1      -9.905  14.388  66.320  1.00  0.00    -0.304 C  
HETATM   47  O   UNL     1      -8.709  13.819  66.799  1.00  0.00    -0.382 OA 
HETATM   48  H   UNL     1      -8.018  13.884  66.152  1.00  0.00     0.000 HD 
BRANCH  46  49
HETATM   49  C   UNL     1      -9.687  15.803  65.736  1.00  0.00    -0.337 C  
HETATM   50  H   UNL     1     -10.347  16.869  64.236  1.00  0.00     0.000 HD 
HETATM   51  O   UNL     1     -10.481  16.000  64.596  1.00  0.00    -0.502 OA 
ENDBRANCH  46  49
ENDBRANCH  29  46
ENDBRANCH  26  29
ENDBRANCH  23  26
ENDBRANCH  21  23
ENDBRANCH  20  21
ENDBRANCH  19  20
ENDBRANCH  18  19
ENDBRANCH  16  18
ENDBRANCH  13  16
ENDBRANCH  10  13
ENDBRANCH   7  10
ENDBRANCH   4   7
ENDBRANCH   2   4
TORSDOF 17
ENDMDL
MODEL      146
REMARK 921   NORMALIZED FREE ENERGY PREDICTED BY IDOCK:   -4.99 KCAL/MOL
REMARK 922        TOTAL FREE ENERGY PREDICTED BY IDOCK:  -13.38 KCAL/MOL
REMARK 923 INTER-LIGAND FREE ENERGY PREDICTED BY IDOCK:   -9.41 KCAL/MOL
REMARK 924 INTRA-LIGAND FREE ENERGY PREDICTED BY IDOCK:   -3.97 KCAL/MOL
REMARK 927      BINDING AFFINITY PREDICTED BY RF-SCORE:    0.00 PKD
ROOT
HETATM    1  O   UNL     1      -9.009   7.683  69.874  1.00  0.00    -0.143 OA 
HETATM    2  C   UNL     1      -8.284   8.487  70.764  1.00  0.00    -0.130 C  
HETATM    3  H   UNL     1      -9.008   8.081  69.011  1.00  0.00     0.000 HD 
ENDROOT
BRANCH   2   4
HETATM    4  C   UNL     1      -8.286   7.844  72.161  1.00  0.00    -0.125 C  
HETATM    5  O   UNL     1      -7.250   8.402  72.931  1.00  0.00    -0.170 OA 
HETATM    6  H   UNL     1      -7.251   8.004  73.794  1.00  0.00     0.000 HD 
BRANCH   4   7
HETATM    7  C   UNL     1      -9.641   8.058  72.886  1.00  0.00    -0.279 C  
HETATM    8  H   UNL     1     -11.298   9.018  72.550  1.00  0.00     0.000 HD 
HETATM    9  O   UNL     1     -10.469   8.887  72.106  1.00  0.00    -0.336 OA 
BRANCH   7  10
HETATM   10  C   UNL     1     -10.375   6.717  73.151  1.00  0.00    -0.247 C  
HETATM   11  H   UNL     1     -10.757   5.616  74.691  1.00  0.00     0.000 HD 
HETATM   12  O   UNL     1     -10.308   6.437  74.529  1.00  0.00    -0.329 OA 
BRANCH  10  13
HETATM   13  C   UNL     1      -9.777   5.518  72.365  1.00  0.00    -0.154 C  
HETATM   14  H   UNL     1      -9.457   3.629  72.679  1.00  0.00     0.000 HD 
HETATM   15  O   UNL     1      -9.822   4.362  73.160  1.00  0.00    -0.132 OA 
BRANCH  13  16
HETATM   16  C   UNL     1     -10.507   5.223  71.075  1.00  0.00    -0.203 C  
HETATM   17  O   UNL     1     -10.059   4.389  70.304  1.00  0.00    -0.218 OA 
BRANCH  16  18
HETATM   18  O   UNL     1     -11.642   5.874  70.753  1.00  0.00    -0.168 OA 
BRANCH  18  19
HETATM   19 CA   UNL     1     -11.530   8.217  70.156  1.00  0.00    -0.262 Ca 
BRANCH  19  20
HETATM   20  O   UNL     1     -11.417  10.559  69.561  1.00  0.00    -0.246 OA 
BRANCH  20  21
HETATM   21  C   UNL     1     -11.440  10.666  68.221  1.00  0.00    -0.245 C  
HETATM   22  O   UNL     1     -12.272  11.404  67.722  1.00  0.00    -0.537 OA 
BRANCH  21  23
HETATM   23  C   UNL     1     -10.594   9.779  67.336  1.00  0.00    -0.267 C  
HETATM   24  H   UNL     1     -10.198   7.893  67.222  1.00  0.00     0.000 HD 
HETATM   25  O   UNL     1     -10.729   8.450  67.778  1.00  0.00    -0.196 OA 
BRANCH  23  26
HETATM   26  C   UNL     1      -9.080  10.151  67.300  1.00  0.00    -0.138 C  
HETATM   27  H   UNL     1      -7.516   9.618  66.285  1.00  0.00     0.000 HD 
HETATM   28  O   UNL     1      -8.438   9.391  66.308  1.00  0.00    -0.123 OA 
BRANCH  26  29
HETATM   29  C   UNL     1      -8.715  11.665  67.122  1.00  0.00    -0.164 C  
BRANCH  29  30
HETATM   30  O   UNL     1      -9.014  11.994  65.773  1.00  0.00    -0.068 OA 
BRANCH  30  31
HETATM   31  C   UNL     1      -9.663  13.233  65.571  1.00  0.00    -0.042 C  
HETATM   32  O   UNL     1     -10.302  13.649  66.767  1.00  0.00    -0.263 OA 
HETATM   33  C   UNL     1     -10.946  14.901  66.583  1.00  0.00    -0.325 C  
HETATM   34  H   UNL     1     -10.755  12.448  62.577  1.00  0.00     0.000 HD 
HETATM   35  C   UNL     1     -12.118  14.755  65.578  1.00  0.00    -0.137 C  
HETATM   36  O   UNL     1     -13.054  13.814  66.044  1.00  0.00    -0.323 OA 
HETATM   37  C   UNL     1     -11.540  14.288  64.225  1.00  0.00    -0.282 C  
HETATM   38  O   UNL     1     -10.110  12.584  63.260  1.00  0.00    -0.373 OA 
HETATM   39  H   UNL     1     -13.771  13.724  65.428  1.00  0.00     0.000 HD 
HETATM   40  O   UNL     1     -12.557  14.023  63.290  1.00  0.00    -1.073 OA 
HETATM   41  C   UNL     1     -10.716  13.011  64.456  1.00  0.00    -0.385 C  
HETATM   42  H   UNL     1     -12.201  13.736  62.457  1.00  0.00     0.000 HD 
BRANCH  33  43
HETATM   43  C   UNL     1     -11.420  15.396  67.958  1.00  0.00    -0.326 C  
HETATM   44  O   UNL     1     -12.391  14.542  68.500  1.00  0.00    -0.587 OA 
HETATM   45  H   UNL     1     -12.683  14.848  69.350  1.00  0.00     0.000 HD 
ENDBRANCH  33  43
ENDBRANCH  30  31
ENDBRANCH  29  30
BRANCH  29  46
HETATM   46  C   UNL     1      -7.251  12.069  67.518  1.00  0.00    -0.127 C  
HETATM   47  O   UNL     1      -6.310  11.219  66.906  1.00  0.00    -0.099 OA 
HETATM   48  H   UNL     1      -5.424  11.463  67.145  1.00  0.00     0.000 HD 
BRANCH  46  49
HETATM   49  C   UNL     1      -7.002  12.221  69.036  1.00  0.00    -0.078 C  
HETATM   50  H   UNL     1      -6.370  13.599  70.270  1.00  0.00     0.000 HD 
HETATM   51  O   UNL     1      -6.523  13.506  69.337  1.00  0.00    -0.105 OA 
ENDBRANCH  46  49
ENDBRANCH  29  46
ENDBRANCH  26  29
ENDBRANCH  23  26
ENDBRANCH  21  23
ENDBRANCH  20  21
ENDBRANCH  19  20
ENDBRANCH  18  19
ENDBRANCH  16  18
ENDBRANCH  13  16
ENDBRANCH  10  13
ENDBRANCH   7  10
ENDBRANCH   4   7
ENDBRANCH   2   4
TORSDOF 17
ENDMDL
MODEL      147
REMARK 921   NORMALIZED FREE ENERGY PREDICTED BY IDOCK:   -4.98 KCAL/MOL
REMARK 922        TOTAL FREE ENERGY PREDICTED BY IDOCK:  -13.38 KCAL/MOL
REMARK 923 INTER-LIGAND FREE ENERGY PREDICTED BY IDOCK:   -9.66 KCAL/MOL
REMARK 924 INTRA-LIGAND FREE ENERGY PREDICTED BY IDOCK:   -3.72 KCAL/MOL
REMARK 927      BINDING AFFINITY PREDICTED BY RF-SCORE:    0.00 PKD
ROOT
HETATM    1  O   UNL     1     -11.723  11.278  66.419  1.00  0.00    -0.268 OA 
HETATM    2  C   UNL     1     -11.407  11.832  65.171  1.00  0.00    -0.218 C  
HETATM    3  H   UNL     1     -12.285  10.521  66.300  1.00  0.00     0.000 HD 
ENDROOT
BRANCH   2   4
HETATM    4  C   UNL     1     -10.496  13.056  65.364  1.00  0.00    -0.296 C  
HETATM    5  O   UNL     1     -10.036  13.495  64.111  1.00  0.00    -0.760 OA 
HETATM    6  H   UNL     1      -9.473  14.252  64.230  1.00  0.00     0.000 HD 
BRANCH   4   7
HETATM    7  C   UNL     1     -11.241  14.215  66.077  1.00  0.00    -0.319 C  
HETATM    8  H   UNL     1     -13.087  14.724  66.418  1.00  0.00     0.000 HD 
HETATM    9  O   UNL     1     -12.630  14.014  65.982  1.00  0.00    -0.481 OA 
BRANCH   7  10
HETATM   10  C   UNL     1     -10.848  14.324  67.574  1.00  0.00    -0.280 C  
HETATM   11  H   UNL     1      -9.527  13.523  68.732  1.00  0.00     0.000 HD 
HETATM   12  O   UNL     1      -9.768  13.456  67.816  1.00  0.00    -0.204 OA 
BRANCH  10  13
HETATM   13  C   UNL     1     -12.007  13.968  68.546  1.00  0.00    -0.348 C  
HETATM   14  H   UNL     1     -12.654  12.386  69.468  1.00  0.00     0.000 HD 
HETATM   15  O   UNL     1     -11.945  12.604  68.874  1.00  0.00    -0.302 OA 
BRANCH  13  16
HETATM   16  C   UNL     1     -11.974  14.757  69.833  1.00  0.00    -0.328 C  
HETATM   17  O   UNL     1     -11.778  15.962  69.800  1.00  0.00    -0.332 OA 
BRANCH  16  18
HETATM   18  O   UNL     1     -12.148  14.152  71.026  1.00  0.00    -0.337 OA 
BRANCH  18  19
HETATM   19 CA   UNL     1     -12.941  11.867  71.083  1.00  0.00    -0.307 Ca 
BRANCH  19  20
HETATM   20  O   UNL     1     -13.735   9.581  71.140  1.00  0.00    -0.307 OA 
BRANCH  20  21
HETATM   21  C   UNL     1     -12.846   8.832  71.815  1.00  0.00    -0.360 C  
HETATM   22  O   UNL     1     -12.793   8.962  73.026  1.00  0.00    -0.271 OA 
BRANCH  21  23
HETATM   23  C   UNL     1     -11.817   7.982  71.103  1.00  0.00    -0.284 C  
HETATM   24  H   UNL     1     -10.276   6.939  71.614  1.00  0.00     0.000 HD 
HETATM   25  O   UNL     1     -10.922   7.473  72.061  1.00  0.00    -0.228 OA 
BRANCH  23  26
HETATM   26  C   UNL     1     -11.009   8.728  69.998  1.00  0.00    -0.209 C  
HETATM   27  H   UNL     1      -9.925  10.332  69.875  1.00  0.00     0.000 HD 
HETATM   28  O   UNL     1     -10.418   9.878  70.549  1.00  0.00    -0.284 OA 
BRANCH  26  29
HETATM   29  C   UNL     1      -9.928   7.904  69.217  1.00  0.00    -0.190 C  
BRANCH  29  30
HETATM   30  O   UNL     1      -8.693   8.580  69.406  1.00  0.00    -0.133 OA 
BRANCH  30  31
HETATM   31  C   UNL     1      -7.746   7.915  70.218  1.00  0.00    -0.088 C  
HETATM   32  O   UNL     1      -8.280   6.687  70.683  1.00  0.00    -0.121 OA 
HETATM   33  C   UNL     1      -7.333   6.001  71.488  1.00  0.00    -0.088 C  
HETATM   34  H   UNL     1      -6.742  10.659  71.714  1.00  0.00     0.000 HD 
HETATM   35  C   UNL     1      -7.064   6.796  72.791  1.00  0.00    -0.075 C  
HETATM   36  O   UNL     1      -8.256   6.968  73.519  1.00  0.00    -0.109 OA 
HETATM   37  C   UNL     1      -6.485   8.174  72.407  1.00  0.00    -0.078 C  
HETATM   38  O   UNL     1      -6.927  10.085  70.981  1.00  0.00    -0.339 OA 
HETATM   39  H   UNL     1      -8.091   7.456  74.318  1.00  0.00     0.000 HD 
HETATM   40  O   UNL     1      -6.321   9.001  73.533  1.00  0.00    -0.309 OA 
HETATM   41  C   UNL     1      -7.446   8.851  71.415  1.00  0.00    -0.079 C  
HETATM   42  H   UNL     1      -5.964   9.848  73.296  1.00  0.00     0.000 HD 
BRANCH  33  43
HETATM   43  C   UNL     1      -7.882   4.593  71.770  1.00  0.00    -0.098 C  
HETATM   44  O   UNL     1      -9.201   4.647  72.244  1.00  0.00    -0.124 OA 
HETATM   45  H   UNL     1      -9.541   3.778  72.418  1.00  0.00     0.000 HD 
ENDBRANCH  33  43
ENDBRANCH  30  31
ENDBRANCH  29  30
BRANCH  29  46
HETATM   46  C   UNL     1     -10.230   7.641  67.699  1.00  0.00    -0.214 C  
HETATM   47  O   UNL     1     -10.958   8.708  67.137  1.00  0.00    -0.387 OA 
HETATM   48  H   UNL     1     -11.140   8.550  66.219  1.00  0.00     0.000 HD 
BRANCH  46  49
HETATM   49  C   UNL     1     -10.869   6.268  67.387  1.00  0.00    -0.363 C  
HETATM   50  H   UNL     1     -11.123   4.551  68.285  1.00  0.00     0.000 HD 
HETATM   51  O   UNL     1     -10.730   5.394  68.477  1.00  0.00    -0.143 OA 
ENDBRANCH  46  49
ENDBRANCH  29  46
ENDBRANCH  26  29
ENDBRANCH  23  26
ENDBRANCH  21  23
ENDBRANCH  20  21
ENDBRANCH  19  20
ENDBRANCH  18  19
ENDBRANCH  16  18
ENDBRANCH  13  16
ENDBRANCH  10  13
ENDBRANCH   7  10
ENDBRANCH   4   7
ENDBRANCH   2   4
TORSDOF 17
ENDMDL
MODEL      148
REMARK 921   NORMALIZED FREE ENERGY PREDICTED BY IDOCK:   -4.97 KCAL/MOL
REMARK 922        TOTAL FREE ENERGY PREDICTED BY IDOCK:  -13.36 KCAL/MOL
REMARK 923 INTER-LIGAND FREE ENERGY PREDICTED BY IDOCK:  -11.25 KCAL/MOL
REMARK 924 INTRA-LIGAND FREE ENERGY PREDICTED BY IDOCK:   -2.10 KCAL/MOL
REMARK 927      BINDING AFFINITY PREDICTED BY RF-SCORE:    0.00 PKD
ROOT
HETATM    1  O   UNL     1      -6.439  14.718  67.881  1.00  0.00    -0.134 OA 
HETATM    2  C   UNL     1      -6.224  15.311  69.133  1.00  0.00    -0.108 C  
HETATM    3  H   UNL     1      -6.216  13.795  67.922  1.00  0.00     0.000 HD 
ENDROOT
BRANCH   2   4
HETATM    4  C   UNL     1      -6.586  16.804  69.067  1.00  0.00    -0.205 C  
HETATM    5  O   UNL     1      -5.554  17.504  68.417  1.00  0.00    -0.147 OA 
HETATM    6  H   UNL     1      -5.777  18.426  68.376  1.00  0.00     0.000 HD 
BRANCH   4   7
HETATM    7  C   UNL     1      -7.922  17.035  68.311  1.00  0.00    -0.222 C  
HETATM    8  H   UNL     1      -9.820  16.855  68.690  1.00  0.00     0.000 HD 
HETATM    9  O   UNL     1      -9.003  16.714  69.153  1.00  0.00    -0.239 OA 
BRANCH   7  10
HETATM   10  C   UNL     1      -8.072  18.503  67.833  1.00  0.00    -0.256 C  
HETATM   11  H   UNL     1      -9.057  20.063  68.404  1.00  0.00     0.000 HD 
HETATM   12  O   UNL     1      -8.965  19.164  68.697  1.00  0.00    -0.354 OA 
BRANCH  10  13
HETATM   13  C   UNL     1      -8.596  18.629  66.376  1.00  0.00    -0.271 C  
HETATM   14  H   UNL     1      -8.499  17.594  64.735  1.00  0.00     0.000 HD 
HETATM   15  O   UNL     1      -8.178  17.518  65.626  1.00  0.00    -0.505 OA 
BRANCH  13  16
HETATM   16  C   UNL     1     -10.102  18.711  66.285  1.00  0.00    -0.400 C  
HETATM   17  O   UNL     1     -10.623  19.661  65.723  1.00  0.00    -0.522 OA 
BRANCH  16  18
HETATM   18  O   UNL     1     -10.885  17.756  66.825  1.00  0.00    -0.197 OA 
BRANCH  18  19
HETATM   19 CA   UNL     1     -11.154  15.653  65.657  1.00  0.00    -0.303 Ca 
BRANCH  19  20
HETATM   20  O   UNL     1     -11.423  13.550  64.490  1.00  0.00    -0.353 OA 
BRANCH  20  21
HETATM   21  C   UNL     1     -12.242  12.761  65.206  1.00  0.00    -0.483 C  
HETATM   22  O   UNL     1     -13.274  12.381  64.679  1.00  0.00    -0.822 OA 
BRANCH  21  23
HETATM   23  C   UNL     1     -12.001  12.484  66.674  1.00  0.00    -0.281 C  
HETATM   24  H   UNL     1     -11.954  13.525  68.299  1.00  0.00     0.000 HD 
HETATM   25  O   UNL     1     -12.105  13.698  67.377  1.00  0.00    -0.380 OA 
BRANCH  23  26
HETATM   26  C   UNL     1     -10.625  11.827  66.994  1.00  0.00    -0.232 C  
HETATM   27  H   UNL     1      -8.977  12.348  67.873  1.00  0.00     0.000 HD 
HETATM   28  O   UNL     1      -9.816  12.749  67.677  1.00  0.00    -0.205 OA 
BRANCH  26  29
HETATM   29  C   UNL     1     -10.642  10.465  67.771  1.00  0.00    -0.250 C  
BRANCH  29  30
HETATM   30  O   UNL     1      -9.726  10.606  68.848  1.00  0.00    -0.186 OA 
BRANCH  30  31
HETATM   31  C   UNL     1     -10.140  10.058  70.083  1.00  0.00    -0.211 C  
HETATM   32  O   UNL     1      -9.924   8.656  70.091  1.00  0.00    -0.177 OA 
HETATM   33  C   UNL     1     -10.322   8.095  71.333  1.00  0.00    -0.208 C  
HETATM   34  H   UNL     1     -12.825  11.935  70.293  1.00  0.00     0.000 HD 
HETATM   35  C   UNL     1     -11.856   8.226  71.511  1.00  0.00    -0.293 C  
HETATM   36  O   UNL     1     -12.532   7.570  70.465  1.00  0.00    -0.529 OA 
HETATM   37  C   UNL     1     -12.218   9.726  71.505  1.00  0.00    -0.406 C  
HETATM   38  O   UNL     1     -11.898  11.748  70.205  1.00  0.00    -0.329 OA 
HETATM   39  H   UNL     1     -13.472   7.651  70.574  1.00  0.00     0.000 HD 
HETATM   40  O   UNL     1     -13.610   9.924  71.548  1.00  0.00    -0.328 OA 
HETATM   41  C   UNL     1     -11.653  10.363  70.225  1.00  0.00    -0.327 C  
HETATM   42  H   UNL     1     -13.832  10.848  71.544  1.00  0.00     0.000 HD 
BRANCH  33  43
HETATM   43  C   UNL     1      -9.858   6.630  71.360  1.00  0.00    -0.179 C  
HETATM   44  O   UNL     1     -10.843   5.793  71.904  1.00  0.00    -0.238 OA 
HETATM   45  H   UNL     1     -10.557   4.888  71.920  1.00  0.00     0.000 HD 
ENDBRANCH  33  43
ENDBRANCH  30  31
ENDBRANCH  29  30
BRANCH  29  46
HETATM   46  C   UNL     1     -10.351   9.182  66.915  1.00  0.00    -0.251 C  
HETATM   47  O   UNL     1     -11.131   8.095  67.354  1.00  0.00    -0.470 OA 
HETATM   48  H   UNL     1     -10.956   7.319  66.836  1.00  0.00     0.000 HD 
BRANCH  46  49
HETATM   49  C   UNL     1      -8.856   8.812  66.776  1.00  0.00    -0.129 C  
HETATM   50  H   UNL     1      -7.424   9.034  65.465  1.00  0.00     0.000 HD 
HETATM   51  O   UNL     1      -8.343   9.262  65.550  1.00  0.00    -0.122 OA 
ENDBRANCH  46  49
ENDBRANCH  29  46
ENDBRANCH  26  29
ENDBRANCH  23  26
ENDBRANCH  21  23
ENDBRANCH  20  21
ENDBRANCH  19  20
ENDBRANCH  18  19
ENDBRANCH  16  18
ENDBRANCH  13  16
ENDBRANCH  10  13
ENDBRANCH   7  10
ENDBRANCH   4   7
ENDBRANCH   2   4
TORSDOF 17
ENDMDL
MODEL      149
REMARK 921   NORMALIZED FREE ENERGY PREDICTED BY IDOCK:   -4.97 KCAL/MOL
REMARK 922        TOTAL FREE ENERGY PREDICTED BY IDOCK:  -13.34 KCAL/MOL
REMARK 923 INTER-LIGAND FREE ENERGY PREDICTED BY IDOCK:  -12.00 KCAL/MOL
REMARK 924 INTRA-LIGAND FREE ENERGY PREDICTED BY IDOCK:   -1.34 KCAL/MOL
REMARK 927      BINDING AFFINITY PREDICTED BY RF-SCORE:    0.00 PKD
ROOT
HETATM    1  O   UNL     1      -7.974  14.796  66.881  1.00  0.00    -0.331 OA 
HETATM    2  C   UNL     1      -7.833  15.838  67.808  1.00  0.00    -0.141 C  
HETATM    3  H   UNL     1      -8.599  14.159  67.208  1.00  0.00     0.000 HD 
ENDROOT
BRANCH   2   4
HETATM    4  C   UNL     1      -6.823  16.869  67.278  1.00  0.00    -0.166 C  
HETATM    5  O   UNL     1      -5.625  16.215  66.940  1.00  0.00    -0.341 OA 
HETATM    6  H   UNL     1      -5.001  16.853  66.613  1.00  0.00     0.000 HD 
BRANCH   4   7
HETATM    7  C   UNL     1      -7.372  17.618  66.035  1.00  0.00    -0.266 C  
HETATM    8  H   UNL     1      -9.096  17.876  65.175  1.00  0.00     0.000 HD 
HETATM    9  O   UNL     1      -8.760  17.418  65.937  1.00  0.00    -0.522 OA 
BRANCH   7  10
HETATM   10  C   UNL     1      -7.085  19.142  66.103  1.00  0.00    -0.252 C  
HETATM   11  H   UNL     1      -5.837  20.288  67.030  1.00  0.00     0.000 HD 
HETATM   12  O   UNL     1      -6.012  19.355  66.989  1.00  0.00    -0.178 OA 
BRANCH  10  13
HETATM   13  C   UNL     1      -8.304  19.980  66.578  1.00  0.00    -0.311 C  
HETATM   14  H   UNL     1     -10.077  20.413  65.915  1.00  0.00     0.000 HD 
HETATM   15  O   UNL     1      -9.332  19.900  65.625  1.00  0.00    -0.312 OA 
BRANCH  13  16
HETATM   16  C   UNL     1      -8.864  19.526  67.905  1.00  0.00    -0.323 C  
HETATM   17  O   UNL     1      -8.115  19.371  68.857  1.00  0.00    -0.356 OA 
BRANCH  16  18
HETATM   18  O   UNL     1     -10.180  19.276  68.056  1.00  0.00    -0.367 OA 
BRANCH  18  19
HETATM   19 CA   UNL     1     -10.886  17.610  69.664  1.00  0.00    -0.364 Ca 
BRANCH  19  20
HETATM   20  O   UNL     1     -11.592  15.946  71.272  1.00  0.00    -0.387 OA 
BRANCH  20  21
HETATM   21  C   UNL     1     -12.681  15.319  70.794  1.00  0.00    -0.433 C  
HETATM   22  O   UNL     1     -13.769  15.651  71.234  1.00  0.00    -0.568 OA 
BRANCH  21  23
HETATM   23  C   UNL     1     -12.573  14.122  69.876  1.00  0.00    -0.154 C  
HETATM   24  H   UNL     1     -11.943  12.303  70.025  1.00  0.00     0.000 HD 
HETATM   25  O   UNL     1     -12.011  13.055  70.601  1.00  0.00    -0.302 OA 
BRANCH  23  26
HETATM   26  C   UNL     1     -11.727  14.364  68.589  1.00  0.00    -0.332 C  
HETATM   27  H   UNL     1      -9.854  14.295  68.093  1.00  0.00     0.000 HD 
HETATM   28  O   UNL     1     -10.369  14.148  68.877  1.00  0.00    -0.236 OA 
BRANCH  26  29
HETATM   29  C   UNL     1     -12.126  13.559  67.304  1.00  0.00    -0.323 C  
BRANCH  29  30
HETATM   30  O   UNL     1     -11.787  12.204  67.557  1.00  0.00    -0.499 OA 
BRANCH  30  31
HETATM   31  C   UNL     1     -10.579  11.753  66.978  1.00  0.00    -0.232 C  
HETATM   32  O   UNL     1     -10.810  11.306  65.653  1.00  0.00    -0.250 OA 
HETATM   33  C   UNL     1      -9.601  10.865  65.054  1.00  0.00    -0.251 C  
HETATM   34  H   UNL     1      -9.537  10.272  69.717  1.00  0.00     0.000 HD 
HETATM   35  C   UNL     1      -9.079   9.597  65.777  1.00  0.00    -0.185 C  
HETATM   36  O   UNL     1     -10.033   8.565  65.715  1.00  0.00    -0.441 OA 
HETATM   37  C   UNL     1      -8.800   9.961  67.251  1.00  0.00    -0.132 C  
HETATM   38  O   UNL     1      -9.847  10.992  69.180  1.00  0.00    -0.183 OA 
HETATM   39  H   UNL     1      -9.713   7.789  66.159  1.00  0.00     0.000 HD 
HETATM   40  O   UNL     1      -8.430   8.832  68.003  1.00  0.00    -0.124 OA 
HETATM   41  C   UNL     1     -10.072  10.579  67.854  1.00  0.00    -0.176 C  
HETATM   42  H   UNL     1      -8.258   9.056  68.910  1.00  0.00     0.000 HD 
BRANCH  33  43
HETATM   43  C   UNL     1      -9.877  10.610  63.564  1.00  0.00    -0.326 C  
HETATM   44  O   UNL     1     -10.549  11.692  62.977  1.00  0.00    -0.643 OA 
HETATM   45  H   UNL     1     -10.719  11.535  62.057  1.00  0.00     0.000 HD 
ENDBRANCH  33  43
ENDBRANCH  30  31
ENDBRANCH  29  30
BRANCH  29  46
HETATM   46  C   UNL     1     -11.518  14.078  65.953  1.00  0.00    -0.330 C  
HETATM   47  O   UNL     1     -10.730  15.227  66.162  1.00  0.00    -0.307 OA 
HETATM   48  H   UNL     1     -10.362  15.540  65.346  1.00  0.00     0.000 HD 
BRANCH  46  49
HETATM   49  C   UNL     1     -12.537  14.268  64.807  1.00  0.00    -0.291 C  
HETATM   50  H   UNL     1     -13.544  13.146  63.562  1.00  0.00     0.000 HD 
HETATM   51  O   UNL     1     -12.918  13.029  64.267  1.00  0.00    -0.666 OA 
ENDBRANCH  46  49
ENDBRANCH  29  46
ENDBRANCH  26  29
ENDBRANCH  23  26
ENDBRANCH  21  23
ENDBRANCH  20  21
ENDBRANCH  19  20
ENDBRANCH  18  19
ENDBRANCH  16  18
ENDBRANCH  13  16
ENDBRANCH  10  13
ENDBRANCH   7  10
ENDBRANCH   4   7
ENDBRANCH   2   4
TORSDOF 17
ENDMDL
MODEL      150
REMARK 921   NORMALIZED FREE ENERGY PREDICTED BY IDOCK:   -4.94 KCAL/MOL
REMARK 922        TOTAL FREE ENERGY PREDICTED BY IDOCK:  -13.30 KCAL/MOL
REMARK 923 INTER-LIGAND FREE ENERGY PREDICTED BY IDOCK:  -11.15 KCAL/MOL
REMARK 924 INTRA-LIGAND FREE ENERGY PREDICTED BY IDOCK:   -2.15 KCAL/MOL
REMARK 927      BINDING AFFINITY PREDICTED BY RF-SCORE:    0.00 PKD
ROOT
HETATM    1  O   UNL     1     -12.261  13.282  70.095  1.00  0.00    -0.334 OA 
HETATM    2  C   UNL     1     -11.647  12.256  69.364  1.00  0.00    -0.314 C  
HETATM    3  H   UNL     1     -11.825  14.107  69.917  1.00  0.00     0.000 HD 
ENDROOT
BRANCH   2   4
HETATM    4  C   UNL     1     -12.353  10.920  69.653  1.00  0.00    -0.221 C  
HETATM    5  O   UNL     1     -11.782   9.911  68.859  1.00  0.00    -0.484 OA 
HETATM    6  H   UNL     1     -12.219   9.086  69.037  1.00  0.00     0.000 HD 
BRANCH   4   7
HETATM    7  C   UNL     1     -12.239  10.527  71.150  1.00  0.00    -0.391 C  
HETATM    8  H   UNL     1     -12.906  11.191  72.851  1.00  0.00     0.000 HD 
HETATM    9  O   UNL     1     -12.976  11.432  71.935  1.00  0.00    -0.453 OA 
BRANCH   7  10
HETATM   10  C   UNL     1     -12.761   9.089  71.413  1.00  0.00    -0.304 C  
HETATM   11  H   UNL     1     -14.204   8.289  72.416  1.00  0.00     0.000 HD 
HETATM   12  O   UNL     1     -13.885   9.170  72.255  1.00  0.00    -0.450 OA 
BRANCH  10  13
HETATM   13  C   UNL     1     -11.705   8.158  72.071  1.00  0.00    -0.332 C  
HETATM   14  H   UNL     1     -11.491   6.255  72.395  1.00  0.00     0.000 HD 
HETATM   15  O   UNL     1     -12.137   6.824  71.992  1.00  0.00    -0.314 OA 
BRANCH  13  16
HETATM   16  C   UNL     1     -10.343   8.244  71.424  1.00  0.00    -0.213 C  
HETATM   17  O   UNL     1     -10.153   7.715  70.339  1.00  0.00    -0.189 OA 
BRANCH  16  18
HETATM   18  O   UNL     1      -9.324   8.887  72.028  1.00  0.00    -0.324 OA 
BRANCH  18  19
HETATM   19 CA   UNL     1      -8.000  10.461  70.752  1.00  0.00    -0.238 Ca 
BRANCH  19  20
HETATM   20  O   UNL     1      -6.677  12.035  69.477  1.00  0.00    -0.104 OA 
BRANCH  20  21
HETATM   21  C   UNL     1      -7.115  12.039  68.207  1.00  0.00    -0.086 C  
HETATM   22  O   UNL     1      -7.246  10.964  67.645  1.00  0.00    -0.089 OA 
BRANCH  21  23
HETATM   23  C   UNL     1      -7.279  13.322  67.424  1.00  0.00    -0.108 C  
HETATM   24  H   UNL     1      -6.436  15.058  67.400  1.00  0.00     0.000 HD 
HETATM   25  O   UNL     1      -6.334  14.252  67.892  1.00  0.00    -0.138 OA 
BRANCH  23  26
HETATM   26  C   UNL     1      -8.700  13.957  67.505  1.00  0.00    -0.193 C  
HETATM   27  H   UNL     1      -9.748  14.919  68.823  1.00  0.00     0.000 HD 
HETATM   28  O   UNL     1      -8.882  14.532  68.774  1.00  0.00    -0.183 OA 
BRANCH  26  29
HETATM   29  C   UNL     1      -9.090  14.994  66.396  1.00  0.00    -0.277 C  
BRANCH  29  30
HETATM   30  O   UNL     1      -8.190  16.085  66.533  1.00  0.00    -0.272 OA 
BRANCH  30  31
HETATM   31  C   UNL     1      -8.727  17.256  67.114  1.00  0.00    -0.218 C  
HETATM   32  O   UNL     1      -9.220  18.120  66.104  1.00  0.00    -0.477 OA 
HETATM   33  C   UNL     1      -9.777  19.294  66.675  1.00  0.00    -0.353 C  
HETATM   34  H   UNL     1      -6.346  17.525  69.358  1.00  0.00     0.000 HD 
HETATM   35  C   UNL     1      -8.666  20.133  67.358  1.00  0.00    -0.344 C  
HETATM   36  O   UNL     1      -7.675  20.493  66.426  1.00  0.00    -0.472 OA 
HETATM   37  C   UNL     1      -8.039  19.282  68.482  1.00  0.00    -0.366 C  
HETATM   38  O   UNL     1      -7.053  17.103  68.886  1.00  0.00    -0.221 OA 
HETATM   39  H   UNL     1      -6.995  21.007  66.845  1.00  0.00     0.000 HD 
HETATM   40  O   UNL     1      -6.943  19.933  69.077  1.00  0.00    -0.325 OA 
HETATM   41  C   UNL     1      -7.572  17.945  67.884  1.00  0.00    -0.221 C  
HETATM   42  H   UNL     1      -6.557  19.409  69.769  1.00  0.00     0.000 HD 
BRANCH  33  43
HETATM   43  C   UNL     1     -10.487  20.074  65.557  1.00  0.00    -0.211 C  
HETATM   44  O   UNL     1     -11.248  19.220  64.745  1.00  0.00    -0.040 OA 
HETATM   45  H   UNL     1     -11.687  19.702  64.055  1.00  0.00     0.000 HD 
ENDBRANCH  33  43
ENDBRANCH  30  31
ENDBRANCH  29  30
BRANCH  29  46
HETATM   46  C   UNL     1     -10.588  15.463  66.390  1.00  0.00    -0.307 C  
HETATM   47  O   UNL     1     -11.276  14.970  67.516  1.00  0.00    -0.312 OA 
HETATM   48  H   UNL     1     -12.182  15.253  67.512  1.00  0.00     0.000 HD 
BRANCH  46  49
HETATM   49  C   UNL     1     -11.352  15.193  65.073  1.00  0.00    -0.380 C  
HETATM   50  H   UNL     1     -11.872  16.184  63.470  1.00  0.00     0.000 HD 
HETATM   51  O   UNL     1     -11.403  16.350  64.280  1.00  0.00    -0.892 OA 
ENDBRANCH  46  49
ENDBRANCH  29  46
ENDBRANCH  26  29
ENDBRANCH  23  26
ENDBRANCH  21  23
ENDBRANCH  20  21
ENDBRANCH  19  20
ENDBRANCH  18  19
ENDBRANCH  16  18
ENDBRANCH  13  16
ENDBRANCH  10  13
ENDBRANCH   7  10
ENDBRANCH   4   7
ENDBRANCH   2   4
TORSDOF 17
ENDMDL
MODEL      151
REMARK 921   NORMALIZED FREE ENERGY PREDICTED BY IDOCK:   -4.94 KCAL/MOL
REMARK 922        TOTAL FREE ENERGY PREDICTED BY IDOCK:  -13.29 KCAL/MOL
REMARK 923 INTER-LIGAND FREE ENERGY PREDICTED BY IDOCK:  -10.81 KCAL/MOL
REMARK 924 INTRA-LIGAND FREE ENERGY PREDICTED BY IDOCK:   -2.48 KCAL/MOL
REMARK 927      BINDING AFFINITY PREDICTED BY RF-SCORE:    0.00 PKD
ROOT
HETATM    1  O   UNL     1     -13.288   8.718  73.088  1.00  0.00    -0.918 OA 
HETATM    2  C   UNL     1     -12.051   8.131  72.786  1.00  0.00    -0.148 C  
HETATM    3  H   UNL     1     -13.341   8.888  74.022  1.00  0.00     0.000 HD 
ENDROOT
BRANCH   2   4
HETATM    4  C   UNL     1     -11.965   7.855  71.275  1.00  0.00    -0.298 C  
HETATM    5  O   UNL     1     -12.951   8.604  70.609  1.00  0.00    -0.355 OA 
HETATM    6  H   UNL     1     -12.898   8.433  69.676  1.00  0.00     0.000 HD 
BRANCH   4   7
HETATM    7  C   UNL     1     -10.568   8.219  70.708  1.00  0.00    -0.210 C  
HETATM    8  H   UNL     1      -8.747   8.338  71.377  1.00  0.00     0.000 HD 
HETATM    9  O   UNL     1      -9.602   8.115  71.725  1.00  0.00    -0.160 OA 
BRANCH   7  10
HETATM   10  C   UNL     1     -10.162   7.296  69.528  1.00  0.00    -0.198 C  
HETATM   11  H   UNL     1      -9.803   5.413  69.289  1.00  0.00     0.000 HD 
HETATM   12  O   UNL     1     -10.051   5.979  70.012  1.00  0.00    -0.169 OA 
BRANCH  10  13
HETATM   13  C   UNL     1      -8.819   7.701  68.859  1.00  0.00    -0.135 C  
HETATM   14  H   UNL     1      -7.028   6.966  68.707  1.00  0.00     0.000 HD 
HETATM   15  O   UNL     1      -7.849   6.718  69.117  1.00  0.00    -0.107 OA 
BRANCH  13  16
HETATM   16  C   UNL     1      -8.922   7.871  67.362  1.00  0.00    -0.127 C  
HETATM   17  O   UNL     1      -7.908   8.026  66.699  1.00  0.00    -0.095 OA 
BRANCH  16  18
HETATM   18  O   UNL     1     -10.119   7.866  66.741  1.00  0.00    -0.254 OA 
BRANCH  18  19
HETATM   19 CA   UNL     1     -10.595   9.568  65.088  1.00  0.00    -0.288 Ca 
BRANCH  19  20
HETATM   20  O   UNL     1     -11.072  11.270  63.435  1.00  0.00    -0.329 OA 
BRANCH  20  21
HETATM   21  C   UNL     1     -12.172  11.944  63.814  1.00  0.00    -0.444 C  
HETATM   22  O   UNL     1     -13.156  11.879  63.096  1.00  0.00    -0.605 OA 
BRANCH  21  23
HETATM   23  C   UNL     1     -12.158  12.895  64.989  1.00  0.00    -0.435 C  
HETATM   24  H   UNL     1     -13.123  14.484  65.507  1.00  0.00     0.000 HD 
HETATM   25  O   UNL     1     -13.131  13.887  64.769  1.00  0.00    -0.640 OA 
BRANCH  23  26
HETATM   26  C   UNL     1     -10.784  13.581  65.255  1.00  0.00    -0.323 C  
HETATM   27  H   UNL     1     -10.000  15.334  64.982  1.00  0.00     0.000 HD 
HETATM   28  O   UNL     1     -10.838  14.916  64.819  1.00  0.00    -0.394 OA 
BRANCH  26  29
HETATM   29  C   UNL     1     -10.224  13.527  66.718  1.00  0.00    -0.264 C  
BRANCH  29  30
HETATM   30  O   UNL     1      -9.038  14.310  66.723  1.00  0.00    -0.249 OA 
BRANCH  30  31
HETATM   31  C   UNL     1      -8.934  15.262  67.762  1.00  0.00    -0.177 C  
HETATM   32  O   UNL     1     -10.137  15.300  68.511  1.00  0.00    -0.213 OA 
HETATM   33  C   UNL     1     -10.040  16.242  69.569  1.00  0.00    -0.221 C  
HETATM   34  H   UNL     1      -7.348  17.463  65.914  1.00  0.00     0.000 HD 
HETATM   35  C   UNL     1      -9.925  17.678  68.995  1.00  0.00    -0.264 C  
HETATM   36  O   UNL     1     -11.046  17.983  68.201  1.00  0.00    -0.168 OA 
HETATM   37  C   UNL     1      -8.643  17.756  68.140  1.00  0.00    -0.262 C  
HETATM   38  O   UNL     1      -7.502  16.622  66.326  1.00  0.00    -0.268 OA 
HETATM   39  H   UNL     1     -10.975  18.863  67.850  1.00  0.00     0.000 HD 
HETATM   40  O   UNL     1      -8.527  18.999  67.491  1.00  0.00    -0.277 OA 
HETATM   41  C   UNL     1      -8.684  16.635  67.089  1.00  0.00    -0.195 C  
HETATM   42  H   UNL     1      -7.738  19.047  66.965  1.00  0.00     0.000 HD 
BRANCH  33  43
HETATM   43  C   UNL     1     -11.275  16.073  70.467  1.00  0.00    -0.378 C  
HETATM   44  O   UNL     1     -12.391  15.658  69.727  1.00  0.00    -0.487 OA 
HETATM   45  H   UNL     1     -13.154  15.553  70.282  1.00  0.00     0.000 HD 
ENDBRANCH  33  43
ENDBRANCH  30  31
ENDBRANCH  29  30
BRANCH  29  46
HETATM   46  C   UNL     1      -9.986  12.093  67.310  1.00  0.00    -0.203 C  
HETATM   47  O   UNL     1     -10.197  12.081  68.703  1.00  0.00    -0.226 OA 
HETATM   48  H   UNL     1     -10.054  11.214  69.061  1.00  0.00     0.000 HD 
BRANCH  46  49
HETATM   49  C   UNL     1      -8.643  11.437  66.916  1.00  0.00    -0.154 C  
HETATM   50  H   UNL     1      -7.831  10.642  65.325  1.00  0.00     0.000 HD 
HETATM   51  O   UNL     1      -8.656  11.046  65.567  1.00  0.00    -0.173 OA 
ENDBRANCH  46  49
ENDBRANCH  29  46
ENDBRANCH  26  29
ENDBRANCH  23  26
ENDBRANCH  21  23
ENDBRANCH  20  21
ENDBRANCH  19  20
ENDBRANCH  18  19
ENDBRANCH  16  18
ENDBRANCH  13  16
ENDBRANCH  10  13
ENDBRANCH   7  10
ENDBRANCH   4   7
ENDBRANCH   2   4
TORSDOF 17
ENDMDL
MODEL      152
REMARK 921   NORMALIZED FREE ENERGY PREDICTED BY IDOCK:   -4.94 KCAL/MOL
REMARK 922        TOTAL FREE ENERGY PREDICTED BY IDOCK:  -13.28 KCAL/MOL
REMARK 923 INTER-LIGAND FREE ENERGY PREDICTED BY IDOCK:   -9.88 KCAL/MOL
REMARK 924 INTRA-LIGAND FREE ENERGY PREDICTED BY IDOCK:   -3.40 KCAL/MOL
REMARK 927      BINDING AFFINITY PREDICTED BY RF-SCORE:    0.00 PKD
ROOT
HETATM    1  O   UNL     1      -9.579   6.454  69.317  1.00  0.00    -0.138 OA 
HETATM    2  C   UNL     1      -9.424   6.621  70.700  1.00  0.00    -0.169 C  
HETATM    3  H   UNL     1      -9.443   5.542  69.088  1.00  0.00     0.000 HD 
ENDROOT
BRANCH   2   4
HETATM    4  C   UNL     1      -9.646   8.097  71.071  1.00  0.00    -0.159 C  
HETATM    5  O   UNL     1      -8.422   8.784  70.994  1.00  0.00    -0.145 OA 
HETATM    6  H   UNL     1      -8.559   9.696  71.223  1.00  0.00     0.000 HD 
BRANCH   4   7
HETATM    7  C   UNL     1     -10.677   8.773  70.129  1.00  0.00    -0.224 C  
HETATM    8  H   UNL     1     -12.469   9.513  70.278  1.00  0.00     0.000 HD 
HETATM    9  O   UNL     1     -11.837   9.099  70.855  1.00  0.00    -0.286 OA 
BRANCH   7  10
HETATM   10  C   UNL     1     -10.110  10.061  69.476  1.00  0.00    -0.227 C  
HETATM   11  H   UNL     1     -10.766  11.837  69.094  1.00  0.00     0.000 HD 
HETATM   12  O   UNL     1     -11.113  11.048  69.494  1.00  0.00    -0.238 OA 
BRANCH  10  13
HETATM   13  C   UNL     1      -9.634   9.855  68.012  1.00  0.00    -0.138 C  
HETATM   14  H   UNL     1     -10.252  10.334  66.234  1.00  0.00     0.000 HD 
HETATM   15  O   UNL     1     -10.544  10.460  67.130  1.00  0.00    -0.241 OA 
BRANCH  13  16
HETATM   16  C   UNL     1      -8.266  10.434  67.738  1.00  0.00    -0.110 C  
HETATM   17  O   UNL     1      -7.362  10.256  68.540  1.00  0.00    -0.078 OA 
BRANCH  16  18
HETATM   18  O   UNL     1      -8.026  11.158  66.627  1.00  0.00    -0.149 OA 
BRANCH  18  19
HETATM   19 CA   UNL     1      -9.876  12.242  65.503  1.00  0.00    -0.217 Ca 
BRANCH  19  20
HETATM   20  O   UNL     1     -11.725  13.326  64.381  1.00  0.00    -0.353 OA 
BRANCH  20  21
HETATM   21  C   UNL     1     -11.887  14.554  64.904  1.00  0.00    -0.416 C  
HETATM   22  O   UNL     1     -12.732  15.279  64.407  1.00  0.00    -0.428 OA 
BRANCH  21  23
HETATM   23  C   UNL     1     -10.949  15.103  65.956  1.00  0.00    -0.332 C  
HETATM   24  H   UNL     1      -9.038  15.258  66.174  1.00  0.00     0.000 HD 
HETATM   25  O   UNL     1      -9.627  14.914  65.514  1.00  0.00    -0.296 OA 
BRANCH  23  26
HETATM   26  C   UNL     1     -11.110  14.463  67.368  1.00  0.00    -0.308 C  
HETATM   27  H   UNL     1     -10.277  13.032  68.378  1.00  0.00     0.000 HD 
HETATM   28  O   UNL     1     -10.179  13.422  67.517  1.00  0.00    -0.224 OA 
BRANCH  26  29
HETATM   29  C   UNL     1     -11.028  15.422  68.606  1.00  0.00    -0.273 C  
BRANCH  29  30
HETATM   30  O   UNL     1      -9.687  15.364  69.071  1.00  0.00    -0.211 OA 
BRANCH  30  31
HETATM   31  C   UNL     1      -8.880  16.482  68.763  1.00  0.00    -0.255 C  
HETATM   32  O   UNL     1      -9.592  17.384  67.933  1.00  0.00    -0.257 OA 
HETATM   33  C   UNL     1      -8.797  18.520  67.628  1.00  0.00    -0.271 C  
HETATM   34  H   UNL     1      -6.152  14.702  68.351  1.00  0.00     0.000 HD 
HETATM   35  C   UNL     1      -7.586  18.104  66.754  1.00  0.00    -0.223 C  
HETATM   36  O   UNL     1      -8.023  17.506  65.557  1.00  0.00    -0.354 OA 
HETATM   37  C   UNL     1      -6.732  17.100  67.556  1.00  0.00    -0.138 C  
HETATM   38  O   UNL     1      -6.915  15.032  68.810  1.00  0.00    -0.099 OA 
HETATM   39  H   UNL     1      -7.281  17.251  65.022  1.00  0.00     0.000 HD 
HETATM   40  O   UNL     1      -5.673  16.587  66.786  1.00  0.00    -0.329 OA 
HETATM   41  C   UNL     1      -7.635  15.942  68.014  1.00  0.00    -0.129 C  
HETATM   42  H   UNL     1      -5.147  15.969  67.280  1.00  0.00     0.000 HD 
BRANCH  33  43
HETATM   43  C   UNL     1      -9.694  19.550  66.924  1.00  0.00    -0.356 C  
HETATM   44  O   UNL     1     -10.216  19.037  65.727  1.00  0.00    -0.517 OA 
HETATM   45  H   UNL     1     -10.771  19.674  65.292  1.00  0.00     0.000 HD 
ENDBRANCH  33  43
ENDBRANCH  30  31
ENDBRANCH  29  30
BRANCH  29  46
HETATM   46  C   UNL     1     -12.063  15.151  69.754  1.00  0.00    -0.319 C  
HETATM   47  O   UNL     1     -13.113  16.090  69.720  1.00  0.00    -0.488 OA 
HETATM   48  H   UNL     1     -13.739  15.926  70.414  1.00  0.00     0.000 HD 
BRANCH  46  49
HETATM   49  C   UNL     1     -11.451  15.009  71.167  1.00  0.00    -0.309 C  
HETATM   50  H   UNL     1     -11.363  16.051  72.819  1.00  0.00     0.000 HD 
HETATM   51  O   UNL     1     -11.739  16.138  71.950  1.00  0.00    -0.475 OA 
ENDBRANCH  46  49
ENDBRANCH  29  46
ENDBRANCH  26  29
ENDBRANCH  23  26
ENDBRANCH  21  23
ENDBRANCH  20  21
ENDBRANCH  19  20
ENDBRANCH  18  19
ENDBRANCH  16  18
ENDBRANCH  13  16
ENDBRANCH  10  13
ENDBRANCH   7  10
ENDBRANCH   4   7
ENDBRANCH   2   4
TORSDOF 17
ENDMDL
MODEL      153
REMARK 921   NORMALIZED FREE ENERGY PREDICTED BY IDOCK:   -4.93 KCAL/MOL
REMARK 922        TOTAL FREE ENERGY PREDICTED BY IDOCK:  -13.27 KCAL/MOL
REMARK 923 INTER-LIGAND FREE ENERGY PREDICTED BY IDOCK:  -11.10 KCAL/MOL
REMARK 924 INTRA-LIGAND FREE ENERGY PREDICTED BY IDOCK:   -2.16 KCAL/MOL
REMARK 927      BINDING AFFINITY PREDICTED BY RF-SCORE:    0.00 PKD
ROOT
HETATM    1  O   UNL     1      -9.955  20.699  68.041  1.00  0.00    -0.266 OA 
HETATM    2  C   UNL     1     -10.595  20.083  66.957  1.00  0.00    -0.322 C  
HETATM    3  H   UNL     1     -10.519  21.370  68.407  1.00  0.00     0.000 HD 
ENDROOT
BRANCH   2   4
HETATM    4  C   UNL     1      -9.682  18.997  66.364  1.00  0.00    -0.367 C  
HETATM    5  O   UNL     1      -8.494  19.590  65.901  1.00  0.00    -0.417 OA 
HETATM    6  H   UNL     1      -7.930  18.919  65.535  1.00  0.00     0.000 HD 
BRANCH   4   7
HETATM    7  C   UNL     1      -9.339  17.906  67.413  1.00  0.00    -0.257 C  
HETATM    8  H   UNL     1     -10.085  17.256  69.087  1.00  0.00     0.000 HD 
HETATM    9  O   UNL     1     -10.295  17.924  68.445  1.00  0.00    -0.366 OA 
BRANCH   7  10
HETATM   10  C   UNL     1      -9.302  16.488  66.785  1.00  0.00    -0.243 C  
HETATM   11  H   UNL     1      -8.373  15.633  65.322  1.00  0.00     0.000 HD 
HETATM   12  O   UNL     1      -8.396  16.501  65.708  1.00  0.00    -0.337 OA 
BRANCH  10  13
HETATM   13  C   UNL     1     -10.685  16.002  66.272  1.00  0.00    -0.234 C  
HETATM   14  H   UNL     1     -11.562  15.763  64.555  1.00  0.00     0.000 HD 
HETATM   15  O   UNL     1     -10.716  16.060  64.869  1.00  0.00    -0.576 OA 
BRANCH  13  16
HETATM   16  C   UNL     1     -11.015  14.587  66.684  1.00  0.00    -0.321 C  
HETATM   17  O   UNL     1     -11.786  14.391  67.611  1.00  0.00    -0.369 OA 
BRANCH  16  18
HETATM   18  O   UNL     1     -10.464  13.531  66.054  1.00  0.00    -0.288 OA 
BRANCH  18  19
HETATM   19 CA   UNL     1      -8.699  12.291  67.153  1.00  0.00    -0.144 Ca 
BRANCH  19  20
HETATM   20  O   UNL     1      -6.935  11.052  68.251  1.00  0.00    -0.066 OA 
BRANCH  20  21
HETATM   21  C   UNL     1      -7.286  10.844  69.532  1.00  0.00    -0.113 C  
HETATM   22  O   UNL     1      -6.558  11.292  70.402  1.00  0.00    -0.248 OA 
BRANCH  21  23
HETATM   23  C   UNL     1      -8.440   9.942  69.906  1.00  0.00    -0.191 C  
HETATM   24  H   UNL     1      -8.862   8.751  71.365  1.00  0.00     0.000 HD 
HETATM   25  O   UNL     1      -8.137   9.317  71.129  1.00  0.00    -0.298 OA 
BRANCH  23  26
HETATM   26  C   UNL     1      -8.782   8.850  68.848  1.00  0.00    -0.136 C  
HETATM   27  H   UNL     1      -8.290   7.006  68.507  1.00  0.00     0.000 HD 
HETATM   28  O   UNL     1      -8.081   7.671  69.152  1.00  0.00    -0.121 OA 
BRANCH  26  29
HETATM   29  C   UNL     1     -10.297   8.517  68.621  1.00  0.00    -0.198 C  
BRANCH  29  30
HETATM   30  O   UNL     1     -10.447   7.130  68.884  1.00  0.00    -0.197 OA 
BRANCH  30  31
HETATM   31  C   UNL     1     -11.270   6.797  69.984  1.00  0.00    -0.328 C  
HETATM   32  O   UNL     1     -11.728   7.977  70.624  1.00  0.00    -0.254 OA 
HETATM   33  C   UNL     1     -12.569   7.657  71.722  1.00  0.00    -0.331 C  
HETATM   34  H   UNL     1      -9.383   4.289  70.947  1.00  0.00     0.000 HD 
HETATM   35  C   UNL     1     -11.752   6.940  72.828  1.00  0.00    -0.007 C  
HETATM   36  O   UNL     1     -10.697   7.759  73.272  1.00  0.00    -0.374 OA 
HETATM   37  C   UNL     1     -11.184   5.632  72.239  1.00  0.00    -0.259 C  
HETATM   38  O   UNL     1      -9.917   4.797  70.348  1.00  0.00    -0.218 OA 
HETATM   39  H   UNL     1     -10.196   7.319  73.949  1.00  0.00     0.000 HD 
HETATM   40  O   UNL     1     -10.335   4.978  73.150  1.00  0.00    -0.166 OA 
HETATM   41  C   UNL     1     -10.398   5.968  70.961  1.00  0.00    -0.216 C  
HETATM   42  H   UNL     1      -9.986   4.173  72.787  1.00  0.00     0.000 HD 
BRANCH  33  43
HETATM   43  C   UNL     1     -13.206   8.962  72.226  1.00  0.00    -0.447 C  
HETATM   44  O   UNL     1     -14.116   8.717  73.265  1.00  0.00    -1.180 OA 
HETATM   45  H   UNL     1     -14.509   9.523  73.576  1.00  0.00     0.000 HD 
ENDBRANCH  33  43
ENDBRANCH  30  31
ENDBRANCH  29  30
BRANCH  29  46
HETATM   46  C   UNL     1     -10.887   8.919  67.223  1.00  0.00    -0.014 C  
HETATM   47  O   UNL     1     -10.188   8.283  66.179  1.00  0.00    -0.457 OA 
HETATM   48  H   UNL     1     -10.544   8.526  65.333  1.00  0.00     0.000 HD 
BRANCH  46  49
HETATM   49  C   UNL     1     -11.032  10.441  66.988  1.00  0.00    -0.154 C  
HETATM   50  H   UNL     1     -12.094  11.921  67.696  1.00  0.00     0.000 HD 
HETATM   51  O   UNL     1     -12.004  10.986  67.841  1.00  0.00    -0.620 OA 
ENDBRANCH  46  49
ENDBRANCH  29  46
ENDBRANCH  26  29
ENDBRANCH  23  26
ENDBRANCH  21  23
ENDBRANCH  20  21
ENDBRANCH  19  20
ENDBRANCH  18  19
ENDBRANCH  16  18
ENDBRANCH  13  16
ENDBRANCH  10  13
ENDBRANCH   7  10
ENDBRANCH   4   7
ENDBRANCH   2   4
TORSDOF 17
ENDMDL
MODEL      154
REMARK 921   NORMALIZED FREE ENERGY PREDICTED BY IDOCK:   -4.93 KCAL/MOL
REMARK 922        TOTAL FREE ENERGY PREDICTED BY IDOCK:  -13.26 KCAL/MOL
REMARK 923 INTER-LIGAND FREE ENERGY PREDICTED BY IDOCK:  -10.62 KCAL/MOL
REMARK 924 INTRA-LIGAND FREE ENERGY PREDICTED BY IDOCK:   -2.65 KCAL/MOL
REMARK 927      BINDING AFFINITY PREDICTED BY RF-SCORE:    0.00 PKD
ROOT
HETATM    1  O   UNL     1     -13.069  12.313  71.423  1.00  0.00    -0.328 OA 
HETATM    2  C   UNL     1     -12.079  11.619  70.714  1.00  0.00    -0.283 C  
HETATM    3  H   UNL     1     -12.798  13.215  71.552  1.00  0.00     0.000 HD 
ENDROOT
BRANCH   2   4
HETATM    4  C   UNL     1     -12.518  10.160  70.505  1.00  0.00    -0.223 C  
HETATM    5  O   UNL     1     -11.862   9.634  69.378  1.00  0.00    -0.404 OA 
HETATM    6  H   UNL     1     -12.134   8.733  69.249  1.00  0.00     0.000 HD 
BRANCH   4   7
HETATM    7  C   UNL     1     -12.197   9.285  71.745  1.00  0.00    -0.385 C  
HETATM    8  H   UNL     1     -13.138   8.007  72.869  1.00  0.00     0.000 HD 
HETATM    9  O   UNL     1     -13.335   8.543  72.109  1.00  0.00    -0.344 OA 
BRANCH   7  10
HETATM   10  C   UNL     1     -11.021   8.308  71.477  1.00  0.00    -0.254 C  
HETATM   11  H   UNL     1     -10.636   6.452  71.848  1.00  0.00     0.000 HD 
HETATM   12  O   UNL     1     -11.356   7.050  72.012  1.00  0.00    -0.249 OA 
BRANCH  10  13
HETATM   13  C   UNL     1      -9.675   8.776  72.096  1.00  0.00    -0.265 C  
HETATM   14  H   UNL     1      -8.417   8.122  73.425  1.00  0.00     0.000 HD 
HETATM   15  O   UNL     1      -9.241   7.837  73.046  1.00  0.00    -0.177 OA 
BRANCH  13  16
HETATM   16  C   UNL     1      -8.573   8.948  71.077  1.00  0.00    -0.206 C  
HETATM   17  O   UNL     1      -8.731   8.534  69.939  1.00  0.00    -0.128 OA 
BRANCH  16  18
HETATM   18  O   UNL     1      -7.409   9.543  71.404  1.00  0.00    -0.330 OA 
BRANCH  18  19
HETATM   19 CA   UNL     1      -6.910  11.733  70.503  1.00  0.00    -0.317 Ca 
BRANCH  19  20
HETATM   20  O   UNL     1      -6.411  13.923  69.603  1.00  0.00    -0.117 OA 
BRANCH  20  21
HETATM   21  C   UNL     1      -6.507  13.870  68.263  1.00  0.00    -0.111 C  
HETATM   22  O   UNL     1      -5.769  13.105  67.667  1.00  0.00    -0.163 OA 
BRANCH  21  23
HETATM   23  C   UNL     1      -7.368  14.843  67.487  1.00  0.00    -0.204 C  
HETATM   24  H   UNL     1      -7.214  16.672  66.891  1.00  0.00     0.000 HD 
HETATM   25  O   UNL     1      -6.674  16.062  67.379  1.00  0.00    -0.159 OA 
BRANCH  23  26
HETATM   26  C   UNL     1      -8.771  15.110  68.112  1.00  0.00    -0.167 C  
HETATM   27  H   UNL     1      -9.641  16.552  69.075  1.00  0.00     0.000 HD 
HETATM   28  O   UNL     1      -8.785  16.388  68.694  1.00  0.00    -0.212 OA 
BRANCH  26  29
HETATM   29  C   UNL     1     -10.018  14.945  67.176  1.00  0.00    -0.231 C  
BRANCH  29  30
HETATM   30  O   UNL     1     -10.349  13.563  67.190  1.00  0.00    -0.248 OA 
BRANCH  30  31
HETATM   31  C   UNL     1      -9.475  12.714  66.474  1.00  0.00    -0.247 C  
HETATM   32  O   UNL     1     -10.053  12.358  65.229  1.00  0.00    -0.276 OA 
HETATM   33  C   UNL     1      -9.179  11.517  64.492  1.00  0.00     0.079 C  
HETATM   34  H   UNL     1      -8.578  11.000  69.126  1.00  0.00     0.000 HD 
HETATM   35  C   UNL     1      -9.011  10.156  65.216  1.00  0.00    -0.187 C  
HETATM   36  O   UNL     1     -10.257   9.518  65.363  1.00  0.00    -0.311 OA 
HETATM   37  C   UNL     1      -8.394  10.420  66.606  1.00  0.00    -0.127 C  
HETATM   38  O   UNL     1      -8.706  11.775  68.593  1.00  0.00    -0.143 OA 
HETATM   39  H   UNL     1     -10.154   8.685  65.807  1.00  0.00     0.000 HD 
HETATM   40  O   UNL     1      -8.316   9.243  67.371  1.00  0.00    -0.120 OA 
HETATM   41  C   UNL     1      -9.267  11.449  67.344  1.00  0.00    -0.164 C  
HETATM   42  H   UNL     1      -7.936   9.406  68.226  1.00  0.00     0.000 HD 
BRANCH  33  43
HETATM   43  C   UNL     1      -9.758  11.354  63.078  1.00  0.00    -0.371 C  
HETATM   44  O   UNL     1     -11.153  11.213  63.113  1.00  0.00    -0.811 OA 
HETATM   45  H   UNL     1     -11.511  11.112  62.239  1.00  0.00     0.000 HD 
ENDBRANCH  33  43
ENDBRANCH  30  31
ENDBRANCH  29  30
BRANCH  29  46
HETATM   46  C   UNL     1      -9.860  15.499  65.717  1.00  0.00    -0.357 C  
HETATM   47  O   UNL     1      -9.289  16.787  65.725  1.00  0.00    -0.515 OA 
HETATM   48  H   UNL     1      -9.194  17.123  64.842  1.00  0.00     0.000 HD 
BRANCH  46  49
HETATM   49  C   UNL     1     -11.139  15.432  64.849  1.00  0.00    -0.423 C  
HETATM   50  H   UNL     1     -12.148  16.613  63.663  1.00  0.00     0.000 HD 
HETATM   51  O   UNL     1     -11.363  16.654  64.196  1.00  0.00    -1.141 OA 
ENDBRANCH  46  49
ENDBRANCH  29  46
ENDBRANCH  26  29
ENDBRANCH  23  26
ENDBRANCH  21  23
ENDBRANCH  20  21
ENDBRANCH  19  20
ENDBRANCH  18  19
ENDBRANCH  16  18
ENDBRANCH  13  16
ENDBRANCH  10  13
ENDBRANCH   7  10
ENDBRANCH   4   7
ENDBRANCH   2   4
TORSDOF 17
ENDMDL
MODEL      155
REMARK 921   NORMALIZED FREE ENERGY PREDICTED BY IDOCK:   -4.92 KCAL/MOL
REMARK 922        TOTAL FREE ENERGY PREDICTED BY IDOCK:  -13.25 KCAL/MOL
REMARK 923 INTER-LIGAND FREE ENERGY PREDICTED BY IDOCK:  -10.68 KCAL/MOL
REMARK 924 INTRA-LIGAND FREE ENERGY PREDICTED BY IDOCK:   -2.56 KCAL/MOL
REMARK 927      BINDING AFFINITY PREDICTED BY RF-SCORE:    0.00 PKD
ROOT
HETATM    1  O   UNL     1     -12.388  14.925  71.518  1.00  0.00    -0.303 OA 
HETATM    2  C   UNL     1     -12.171  15.566  70.291  1.00  0.00    -0.400 C  
HETATM    3  H   UNL     1     -13.098  15.354  71.982  1.00  0.00     0.000 HD 
ENDROOT
BRANCH   2   4
HETATM    4  C   UNL     1     -11.023  14.871  69.540  1.00  0.00    -0.273 C  
HETATM    5  O   UNL     1     -11.418  13.568  69.189  1.00  0.00    -0.261 OA 
HETATM    6  H   UNL     1     -10.709  13.139  68.725  1.00  0.00     0.000 HD 
BRANCH   4   7
HETATM    7  C   UNL     1     -10.623  15.652  68.260  1.00  0.00    -0.262 C  
HETATM    8  H   UNL     1     -11.518  16.728  66.911  1.00  0.00     0.000 HD 
HETATM    9  O   UNL     1     -11.764  16.250  67.695  1.00  0.00     0.093 OA 
BRANCH   7  10
HETATM   10  C   UNL     1      -9.570  16.753  68.558  1.00  0.00    -0.245 C  
HETATM   11  H   UNL     1      -9.601  18.587  69.165  1.00  0.00     0.000 HD 
HETATM   12  O   UNL     1     -10.246  17.912  68.982  1.00  0.00    -0.378 OA 
BRANCH  10  13
HETATM   13  C   UNL     1      -8.683  17.108  67.333  1.00  0.00    -0.204 C  
HETATM   14  H   UNL     1      -8.169  16.270  65.658  1.00  0.00     0.000 HD 
HETATM   15  O   UNL     1      -8.712  16.053  66.407  1.00  0.00    -0.270 OA 
BRANCH  13  16
HETATM   16  C   UNL     1      -9.120  18.365  66.619  1.00  0.00    -0.297 C  
HETATM   17  O   UNL     1      -8.468  19.390  66.742  1.00  0.00    -0.276 OA 
BRANCH  16  18
HETATM   18  O   UNL     1     -10.230  18.380  65.854  1.00  0.00    -0.544 OA 
BRANCH  18  19
HETATM   19 CA   UNL     1     -11.452  16.320  65.507  1.00  0.00    -0.249 Ca 
BRANCH  19  20
HETATM   20  O   UNL     1     -12.674  14.260  65.162  1.00  0.00    -0.596 OA 
BRANCH  20  21
HETATM   21  C   UNL     1     -11.946  13.454  64.370  1.00  0.00    -0.411 C  
HETATM   22  O   UNL     1     -12.319  13.298  63.219  1.00  0.00    -0.721 OA 
BRANCH  21  23
HETATM   23  C   UNL     1     -10.805  12.623  64.911  1.00  0.00    -0.298 C  
HETATM   24  H   UNL     1     -10.066  10.874  64.561  1.00  0.00     0.000 HD 
HETATM   25  O   UNL     1     -10.783  11.396  64.222  1.00  0.00    -0.323 OA 
BRANCH  23  26
HETATM   26  C   UNL     1     -10.873  12.344  66.443  1.00  0.00    -0.258 C  
HETATM   27  H   UNL     1     -12.193  11.699  67.708  1.00  0.00     0.000 HD 
HETATM   28  O   UNL     1     -12.152  11.869  66.774  1.00  0.00    -0.593 OA 
BRANCH  26  29
HETATM   29  C   UNL     1      -9.785  11.391  67.050  1.00  0.00    -0.190 C  
BRANCH  29  30
HETATM   30  O   UNL     1      -9.829  11.577  68.457  1.00  0.00    -0.192 OA 
BRANCH  30  31
HETATM   31  C   UNL     1      -9.727  10.403  69.236  1.00  0.00    -0.214 C  
HETATM   32  O   UNL     1      -9.170   9.352  68.464  1.00  0.00    -0.131 OA 
HETATM   33  C   UNL     1      -9.048   8.169  69.240  1.00  0.00    -0.151 C  
HETATM   34  H   UNL     1     -12.630  10.837  70.707  1.00  0.00     0.000 HD 
HETATM   35  C   UNL     1     -10.452   7.634  69.620  1.00  0.00    -0.235 C  
HETATM   36  O   UNL     1     -11.205   7.357  68.465  1.00  0.00    -0.434 OA 
HETATM   37  C   UNL     1     -11.168   8.710  70.463  1.00  0.00    -0.241 C  
HETATM   38  O   UNL     1     -11.749  11.064  70.436  1.00  0.00    -0.315 OA 
HETATM   39  H   UNL     1     -12.065   7.029  68.698  1.00  0.00     0.000 HD 
HETATM   40  O   UNL     1     -12.495   8.344  70.753  1.00  0.00    -0.500 OA 
HETATM   41  C   UNL     1     -11.165  10.032  69.678  1.00  0.00    -0.239 C  
HETATM   42  H   UNL     1     -12.936   9.006  71.272  1.00  0.00     0.000 HD 
BRANCH  33  43
HETATM   43  C   UNL     1      -8.240   7.149  68.423  1.00  0.00    -0.125 C  
HETATM   44  O   UNL     1      -6.908   7.561  68.266  1.00  0.00    -0.059 OA 
HETATM   45  H   UNL     1      -6.409   6.930  67.762  1.00  0.00     0.000 HD 
ENDBRANCH  33  43
ENDBRANCH  30  31
ENDBRANCH  29  30
BRANCH  29  46
HETATM   46  C   UNL     1      -8.333  11.555  66.478  1.00  0.00    -0.147 C  
HETATM   47  O   UNL     1      -7.856  10.337  65.955  1.00  0.00    -0.121 OA 
HETATM   48  H   UNL     1      -6.977  10.436  65.609  1.00  0.00     0.000 HD 
BRANCH  46  49
HETATM   49  C   UNL     1      -7.320  12.215  67.442  1.00  0.00    -0.151 C  
HETATM   50  H   UNL     1      -6.831  14.017  68.018  1.00  0.00     0.000 HD 
HETATM   51  O   UNL     1      -7.454  13.612  67.426  1.00  0.00    -0.171 OA 
ENDBRANCH  46  49
ENDBRANCH  29  46
ENDBRANCH  26  29
ENDBRANCH  23  26
ENDBRANCH  21  23
ENDBRANCH  20  21
ENDBRANCH  19  20
ENDBRANCH  18  19
ENDBRANCH  16  18
ENDBRANCH  13  16
ENDBRANCH  10  13
ENDBRANCH   7  10
ENDBRANCH   4   7
ENDBRANCH   2   4
TORSDOF 17
ENDMDL
MODEL      156
REMARK 921   NORMALIZED FREE ENERGY PREDICTED BY IDOCK:   -4.92 KCAL/MOL
REMARK 922        TOTAL FREE ENERGY PREDICTED BY IDOCK:  -13.24 KCAL/MOL
REMARK 923 INTER-LIGAND FREE ENERGY PREDICTED BY IDOCK:  -10.85 KCAL/MOL
REMARK 924 INTRA-LIGAND FREE ENERGY PREDICTED BY IDOCK:   -2.40 KCAL/MOL
REMARK 927      BINDING AFFINITY PREDICTED BY RF-SCORE:    0.00 PKD
ROOT
HETATM    1  O   UNL     1     -14.193   6.547  72.300  1.00  0.00    -0.551 OA 
HETATM    2  C   UNL     1     -14.352   7.731  71.567  1.00  0.00    -0.447 C  
HETATM    3  H   UNL     1     -14.975   6.013  72.218  1.00  0.00     0.000 HD 
ENDROOT
BRANCH   2   4
HETATM    4  C   UNL     1     -13.086   8.595  71.699  1.00  0.00    -0.346 C  
HETATM    5  O   UNL     1     -13.075   9.213  72.962  1.00  0.00    -0.679 OA 
HETATM    6  H   UNL     1     -12.293   9.746  73.043  1.00  0.00     0.000 HD 
BRANCH   4   7
HETATM    7  C   UNL     1     -11.798   7.749  71.526  1.00  0.00    -0.293 C  
HETATM    8  H   UNL     1     -10.241   7.747  70.361  1.00  0.00     0.000 HD 
HETATM    9  O   UNL     1     -11.030   8.265  70.466  1.00  0.00    -0.238 OA 
BRANCH   7  10
HETATM   10  C   UNL     1     -10.935   7.736  72.816  1.00  0.00    -0.388 C  
HETATM   11  H   UNL     1      -9.229   8.460  73.361  1.00  0.00     0.000 HD 
HETATM   12  O   UNL     1      -9.758   8.468  72.571  1.00  0.00    -0.288 OA 
BRANCH  10  13
HETATM   13  C   UNL     1     -10.549   6.307  73.288  1.00  0.00    -0.262 C  
HETATM   14  H   UNL     1     -11.369   4.547  73.311  1.00  0.00     0.000 HD 
HETATM   15  O   UNL     1     -11.605   5.420  73.022  1.00  0.00    -0.296 OA 
BRANCH  13  16
HETATM   16  C   UNL     1      -9.309   5.767  72.614  1.00  0.00    -0.140 C  
HETATM   17  O   UNL     1      -8.246   5.766  73.215  1.00  0.00    -0.116 OA 
BRANCH  16  18
HETATM   18  O   UNL     1      -9.352   5.294  71.353  1.00  0.00    -0.143 OA 
BRANCH  18  19
HETATM   19 CA   UNL     1      -8.899   6.800  69.513  1.00  0.00    -0.127 Ca 
BRANCH  19  20
HETATM   20  O   UNL     1      -8.445   8.305  67.674  1.00  0.00    -0.128 OA 
BRANCH  20  21
HETATM   21  C   UNL     1      -9.614   8.740  67.174  1.00  0.00    -0.175 C  
HETATM   22  O   UNL     1     -10.605   8.054  67.359  1.00  0.00    -0.282 OA 
BRANCH  21  23
HETATM   23  C   UNL     1      -9.692   9.943  66.260  1.00  0.00    -0.222 C  
HETATM   24  H   UNL     1      -8.750  10.569  64.696  1.00  0.00     0.000 HD 
HETATM   25  O   UNL     1      -8.701   9.814  65.270  1.00  0.00    -0.141 OA 
BRANCH  23  26
HETATM   26  C   UNL     1      -9.519  11.316  66.977  1.00  0.00    -0.171 C  
HETATM   27  H   UNL     1      -8.056  12.360  67.703  1.00  0.00     0.000 HD 
HETATM   28  O   UNL     1      -8.161  11.523  67.267  1.00  0.00    -0.138 OA 
BRANCH  26  29
HETATM   29  C   UNL     1     -10.102  12.582  66.257  1.00  0.00    -0.250 C  
BRANCH  29  30
HETATM   30  O   UNL     1      -9.514  13.709  66.889  1.00  0.00    -0.244 OA 
BRANCH  30  31
HETATM   31  C   UNL     1     -10.363  14.823  67.074  1.00  0.00    -0.255 C  
HETATM   32  O   UNL     1      -9.788  15.978  66.486  1.00  0.00    -0.241 OA 
HETATM   33  C   UNL     1     -10.638  17.103  66.652  1.00  0.00    -0.179 C  
HETATM   34  H   UNL     1     -11.159  14.010  70.153  1.00  0.00     0.000 HD 
HETATM   35  C   UNL     1     -10.743  17.475  68.153  1.00  0.00    -0.329 C  
HETATM   36  O   UNL     1      -9.472  17.772  68.678  1.00  0.00    -0.285 OA 
HETATM   37  C   UNL     1     -11.352  16.275  68.908  1.00  0.00    -0.317 C  
HETATM   38  O   UNL     1     -11.068  13.887  69.217  1.00  0.00    -0.249 OA 
HETATM   39  H   UNL     1      -9.537  18.000  69.598  1.00  0.00     0.000 HD 
HETATM   40  O   UNL     1     -11.375  16.493  70.297  1.00  0.00    -0.468 OA 
HETATM   41  C   UNL     1     -10.511  15.024  68.604  1.00  0.00    -0.238 C  
HETATM   42  H   UNL     1     -11.751  15.755  70.762  1.00  0.00     0.000 HD 
BRANCH  33  43
HETATM   43  C   UNL     1     -10.071  18.254  65.807  1.00  0.00    -0.012 C  
HETATM   44  O   UNL     1     -10.279  19.493  66.429  1.00  0.00    -0.399 OA 
HETATM   45  H   UNL     1      -9.928  20.205  65.907  1.00  0.00     0.000 HD 
ENDBRANCH  33  43
ENDBRANCH  30  31
ENDBRANCH  29  30
BRANCH  29  46
HETATM   46  C   UNL     1     -11.667  12.683  66.207  1.00  0.00    -0.402 C  
HETATM   47  O   UNL     1     -12.258  11.858  67.184  1.00  0.00    -0.501 OA 
HETATM   48  H   UNL     1     -13.205  11.919  67.154  1.00  0.00     0.000 HD 
BRANCH  46  49
HETATM   49  C   UNL     1     -12.293  12.474  64.809  1.00  0.00    -0.474 C  
HETATM   50  H   UNL     1     -12.404  13.439  63.112  1.00  0.00     0.000 HD 
HETATM   51  O   UNL     1     -12.019  13.568  63.972  1.00  0.00    -0.431 OA 
ENDBRANCH  46  49
ENDBRANCH  29  46
ENDBRANCH  26  29
ENDBRANCH  23  26
ENDBRANCH  21  23
ENDBRANCH  20  21
ENDBRANCH  19  20
ENDBRANCH  18  19
ENDBRANCH  16  18
ENDBRANCH  13  16
ENDBRANCH  10  13
ENDBRANCH   7  10
ENDBRANCH   4   7
ENDBRANCH   2   4
TORSDOF 17
ENDMDL
MODEL      157
REMARK 921   NORMALIZED FREE ENERGY PREDICTED BY IDOCK:   -4.91 KCAL/MOL
REMARK 922        TOTAL FREE ENERGY PREDICTED BY IDOCK:  -13.22 KCAL/MOL
REMARK 923 INTER-LIGAND FREE ENERGY PREDICTED BY IDOCK:   -9.53 KCAL/MOL
REMARK 924 INTRA-LIGAND FREE ENERGY PREDICTED BY IDOCK:   -3.69 KCAL/MOL
REMARK 927      BINDING AFFINITY PREDICTED BY RF-SCORE:    0.00 PKD
ROOT
HETATM    1  O   UNL     1      -7.813   8.720  68.972  1.00  0.00    -0.092 OA 
HETATM    2  C   UNL     1      -7.412   7.395  68.751  1.00  0.00    -0.101 C  
HETATM    3  H   UNL     1      -7.047   9.273  69.072  1.00  0.00     0.000 HD 
ENDROOT
BRANCH   2   4
HETATM    4  C   UNL     1      -8.653   6.500  68.588  1.00  0.00    -0.124 C  
HETATM    5  O   UNL     1      -8.323   5.390  67.791  1.00  0.00    -0.100 OA 
HETATM    6  H   UNL     1      -9.089   4.837  67.690  1.00  0.00     0.000 HD 
BRANCH   4   7
HETATM    7  C   UNL     1      -9.186   6.010  69.960  1.00  0.00    -0.149 C  
HETATM    8  H   UNL     1      -8.740   6.266  71.835  1.00  0.00     0.000 HD 
HETATM    9  O   UNL     1      -8.413   6.566  70.996  1.00  0.00    -0.125 OA 
BRANCH   7  10
HETATM   10  C   UNL     1     -10.673   6.399  70.176  1.00  0.00    -0.271 C  
HETATM   11  H   UNL     1     -12.254   6.540  69.075  1.00  0.00     0.000 HD 
HETATM   12  O   UNL     1     -11.343   6.302  68.943  1.00  0.00    -0.373 OA 
BRANCH  10  13
HETATM   13  C   UNL     1     -10.862   7.834  70.740  1.00  0.00    -0.239 C  
HETATM   14  H   UNL     1     -10.890   9.645  70.039  1.00  0.00     0.000 HD 
HETATM   15  O   UNL     1     -10.775   8.767  69.694  1.00  0.00    -0.231 OA 
BRANCH  13  16
HETATM   16  C   UNL     1     -12.189   8.037  71.433  1.00  0.00    -0.309 C  
HETATM   17  O   UNL     1     -12.529   7.274  72.324  1.00  0.00    -0.202 OA 
BRANCH  16  18
HETATM   18  O   UNL     1     -13.014   9.042  71.078  1.00  0.00    -0.197 OA 
BRANCH  18  19
HETATM   19 CA   UNL     1     -12.070  11.195  70.502  1.00  0.00    -0.224 Ca 
BRANCH  19  20
HETATM   20  O   UNL     1     -11.126  13.347  69.926  1.00  0.00     0.010 OA 
BRANCH  20  21
HETATM   21  C   UNL     1     -11.685  13.770  68.779  1.00  0.00    -0.356 C  
HETATM   22  O   UNL     1     -11.856  14.969  68.636  1.00  0.00    -0.327 OA 
BRANCH  21  23
HETATM   23  C   UNL     1     -12.252  12.803  67.764  1.00  0.00     0.070 C  
HETATM   24  H   UNL     1     -12.518  10.894  67.654  1.00  0.00     0.000 HD 
HETATM   25  O   UNL     1     -12.162  11.502  68.291  1.00  0.00    -0.561 OA 
BRANCH  23  26
HETATM   26  C   UNL     1     -11.551  12.837  66.372  1.00  0.00    -0.378 C  
HETATM   27  H   UNL     1     -11.940  13.540  64.607  1.00  0.00     0.000 HD 
HETATM   28  O   UNL     1     -12.368  13.519  65.455  1.00  0.00    -0.423 OA 
BRANCH  26  29
HETATM   29  C   UNL     1     -10.096  13.417  66.313  1.00  0.00    -0.299 C  
BRANCH  29  30
HETATM   30  O   UNL     1     -10.143  14.530  65.432  1.00  0.00    -0.345 OA 
BRANCH  30  31
HETATM   31  C   UNL     1      -9.433  15.677  65.853  1.00  0.00    -0.341 C  
HETATM   32  O   UNL     1      -8.873  15.461  67.138  1.00  0.00    -0.188 OA 
HETATM   33  C   UNL     1      -8.144  16.601  67.566  1.00  0.00    -0.168 C  
HETATM   34  H   UNL     1     -11.662  17.783  64.682  1.00  0.00     0.000 HD 
HETATM   35  C   UNL     1      -9.105  17.797  67.787  1.00  0.00    -0.249 C  
HETATM   36  O   UNL     1     -10.078  17.477  68.752  1.00  0.00    -0.331 OA 
HETATM   37  C   UNL     1      -9.791  18.121  66.444  1.00  0.00    -0.353 C  
HETATM   38  O   UNL     1     -11.036  17.070  64.648  1.00  0.00    -0.997 OA 
HETATM   39  H   UNL     1     -10.667  18.210  68.887  1.00  0.00     0.000 HD 
HETATM   40  O   UNL     1     -10.766  19.125  66.587  1.00  0.00    -0.417 OA 
HETATM   41  C   UNL     1     -10.454  16.841  65.908  1.00  0.00    -0.301 C  
HETATM   42  H   UNL     1     -11.187  19.325  65.760  1.00  0.00     0.000 HD 
BRANCH  33  43
HETATM   43  C   UNL     1      -7.384  16.223  68.848  1.00  0.00    -0.198 C  
HETATM   44  O   UNL     1      -8.113  15.306  69.620  1.00  0.00    -0.277 OA 
HETATM   45  H   UNL     1      -7.644  15.072  70.411  1.00  0.00     0.000 HD 
ENDBRANCH  33  43
ENDBRANCH  30  31
ENDBRANCH  29  30
BRANCH  29  46
HETATM   46  C   UNL     1      -8.967  12.400  65.918  1.00  0.00     0.201 C  
HETATM   47  O   UNL     1      -9.472  11.384  65.083  1.00  0.00    -0.227 OA 
HETATM   48  H   UNL     1      -8.790  10.769  64.844  1.00  0.00     0.000 HD 
BRANCH  46  49
HETATM   49  C   UNL     1      -8.154  11.832  67.104  1.00  0.00    -0.169 C  
HETATM   50  H   UNL     1      -7.873  12.239  68.995  1.00  0.00     0.000 HD 
HETATM   51  O   UNL     1      -8.373  12.588  68.266  1.00  0.00    -0.166 OA 
ENDBRANCH  46  49
ENDBRANCH  29  46
ENDBRANCH  26  29
ENDBRANCH  23  26
ENDBRANCH  21  23
ENDBRANCH  20  21
ENDBRANCH  19  20
ENDBRANCH  18  19
ENDBRANCH  16  18
ENDBRANCH  13  16
ENDBRANCH  10  13
ENDBRANCH   7  10
ENDBRANCH   4   7
ENDBRANCH   2   4
TORSDOF 17
ENDMDL
MODEL      158
REMARK 921   NORMALIZED FREE ENERGY PREDICTED BY IDOCK:   -4.90 KCAL/MOL
REMARK 922        TOTAL FREE ENERGY PREDICTED BY IDOCK:  -13.21 KCAL/MOL
REMARK 923 INTER-LIGAND FREE ENERGY PREDICTED BY IDOCK:  -10.82 KCAL/MOL
REMARK 924 INTRA-LIGAND FREE ENERGY PREDICTED BY IDOCK:   -2.39 KCAL/MOL
REMARK 927      BINDING AFFINITY PREDICTED BY RF-SCORE:    0.00 PKD
ROOT
HETATM    1  O   UNL     1     -13.432   9.771  70.463  1.00  0.00    -0.606 OA 
HETATM    2  C   UNL     1     -13.196   9.413  71.797  1.00  0.00    -0.411 C  
HETATM    3  H   UNL     1     -13.595  10.705  70.407  1.00  0.00     0.000 HD 
ENDROOT
BRANCH   2   4
HETATM    4  C   UNL     1     -12.932   7.900  71.888  1.00  0.00    -0.298 C  
HETATM    5  O   UNL     1     -13.680   7.238  70.899  1.00  0.00    -0.592 OA 
HETATM    6  H   UNL     1     -13.517   6.304  70.955  1.00  0.00     0.000 HD 
BRANCH   4   7
HETATM    7  C   UNL     1     -11.427   7.572  71.705  1.00  0.00    -0.261 C  
HETATM    8  H   UNL     1      -9.747   8.079  72.542  1.00  0.00     0.000 HD 
HETATM    9  O   UNL     1     -10.669   8.280  72.655  1.00  0.00    -0.343 OA 
BRANCH   7  10
HETATM   10  C   UNL     1     -11.141   6.055  71.859  1.00  0.00    -0.277 C  
HETATM   11  H   UNL     1     -11.899   4.586  72.858  1.00  0.00     0.000 HD 
HETATM   12  O   UNL     1     -12.074   5.515  72.764  1.00  0.00    -0.192 OA 
BRANCH  10  13
HETATM   13  C   UNL     1      -9.707   5.744  72.369  1.00  0.00    -0.159 C  
HETATM   14  H   UNL     1      -8.878   4.504  73.613  1.00  0.00     0.000 HD 
HETATM   15  O   UNL     1      -9.755   4.694  73.301  1.00  0.00    -0.131 OA 
BRANCH  13  16
HETATM   16  C   UNL     1      -8.752   5.344  71.269  1.00  0.00    -0.130 C  
HETATM   17  O   UNL     1      -7.633   4.947  71.554  1.00  0.00    -0.079 OA 
BRANCH  16  18
HETATM   18  O   UNL     1      -9.109   5.430  69.972  1.00  0.00    -0.125 OA 
BRANCH  18  19
HETATM   19 CA   UNL     1      -8.601   7.450  68.740  1.00  0.00    -0.118 Ca 
BRANCH  19  20
HETATM   20  O   UNL     1      -8.093   9.470  67.509  1.00  0.00    -0.109 OA 
BRANCH  20  21
HETATM   21  C   UNL     1      -8.659  10.514  68.139  1.00  0.00    -0.123 C  
HETATM   22  O   UNL     1      -7.936  11.431  68.488  1.00  0.00    -0.130 OA 
BRANCH  21  23
HETATM   23  C   UNL     1     -10.109  10.494  68.569  1.00  0.00    -0.173 C  
HETATM   24  H   UNL     1     -11.327   9.191  69.308  1.00  0.00     0.000 HD 
HETATM   25  O   UNL     1     -10.417   9.204  69.038  1.00  0.00    -0.218 OA 
BRANCH  23  26
HETATM   26  C   UNL     1     -11.124  10.884  67.451  1.00  0.00    -0.307 C  
HETATM   27  H   UNL     1     -13.006  11.338  67.343  1.00  0.00     0.000 HD 
HETATM   28  O   UNL     1     -12.388  11.100  68.024  1.00  0.00    -0.393 OA 
BRANCH  26  29
HETATM   29  C   UNL     1     -10.750  12.096  66.530  1.00  0.00    -0.255 C  
BRANCH  29  30
HETATM   30  O   UNL     1     -11.452  13.220  67.041  1.00  0.00    -0.308 OA 
BRANCH  30  31
HETATM   31  C   UNL     1     -10.848  13.878  68.136  1.00  0.00    -0.249 C  
HETATM   32  O   UNL     1     -11.840  14.315  69.050  1.00  0.00    -0.301 OA 
HETATM   33  C   UNL     1     -11.246  14.965  70.163  1.00  0.00    -0.239 C  
HETATM   34  H   UNL     1      -8.631  15.440  66.285  1.00  0.00     0.000 HD 
HETATM   35  C   UNL     1     -10.565  16.282  69.711  1.00  0.00    -0.316 C  
HETATM   36  O   UNL     1     -11.504  17.144  69.115  1.00  0.00    -0.017 OA 
HETATM   37  C   UNL     1      -9.461  15.931  68.691  1.00  0.00    -0.214 C  
HETATM   38  O   UNL     1      -9.100  14.693  66.638  1.00  0.00    -0.252 OA 
HETATM   39  H   UNL     1     -11.087  17.951  68.838  1.00  0.00     0.000 HD 
HETATM   40  O   UNL     1      -8.871  17.086  68.147  1.00  0.00    -0.214 OA 
HETATM   41  C   UNL     1     -10.083  15.097  67.560  1.00  0.00    -0.232 C  
HETATM   42  H   UNL     1      -8.191  16.870  67.520  1.00  0.00     0.000 HD 
BRANCH  33  43
HETATM   43  C   UNL     1     -12.344  15.209  71.210  1.00  0.00    -0.336 C  
HETATM   44  O   UNL     1     -13.535  15.639  70.608  1.00  0.00    -0.813 OA 
HETATM   45  H   UNL     1     -14.214  15.789  71.255  1.00  0.00     0.000 HD 
ENDBRANCH  33  43
ENDBRANCH  30  31
ENDBRANCH  29  30
BRANCH  29  46
HETATM   46  C   UNL     1     -10.998  11.893  64.994  1.00  0.00    -0.312 C  
HETATM   47  O   UNL     1      -9.783  11.908  64.280  1.00  0.00    -0.411 OA 
HETATM   48  H   UNL     1      -9.933  11.785  63.351  1.00  0.00     0.000 HD 
BRANCH  46  49
HETATM   49  C   UNL     1     -12.053  12.836  64.371  1.00  0.00    -0.416 C  
HETATM   50  H   UNL     1     -13.484  12.733  63.044  1.00  0.00     0.000 HD 
HETATM   51  O   UNL     1     -12.836  12.154  63.426  1.00  0.00    -0.765 OA 
ENDBRANCH  46  49
ENDBRANCH  29  46
ENDBRANCH  26  29
ENDBRANCH  23  26
ENDBRANCH  21  23
ENDBRANCH  20  21
ENDBRANCH  19  20
ENDBRANCH  18  19
ENDBRANCH  16  18
ENDBRANCH  13  16
ENDBRANCH  10  13
ENDBRANCH   7  10
ENDBRANCH   4   7
ENDBRANCH   2   4
TORSDOF 17
ENDMDL
MODEL      159
REMARK 921   NORMALIZED FREE ENERGY PREDICTED BY IDOCK:   -4.90 KCAL/MOL
REMARK 922        TOTAL FREE ENERGY PREDICTED BY IDOCK:  -13.21 KCAL/MOL
REMARK 923 INTER-LIGAND FREE ENERGY PREDICTED BY IDOCK:  -10.07 KCAL/MOL
REMARK 924 INTRA-LIGAND FREE ENERGY PREDICTED BY IDOCK:   -3.14 KCAL/MOL
REMARK 927      BINDING AFFINITY PREDICTED BY RF-SCORE:    0.00 PKD
ROOT
HETATM    1  O   UNL     1     -11.902  11.482  66.996  1.00  0.00    -0.568 OA 
HETATM    2  C   UNL     1     -11.316  12.009  65.837  1.00  0.00    -0.337 C  
HETATM    3  H   UNL     1     -12.456  10.744  66.768  1.00  0.00     0.000 HD 
ENDROOT
BRANCH   2   4
HETATM    4  C   UNL     1     -10.419  13.202  66.207  1.00  0.00    -0.285 C  
HETATM    5  O   UNL     1      -9.677  13.593  65.079  1.00  0.00    -0.578 OA 
HETATM    6  H   UNL     1      -9.123  14.330  65.308  1.00  0.00     0.000 HD 
BRANCH   4   7
HETATM    7  C   UNL     1     -11.254  14.406  66.719  1.00  0.00    -0.337 C  
HETATM    8  H   UNL     1     -13.129  14.919  66.769  1.00  0.00     0.000 HD 
HETATM    9  O   UNL     1     -12.618  14.182  66.456  1.00  0.00    -0.394 OA 
BRANCH   7  10
HETATM   10  C   UNL     1     -11.065  14.638  68.242  1.00  0.00    -0.271 C  
HETATM   11  H   UNL     1      -9.689  14.277  69.548  1.00  0.00     0.000 HD 
HETATM   12  O   UNL     1      -9.805  14.135  68.616  1.00  0.00    -0.225 OA 
BRANCH  10  13
HETATM   13  C   UNL     1     -12.157  13.957  69.112  1.00  0.00    -0.338 C  
HETATM   14  H   UNL     1     -12.325  12.339  70.173  1.00  0.00     0.000 HD 
HETATM   15  O   UNL     1     -11.657  12.755  69.641  1.00  0.00    -0.287 OA 
BRANCH  13  16
HETATM   16  C   UNL     1     -12.625  14.812  70.265  1.00  0.00    -0.315 C  
HETATM   17  O   UNL     1     -12.524  16.027  70.198  1.00  0.00    -0.243 OA 
BRANCH  16  18
HETATM   18  O   UNL     1     -13.146  14.257  71.378  1.00  0.00    -0.321 OA 
BRANCH  18  19
HETATM   19 CA   UNL     1     -13.322  11.847  71.521  1.00  0.00    -0.347 Ca 
BRANCH  19  20
HETATM   20  O   UNL     1     -13.499   9.438  71.663  1.00  0.00    -0.373 OA 
BRANCH  20  21
HETATM   21  C   UNL     1     -12.275   8.906  71.506  1.00  0.00    -0.327 C  
HETATM   22  O   UNL     1     -11.310   9.620  71.719  1.00  0.00    -0.347 OA 
BRANCH  21  23
HETATM   23  C   UNL     1     -12.075   7.528  70.916  1.00  0.00    -0.226 C  
HETATM   24  H   UNL     1     -12.486   5.715  71.438  1.00  0.00     0.000 HD 
HETATM   25  O   UNL     1     -12.611   6.581  71.808  1.00  0.00    -0.335 OA 
BRANCH  23  26
HETATM   26  C   UNL     1     -10.591   7.158  70.614  1.00  0.00    -0.225 C  
HETATM   27  H   UNL     1      -9.374   5.713  71.052  1.00  0.00     0.000 HD 
HETATM   28  O   UNL     1     -10.279   5.938  71.236  1.00  0.00    -0.196 OA 
BRANCH  26  29
HETATM   29  C   UNL     1     -10.154   7.108  69.109  1.00  0.00    -0.183 C  
BRANCH  29  30
HETATM   30  O   UNL     1      -8.767   6.804  69.103  1.00  0.00    -0.130 OA 
BRANCH  30  31
HETATM   31  C   UNL     1      -8.325   5.961  68.059  1.00  0.00    -0.111 C  
HETATM   32  O   UNL     1      -8.363   6.656  66.823  1.00  0.00    -0.112 OA 
HETATM   33  C   UNL     1      -7.907   5.825  65.766  1.00  0.00    -0.102 C  
HETATM   34  H   UNL     1      -9.879   3.311  69.214  1.00  0.00     0.000 HD 
HETATM   35  C   UNL     1      -8.892   4.647  65.550  1.00  0.00    -0.134 C  
HETATM   36  O   UNL     1     -10.178   5.129  65.242  1.00  0.00    -0.392 OA 
HETATM   37  C   UNL     1      -8.945   3.816  66.849  1.00  0.00    -0.142 C  
HETATM   38  O   UNL     1      -9.286   4.052  69.239  1.00  0.00    -0.139 OA 
HETATM   39  H   UNL     1     -10.781   4.407  65.110  1.00  0.00     0.000 HD 
HETATM   40  O   UNL     1      -9.906   2.792  66.772  1.00  0.00    -0.357 OA 
HETATM   41  C   UNL     1      -9.293   4.752  68.019  1.00  0.00    -0.133 C  
HETATM   42  H   UNL     1      -9.938   2.280  67.572  1.00  0.00     0.000 HD 
BRANCH  33  43
HETATM   43  C   UNL     1      -7.760   6.696  64.509  1.00  0.00    -0.112 C  
HETATM   44  O   UNL     1      -8.675   7.759  64.515  1.00  0.00    -0.370 OA 
HETATM   45  H   UNL     1      -8.584   8.297  63.739  1.00  0.00     0.000 HD 
ENDBRANCH  33  43
ENDBRANCH  30  31
ENDBRANCH  29  30
BRANCH  29  46
HETATM   46  C   UNL     1     -10.483   8.383  68.255  1.00  0.00    -0.163 C  
HETATM   47  O   UNL     1     -10.741   8.040  66.914  1.00  0.00    -0.345 OA 
HETATM   48  H   UNL     1     -10.940   8.812  66.398  1.00  0.00     0.000 HD 
BRANCH  46  49
HETATM   49  C   UNL     1      -9.458   9.534  68.378  1.00  0.00    -0.137 C  
HETATM   50  H   UNL     1      -8.194  10.478  67.224  1.00  0.00     0.000 HD 
HETATM   51  O   UNL     1      -8.824   9.771  67.148  1.00  0.00    -0.131 OA 
ENDBRANCH  46  49
ENDBRANCH  29  46
ENDBRANCH  26  29
ENDBRANCH  23  26
ENDBRANCH  21  23
ENDBRANCH  20  21
ENDBRANCH  19  20
ENDBRANCH  18  19
ENDBRANCH  16  18
ENDBRANCH  13  16
ENDBRANCH  10  13
ENDBRANCH   7  10
ENDBRANCH   4   7
ENDBRANCH   2   4
TORSDOF 17
ENDMDL
MODEL      160
REMARK 921   NORMALIZED FREE ENERGY PREDICTED BY IDOCK:   -4.89 KCAL/MOL
REMARK 922        TOTAL FREE ENERGY PREDICTED BY IDOCK:  -13.20 KCAL/MOL
REMARK 923 INTER-LIGAND FREE ENERGY PREDICTED BY IDOCK:  -10.25 KCAL/MOL
REMARK 924 INTRA-LIGAND FREE ENERGY PREDICTED BY IDOCK:   -2.95 KCAL/MOL
REMARK 927      BINDING AFFINITY PREDICTED BY RF-SCORE:    0.00 PKD
ROOT
HETATM    1  O   UNL     1      -6.708   7.400  68.521  1.00  0.00    -0.050 OA 
HETATM    2  C   UNL     1      -7.424   6.735  67.516  1.00  0.00    -0.097 C  
HETATM    3  H   UNL     1      -5.813   7.541  68.236  1.00  0.00     0.000 HD 
ENDROOT
BRANCH   2   4
HETATM    4  C   UNL     1      -8.873   6.507  67.977  1.00  0.00    -0.114 C  
HETATM    5  O   UNL     1      -9.736   6.627  66.874  1.00  0.00    -0.151 OA 
HETATM    6  H   UNL     1     -10.632   6.486  67.159  1.00  0.00     0.000 HD 
BRANCH   4   7
HETATM    7  C   UNL     1      -9.053   5.108  68.624  1.00  0.00    -0.111 C  
HETATM    8  H   UNL     1      -7.914   3.761  69.442  1.00  0.00     0.000 HD 
HETATM    9  O   UNL     1      -7.803   4.618  69.046  1.00  0.00    -0.070 OA 
BRANCH   7  10
HETATM   10  C   UNL     1     -10.016   5.150  69.839  1.00  0.00    -0.246 C  
HETATM   11  H   UNL     1     -11.635   6.095  70.306  1.00  0.00     0.000 HD 
HETATM   12  O   UNL     1     -11.045   6.070  69.561  1.00  0.00    -0.373 OA 
BRANCH  10  13
HETATM   13  C   UNL     1      -9.321   5.560  71.167  1.00  0.00    -0.150 C  
HETATM   14  H   UNL     1      -9.012   7.197  72.164  1.00  0.00     0.000 HD 
HETATM   15  O   UNL     1      -9.438   6.947  71.352  1.00  0.00    -0.160 OA 
BRANCH  13  16
HETATM   16  C   UNL     1      -9.900   4.878  72.383  1.00  0.00    -0.161 C  
HETATM   17  O   UNL     1      -9.572   3.732  72.649  1.00  0.00    -0.123 OA 
BRANCH  16  18
HETATM   18  O   UNL     1     -10.787   5.509  73.179  1.00  0.00    -0.244 OA 
BRANCH  18  19
HETATM   19 CA   UNL     1     -11.417   7.788  72.667  1.00  0.00    -0.248 Ca 
BRANCH  19  20
HETATM   20  O   UNL     1     -12.048  10.067  72.153  1.00  0.00    -0.115 OA 
BRANCH  20  21
HETATM   21  C   UNL     1     -12.712  10.079  70.985  1.00  0.00    -0.362 C  
HETATM   22  O   UNL     1     -13.868   9.691  70.981  1.00  0.00    -0.219 OA 
BRANCH  21  23
HETATM   23  C   UNL     1     -12.018  10.390  69.677  1.00  0.00    -0.136 C  
HETATM   24  H   UNL     1     -10.598   9.605  68.631  1.00  0.00     0.000 HD 
HETATM   25  O   UNL     1     -11.034   9.410  69.452  1.00  0.00    -0.222 OA 
BRANCH  23  26
HETATM   26  C   UNL     1     -11.357  11.800  69.611  1.00  0.00    -0.215 C  
HETATM   27  H   UNL     1      -9.590  12.520  69.268  1.00  0.00     0.000 HD 
HETATM   28  O   UNL     1      -9.992  11.661  69.308  1.00  0.00     0.037 OA 
BRANCH  26  29
HETATM   29  C   UNL     1     -12.005  12.854  68.647  1.00  0.00    -0.247 C  
BRANCH  29  30
HETATM   30  O   UNL     1     -11.097  13.021  67.567  1.00  0.00    -0.252 OA 
BRANCH  30  31
HETATM   31  C   UNL     1     -11.417  12.321  66.382  1.00  0.00    -0.378 C  
HETATM   32  O   UNL     1     -10.281  11.614  65.912  1.00  0.00    -0.222 OA 
HETATM   33  C   UNL     1     -10.592  10.893  64.729  1.00  0.00    -0.246 C  
HETATM   34  H   UNL     1     -13.236  14.757  65.146  1.00  0.00     0.000 HD 
HETATM   35  C   UNL     1     -10.910  11.877  63.573  1.00  0.00    -0.434 C  
HETATM   36  O   UNL     1      -9.812  12.723  63.329  1.00  0.00    -0.541 OA 
HETATM   37  C   UNL     1     -12.136  12.721  63.979  1.00  0.00    -0.457 C  
HETATM   38  O   UNL     1     -12.970  14.108  65.785  1.00  0.00    -0.492 OA 
HETATM   39  H   UNL     1     -10.007  13.325  62.621  1.00  0.00     0.000 HD 
HETATM   40  O   UNL     1     -12.419  13.718  63.028  1.00  0.00    -1.068 OA 
HETATM   41  C   UNL     1     -11.851  13.381  65.339  1.00  0.00    -0.353 C  
HETATM   42  H   UNL     1     -13.174  14.236  63.278  1.00  0.00     0.000 HD 
BRANCH  33  43
HETATM   43  C   UNL     1      -9.399   9.982  64.403  1.00  0.00    -0.290 C  
HETATM   44  O   UNL     1      -9.508   8.746  65.057  1.00  0.00    -0.407 OA 
HETATM   45  H   UNL     1      -8.771   8.183  64.855  1.00  0.00     0.000 HD 
ENDBRANCH  33  43
ENDBRANCH  30  31
ENDBRANCH  29  30
BRANCH  29  46
HETATM   46  C   UNL     1     -12.405  14.224  69.299  1.00  0.00    -0.162 C  
HETATM   47  O   UNL     1     -12.069  15.301  68.455  1.00  0.00    -0.555 OA 
HETATM   48  H   UNL     1     -12.311  16.130  68.849  1.00  0.00     0.000 HD 
BRANCH  46  49
HETATM   49  C   UNL     1     -11.900  14.434  70.745  1.00  0.00    -0.285 C  
HETATM   50  H   UNL     1     -10.790  15.713  71.720  1.00  0.00     0.000 HD 
HETATM   51  O   UNL     1     -11.100  15.585  70.832  1.00  0.00    -0.327 OA 
ENDBRANCH  46  49
ENDBRANCH  29  46
ENDBRANCH  26  29
ENDBRANCH  23  26
ENDBRANCH  21  23
ENDBRANCH  20  21
ENDBRANCH  19  20
ENDBRANCH  18  19
ENDBRANCH  16  18
ENDBRANCH  13  16
ENDBRANCH  10  13
ENDBRANCH   7  10
ENDBRANCH   4   7
ENDBRANCH   2   4
TORSDOF 17
ENDMDL
MODEL      161
REMARK 921   NORMALIZED FREE ENERGY PREDICTED BY IDOCK:   -4.84 KCAL/MOL
REMARK 922        TOTAL FREE ENERGY PREDICTED BY IDOCK:  -13.10 KCAL/MOL
REMARK 923 INTER-LIGAND FREE ENERGY PREDICTED BY IDOCK:  -10.68 KCAL/MOL
REMARK 924 INTRA-LIGAND FREE ENERGY PREDICTED BY IDOCK:   -2.42 KCAL/MOL
REMARK 927      BINDING AFFINITY PREDICTED BY RF-SCORE:    0.00 PKD
ROOT
HETATM    1  O   UNL     1      -8.606  15.918  69.076  1.00  0.00    -0.209 OA 
HETATM    2  C   UNL     1      -7.570  16.504  68.335  1.00  0.00    -0.189 C  
HETATM    3  H   UNL     1      -8.715  15.012  68.812  1.00  0.00     0.000 HD 
ENDROOT
BRANCH   2   4
HETATM    4  C   UNL     1      -7.394  17.971  68.763  1.00  0.00    -0.273 C  
HETATM    5  O   UNL     1      -6.070  18.371  68.513  1.00  0.00    -0.186 OA 
HETATM    6  H   UNL     1      -5.961  19.278  68.777  1.00  0.00     0.000 HD 
BRANCH   4   7
HETATM    7  C   UNL     1      -8.370  18.907  68.002  1.00  0.00    -0.294 C  
HETATM    8  H   UNL     1      -8.384  20.752  67.388  1.00  0.00     0.000 HD 
HETATM    9  O   UNL     1      -7.787  20.179  67.854  1.00  0.00    -0.291 OA 
BRANCH   7  10
HETATM   10  C   UNL     1      -8.732  18.351  66.599  1.00  0.00    -0.286 C  
HETATM   11  H   UNL     1      -8.503  18.924  64.769  1.00  0.00     0.000 HD 
HETATM   12  O   UNL     1      -8.282  19.265  65.628  1.00  0.00    -0.394 OA 
BRANCH  10  13
HETATM   13  C   UNL     1     -10.255  18.115  66.401  1.00  0.00    -0.399 C  
HETATM   14  H   UNL     1     -11.633  18.692  65.160  1.00  0.00     0.000 HD 
HETATM   15  O   UNL     1     -10.702  18.836  65.282  1.00  0.00    -0.541 OA 
BRANCH  13  16
HETATM   16  C   UNL     1     -10.615  16.664  66.192  1.00  0.00    -0.215 C  
HETATM   17  O   UNL     1     -10.699  16.218  65.058  1.00  0.00    -0.600 OA 
BRANCH  16  18
HETATM   18  O   UNL     1     -10.858  15.849  67.238  1.00  0.00    -0.319 OA 
BRANCH  18  19
HETATM   19 CA   UNL     1      -9.430  13.927  67.593  1.00  0.00    -0.180 Ca 
BRANCH  19  20
HETATM   20  O   UNL     1      -8.003  12.006  67.947  1.00  0.00    -0.128 OA 
BRANCH  20  21
HETATM   21  C   UNL     1      -8.566  10.936  67.360  1.00  0.00    -0.127 C  
HETATM   22  O   UNL     1      -8.302  10.721  66.190  1.00  0.00    -0.156 OA 
BRANCH  21  23
HETATM   23  C   UNL     1      -9.630  10.114  68.054  1.00  0.00    -0.145 C  
HETATM   24  H   UNL     1     -10.964   8.825  67.522  1.00  0.00     0.000 HD 
HETATM   25  O   UNL     1     -10.297   9.341  67.086  1.00  0.00    -0.236 OA 
BRANCH  23  26
HETATM   26  C   UNL     1     -10.679  10.948  68.850  1.00  0.00    -0.215 C  
HETATM   27  H   UNL     1     -12.563  11.379  68.688  1.00  0.00     0.000 HD 
HETATM   28  O   UNL     1     -11.923  10.871  68.203  1.00  0.00    -0.581 OA 
BRANCH  26  29
HETATM   29  C   UNL     1     -10.857  10.616  70.372  1.00  0.00     0.012 C  
BRANCH  29  30
HETATM   30  O   UNL     1     -10.619   9.223  70.510  1.00  0.00    -0.215 OA 
BRANCH  30  31
HETATM   31  C   UNL     1     -10.438   8.757  71.832  1.00  0.00    -0.353 C  
HETATM   32  O   UNL     1      -9.057   8.591  72.106  1.00  0.00    -0.217 OA 
HETATM   33  C   UNL     1      -8.860   8.138  73.436  1.00  0.00    -0.253 C  
HETATM   34  H   UNL     1     -12.985   6.690  71.710  1.00  0.00     0.000 HD 
HETATM   35  C   UNL     1      -9.436   6.708  73.604  1.00  0.00    -0.164 C  
HETATM   36  O   UNL     1      -8.813   5.817  72.711  1.00  0.00    -0.122 OA 
HETATM   37  C   UNL     1     -10.951   6.761  73.315  1.00  0.00    -0.218 C  
HETATM   38  O   UNL     1     -12.539   7.525  71.649  1.00  0.00    -0.322 OA 
HETATM   39  H   UNL     1      -9.167   4.941  72.814  1.00  0.00     0.000 HD 
HETATM   40  O   UNL     1     -11.528   5.478  73.336  1.00  0.00    -0.490 OA 
HETATM   41  C   UNL     1     -11.167   7.393  71.930  1.00  0.00    -0.247 C  
HETATM   42  H   UNL     1     -12.461   5.511  73.159  1.00  0.00     0.000 HD 
BRANCH  33  43
HETATM   43  C   UNL     1      -7.354   8.195  73.738  1.00  0.00    -0.154 C  
HETATM   44  O   UNL     1      -7.029   9.327  74.499  1.00  0.00    -0.391 OA 
HETATM   45  H   UNL     1      -6.099   9.362  74.685  1.00  0.00     0.000 HD 
ENDBRANCH  33  43
ENDBRANCH  30  31
ENDBRANCH  29  30
BRANCH  29  46
HETATM   46  C   UNL     1     -12.223  11.047  71.014  1.00  0.00    -0.351 C  
HETATM   47  O   UNL     1     -13.288  10.285  70.494  1.00  0.00    -0.515 OA 
HETATM   48  H   UNL     1     -14.114  10.546  70.882  1.00  0.00     0.000 HD 
BRANCH  46  49
HETATM   49  C   UNL     1     -12.515  12.565  70.972  1.00  0.00    -0.258 C  
HETATM   50  H   UNL     1     -13.398  13.902  72.093  1.00  0.00     0.000 HD 
HETATM   51  O   UNL     1     -13.218  12.969  72.118  1.00  0.00    -0.458 OA 
ENDBRANCH  46  49
ENDBRANCH  29  46
ENDBRANCH  26  29
ENDBRANCH  23  26
ENDBRANCH  21  23
ENDBRANCH  20  21
ENDBRANCH  19  20
ENDBRANCH  18  19
ENDBRANCH  16  18
ENDBRANCH  13  16
ENDBRANCH  10  13
ENDBRANCH   7  10
ENDBRANCH   4   7
ENDBRANCH   2   4
TORSDOF 17
ENDMDL
MODEL      162
REMARK 921   NORMALIZED FREE ENERGY PREDICTED BY IDOCK:   -4.84 KCAL/MOL
REMARK 922        TOTAL FREE ENERGY PREDICTED BY IDOCK:  -13.10 KCAL/MOL
REMARK 923 INTER-LIGAND FREE ENERGY PREDICTED BY IDOCK:   -9.90 KCAL/MOL
REMARK 924 INTRA-LIGAND FREE ENERGY PREDICTED BY IDOCK:   -3.20 KCAL/MOL
REMARK 927      BINDING AFFINITY PREDICTED BY RF-SCORE:    0.00 PKD
ROOT
HETATM    1  O   UNL     1     -13.111  11.796  71.546  1.00  0.00    -0.407 OA 
HETATM    2  C   UNL     1     -12.930  10.442  71.862  1.00  0.00    -0.450 C  
HETATM    3  H   UNL     1     -13.792  12.164  72.097  1.00  0.00     0.000 HD 
ENDROOT
BRANCH   2   4
HETATM    4  C   UNL     1     -11.828   9.846  70.970  1.00  0.00    -0.376 C  
HETATM    5  O   UNL     1     -11.052  10.887  70.432  1.00  0.00    -0.464 OA 
HETATM    6  H   UNL     1     -10.371  10.519  69.881  1.00  0.00     0.000 HD 
BRANCH   4   7
HETATM    7  C   UNL     1     -10.913   8.877  71.765  1.00  0.00    -0.361 C  
HETATM    8  H   UNL     1     -11.086   7.687  73.292  1.00  0.00     0.000 HD 
HETATM    9  O   UNL     1     -11.647   8.280  72.806  1.00  0.00    -0.395 OA 
BRANCH   7  10
HETATM   10  C   UNL     1     -10.322   7.763  70.860  1.00  0.00    -0.200 C  
HETATM   11  H   UNL     1      -9.744   7.617  69.022  1.00  0.00     0.000 HD 
HETATM   12  O   UNL     1     -10.106   8.299  69.577  1.00  0.00    -0.188 OA 
BRANCH  10  13
HETATM   13  C   UNL     1     -11.240   6.516  70.735  1.00  0.00    -0.321 C  
HETATM   14  H   UNL     1     -12.176   5.574  69.318  1.00  0.00     0.000 HD 
HETATM   15  O   UNL     1     -11.615   6.337  69.394  1.00  0.00    -0.403 OA 
BRANCH  13  16
HETATM   16  C   UNL     1     -10.584   5.239  71.208  1.00  0.00    -0.172 C  
HETATM   17  O   UNL     1     -10.784   4.841  72.345  1.00  0.00    -0.204 OA 
BRANCH  16  18
HETATM   18  O   UNL     1      -9.770   4.533  70.398  1.00  0.00    -0.181 OA 
BRANCH  18  19
HETATM   19 CA   UNL     1      -8.509   5.696  68.691  1.00  0.00    -0.098 Ca 
BRANCH  19  20
HETATM   20  O   UNL     1      -7.247   6.859  66.984  1.00  0.00    -0.080 OA 
BRANCH  20  21
HETATM   21  C   UNL     1      -8.076   7.176  65.975  1.00  0.00    -0.115 C  
HETATM   22  O   UNL     1      -8.518   6.267  65.293  1.00  0.00    -0.151 OA 
BRANCH  21  23
HETATM   23  C   UNL     1      -8.327   8.612  65.571  1.00  0.00    -0.150 C  
HETATM   24  H   UNL     1      -8.269   9.629  63.932  1.00  0.00     0.000 HD 
HETATM   25  O   UNL     1      -8.112   8.728  64.186  1.00  0.00    -0.147 OA 
BRANCH  23  26
HETATM   26  C   UNL     1      -7.443   9.660  66.312  1.00  0.00    -0.098 C  
HETATM   27  H   UNL     1      -6.240  11.099  65.820  1.00  0.00     0.000 HD 
HETATM   28  O   UNL     1      -6.779  10.460  65.368  1.00  0.00    -0.127 OA 
BRANCH  26  29
HETATM   29  C   UNL     1      -8.147  10.573  67.374  1.00  0.00    -0.111 C  
BRANCH  29  30
HETATM   30  O   UNL     1      -8.341  11.835  66.752  1.00  0.00    -0.173 OA 
BRANCH  30  31
HETATM   31  C   UNL     1      -9.682  12.271  66.651  1.00  0.00    -0.222 C  
HETATM   32  O   UNL     1     -10.191  11.986  65.359  1.00  0.00    -0.248 OA 
HETATM   33  C   UNL     1     -11.543  12.405  65.248  1.00  0.00    -0.373 C  
HETATM   34  H   UNL     1      -9.157  15.052  68.314  1.00  0.00     0.000 HD 
HETATM   35  C   UNL     1     -11.631  13.951  65.340  1.00  0.00    -0.325 C  
HETATM   36  O   UNL     1     -10.873  14.550  64.317  1.00  0.00    -0.599 OA 
HETATM   37  C   UNL     1     -11.086  14.386  66.716  1.00  0.00    -0.323 C  
HETATM   38  O   UNL     1      -9.161  14.115  68.165  1.00  0.00    -0.181 OA 
HETATM   39  H   UNL     1     -10.927  15.497  64.374  1.00  0.00     0.000 HD 
HETATM   40  O   UNL     1     -11.028  15.787  66.832  1.00  0.00    -0.300 OA 
HETATM   41  C   UNL     1      -9.675  13.802  66.894  1.00  0.00    -0.265 C  
HETATM   42  H   UNL     1     -10.693  16.054  67.680  1.00  0.00     0.000 HD 
BRANCH  33  43
HETATM   43  C   UNL     1     -12.097  11.871  63.918  1.00  0.00    -0.401 C  
HETATM   44  O   UNL     1     -12.779  12.872  63.211  1.00  0.00    -0.660 OA 
HETATM   45  H   UNL     1     -13.121  12.542  62.389  1.00  0.00     0.000 HD 
ENDBRANCH  33  43
ENDBRANCH  30  31
ENDBRANCH  29  30
BRANCH  29  46
HETATM   46  C   UNL     1      -7.418  10.704  68.758  1.00  0.00    -0.104 C  
HETATM   47  O   UNL     1      -8.347  10.880  69.803  1.00  0.00    -0.340 OA 
HETATM   48  H   UNL     1      -7.907  10.959  70.640  1.00  0.00     0.000 HD 
BRANCH  46  49
HETATM   49  C   UNL     1      -6.282  11.752  68.804  1.00  0.00    -0.057 C  
HETATM   50  H   UNL     1      -5.140  12.593  70.148  1.00  0.00     0.000 HD 
HETATM   51  O   UNL     1      -5.838  11.949  70.120  1.00  0.00    -0.129 OA 
ENDBRANCH  46  49
ENDBRANCH  29  46
ENDBRANCH  26  29
ENDBRANCH  23  26
ENDBRANCH  21  23
ENDBRANCH  20  21
ENDBRANCH  19  20
ENDBRANCH  18  19
ENDBRANCH  16  18
ENDBRANCH  13  16
ENDBRANCH  10  13
ENDBRANCH   7  10
ENDBRANCH   4   7
ENDBRANCH   2   4
TORSDOF 17
ENDMDL
MODEL      163
REMARK 921   NORMALIZED FREE ENERGY PREDICTED BY IDOCK:   -4.82 KCAL/MOL
REMARK 922        TOTAL FREE ENERGY PREDICTED BY IDOCK:  -13.06 KCAL/MOL
REMARK 923 INTER-LIGAND FREE ENERGY PREDICTED BY IDOCK:  -10.70 KCAL/MOL
REMARK 924 INTRA-LIGAND FREE ENERGY PREDICTED BY IDOCK:   -2.36 KCAL/MOL
REMARK 927      BINDING AFFINITY PREDICTED BY RF-SCORE:    0.00 PKD
ROOT
HETATM    1  O   UNL     1      -7.976   3.111  65.862  1.00  0.00    -0.084 OA 
HETATM    2  C   UNL     1      -9.350   3.125  65.588  1.00  0.00    -0.112 C  
HETATM    3  H   UNL     1      -7.616   2.258  65.648  1.00  0.00     0.000 HD 
ENDROOT
BRANCH   2   4
HETATM    4  C   UNL     1      -9.933   4.506  65.933  1.00  0.00    -0.244 C  
HETATM    5  O   UNL     1     -11.228   4.610  65.398  1.00  0.00    -0.927 OA 
HETATM    6  H   UNL     1     -11.588   5.464  65.611  1.00  0.00     0.000 HD 
BRANCH   4   7
HETATM    7  C   UNL     1      -9.988   4.734  67.467  1.00  0.00    -0.144 C  
HETATM    8  H   UNL     1      -9.686   3.682  69.075  1.00  0.00     0.000 HD 
HETATM    9  O   UNL     1      -9.652   3.542  68.136  1.00  0.00    -0.174 OA 
BRANCH   7  10
HETATM   10  C   UNL     1      -9.019   5.858  67.921  1.00  0.00    -0.111 C  
HETATM   11  H   UNL     1      -7.672   6.072  69.289  1.00  0.00     0.000 HD 
HETATM   12  O   UNL     1      -8.265   5.383  69.011  1.00  0.00    -0.092 OA 
BRANCH  10  13
HETATM   13  C   UNL     1      -9.743   7.166  68.343  1.00  0.00    -0.142 C  
HETATM   14  H   UNL     1      -9.669   8.419  69.825  1.00  0.00     0.000 HD 
HETATM   15  O   UNL     1      -9.226   7.618  69.568  1.00  0.00    -0.150 OA 
BRANCH  13  16
HETATM   16  C   UNL     1      -9.597   8.283  67.337  1.00  0.00    -0.160 C  
HETATM   17  O   UNL     1     -10.566   8.642  66.685  1.00  0.00    -0.240 OA 
BRANCH  16  18
HETATM   18  O   UNL     1      -8.410   8.888  67.135  1.00  0.00    -0.103 OA 
BRANCH  18  19
HETATM   19 CA   UNL     1      -8.087  11.150  67.933  1.00  0.00    -0.101 Ca 
BRANCH  19  20
HETATM   20  O   UNL     1      -7.765  13.411  68.731  1.00  0.00    -0.119 OA 
BRANCH  20  21
HETATM   21  C   UNL     1      -6.945  14.056  67.883  1.00  0.00    -0.161 C  
HETATM   22  O   UNL     1      -5.896  13.513  67.580  1.00  0.00    -0.308 OA 
BRANCH  21  23
HETATM   23  C   UNL     1      -7.211  15.479  67.445  1.00  0.00    -0.209 C  
HETATM   24  H   UNL     1      -6.183  17.106  67.293  1.00  0.00     0.000 HD 
HETATM   25  O   UNL     1      -6.017  16.212  67.568  1.00  0.00    -0.143 OA 
BRANCH  23  26
HETATM   26  C   UNL     1      -8.338  16.205  68.240  1.00  0.00    -0.171 C  
HETATM   27  H   UNL     1      -8.448  17.440  69.731  1.00  0.00     0.000 HD 
HETATM   28  O   UNL     1      -7.761  16.998  69.246  1.00  0.00    -0.174 OA 
BRANCH  26  29
HETATM   29  C   UNL     1      -9.362  17.061  67.418  1.00  0.00    -0.239 C  
BRANCH  29  30
HETATM   30  O   UNL     1      -9.587  16.361  66.203  1.00  0.00    -0.290 OA 
BRANCH  30  31
HETATM   31  C   UNL     1     -10.698  15.487  66.194  1.00  0.00    -0.313 C  
HETATM   32  O   UNL     1     -10.326  14.219  66.708  1.00  0.00    -0.268 OA 
HETATM   33  C   UNL     1     -11.437  13.336  66.719  1.00  0.00    -0.350 C  
HETATM   34  H   UNL     1     -11.786  16.512  63.271  1.00  0.00     0.000 HD 
HETATM   35  C   UNL     1     -11.881  13.021  65.268  1.00  0.00    -0.376 C  
HETATM   36  O   UNL     1     -10.827  12.434  64.544  1.00  0.00    -0.289 OA 
HETATM   37  C   UNL     1     -12.304  14.343  64.593  1.00  0.00    -0.418 C  
HETATM   38  O   UNL     1     -11.510  16.596  64.176  1.00  0.00    -1.131 OA 
HETATM   39  H   UNL     1     -11.100  12.241  63.655  1.00  0.00     0.000 HD 
HETATM   40  O   UNL     1     -12.614  14.156  63.234  1.00  0.00    -1.080 OA 
HETATM   41  C   UNL     1     -11.148  15.349  64.718  1.00  0.00    -0.403 C  
HETATM   42  H   UNL     1     -12.874  14.970  62.819  1.00  0.00     0.000 HD 
BRANCH  33  43
HETATM   43  C   UNL     1     -11.027  12.070  67.488  1.00  0.00    -0.253 C  
HETATM   44  O   UNL     1     -11.897  11.004  67.215  1.00  0.00    -0.468 OA 
HETATM   45  H   UNL     1     -11.644  10.222  67.689  1.00  0.00     0.000 HD 
ENDBRANCH  33  43
ENDBRANCH  30  31
ENDBRANCH  29  30
BRANCH  29  46
HETATM   46  C   UNL     1      -8.961  18.558  67.170  1.00  0.00    -0.277 C  
HETATM   47  O   UNL     1      -9.956  19.433  67.650  1.00  0.00    -0.332 OA 
HETATM   48  H   UNL     1      -9.714  20.339  67.500  1.00  0.00     0.000 HD 
BRANCH  46  49
HETATM   49  C   UNL     1      -8.540  18.891  65.720  1.00  0.00     0.363 C  
HETATM   50  H   UNL     1      -6.907  18.875  64.645  1.00  0.00     0.000 HD 
HETATM   51  O   UNL     1      -7.166  18.671  65.536  1.00  0.00    -0.506 OA 
ENDBRANCH  46  49
ENDBRANCH  29  46
ENDBRANCH  26  29
ENDBRANCH  23  26
ENDBRANCH  21  23
ENDBRANCH  20  21
ENDBRANCH  19  20
ENDBRANCH  18  19
ENDBRANCH  16  18
ENDBRANCH  13  16
ENDBRANCH  10  13
ENDBRANCH   7  10
ENDBRANCH   4   7
ENDBRANCH   2   4
TORSDOF 17
ENDMDL
MODEL      164
REMARK 921   NORMALIZED FREE ENERGY PREDICTED BY IDOCK:   -4.82 KCAL/MOL
REMARK 922        TOTAL FREE ENERGY PREDICTED BY IDOCK:  -13.06 KCAL/MOL
REMARK 923 INTER-LIGAND FREE ENERGY PREDICTED BY IDOCK:  -10.90 KCAL/MOL
REMARK 924 INTRA-LIGAND FREE ENERGY PREDICTED BY IDOCK:   -2.16 KCAL/MOL
REMARK 927      BINDING AFFINITY PREDICTED BY RF-SCORE:    0.00 PKD
ROOT
HETATM    1  O   UNL     1     -10.949   7.889  68.739  1.00  0.00    -0.419 OA 
HETATM    2  C   UNL     1      -9.551   7.905  68.838  1.00  0.00    -0.155 C  
HETATM    3  H   UNL     1     -11.212   8.200  67.881  1.00  0.00     0.000 HD 
ENDROOT
BRANCH   2   4
HETATM    4  C   UNL     1      -9.124   7.403  70.228  1.00  0.00    -0.151 C  
HETATM    5  O   UNL     1      -7.789   6.966  70.174  1.00  0.00    -0.102 OA 
HETATM    6  H   UNL     1      -7.526   6.655  71.033  1.00  0.00     0.000 HD 
BRANCH   4   7
HETATM    7  C   UNL     1      -9.262   8.513  71.303  1.00  0.00    -0.200 C  
HETATM    8  H   UNL     1     -10.378  10.078  71.599  1.00  0.00     0.000 HD 
HETATM    9  O   UNL     1     -10.294   9.398  70.940  1.00  0.00    -0.270 OA 
BRANCH   7  10
HETATM   10  C   UNL     1      -9.569   7.927  72.706  1.00  0.00    -0.247 C  
HETATM   11  H   UNL     1      -8.988   6.402  73.740  1.00  0.00     0.000 HD 
HETATM   12  O   UNL     1      -8.800   6.761  72.881  1.00  0.00    -0.125 OA 
BRANCH  10  13
HETATM   13  C   UNL     1     -11.068   7.576  72.916  1.00  0.00    -0.375 C  
HETATM   14  H   UNL     1     -12.780   8.473  72.722  1.00  0.00     0.000 HD 
HETATM   15  O   UNL     1     -11.863   8.688  72.594  1.00  0.00    -0.334 OA 
BRANCH  13  16
HETATM   16  C   UNL     1     -11.536   6.412  72.074  1.00  0.00    -0.305 C  
HETATM   17  O   UNL     1     -11.313   5.270  72.443  1.00  0.00    -0.213 OA 
BRANCH  16  18
HETATM   18  O   UNL     1     -12.187   6.612  70.910  1.00  0.00    -0.368 OA 
BRANCH  18  19
HETATM   19 CA   UNL     1     -12.538   8.876  70.129  1.00  0.00    -0.488 Ca 
BRANCH  19  20
HETATM   20  O   UNL     1     -12.889  11.139  69.348  1.00  0.00    -0.145 OA 
BRANCH  20  21
HETATM   21  C   UNL     1     -11.869  11.481  68.542  1.00  0.00    -0.297 C  
HETATM   22  O   UNL     1     -11.536  10.689  67.676  1.00  0.00    -0.492 OA 
BRANCH  21  23
HETATM   23  C   UNL     1     -11.035  12.717  68.792  1.00  0.00    -0.250 C  
HETATM   24  H   UNL     1     -11.181  14.299  69.889  1.00  0.00     0.000 HD 
HETATM   25  O   UNL     1     -11.705  13.522  69.732  1.00  0.00    -0.293 OA 
BRANCH  23  26
HETATM   26  C   UNL     1     -10.732  13.566  67.520  1.00  0.00    -0.259 C  
HETATM   27  H   UNL     1     -11.578  15.017  66.551  1.00  0.00     0.000 HD 
HETATM   28  O   UNL     1     -11.763  14.500  67.327  1.00  0.00    -0.380 OA 
BRANCH  26  29
HETATM   29  C   UNL     1      -9.345  14.292  67.453  1.00  0.00    -0.203 C  
BRANCH  29  30
HETATM   30  O   UNL     1      -9.346  15.051  66.252  1.00  0.00    -0.282 OA 
BRANCH  30  31
HETATM   31  C   UNL     1      -8.920  16.393  66.372  1.00  0.00    -0.305 C  
HETATM   32  O   UNL     1      -8.340  16.608  67.648  1.00  0.00    -0.170 OA 
HETATM   33  C   UNL     1      -7.893  17.950  67.776  1.00  0.00    -0.221 C  
HETATM   34  H   UNL     1     -11.558  17.619  64.850  1.00  0.00     0.000 HD 
HETATM   35  C   UNL     1      -9.104  18.918  67.761  1.00  0.00    -0.290 C  
HETATM   36  O   UNL     1      -9.989  18.619  68.813  1.00  0.00    -0.375 OA 
HETATM   37  C   UNL     1      -9.831  18.763  66.409  1.00  0.00    -0.373 C  
HETATM   38  O   UNL     1     -10.786  17.076  64.952  1.00  0.00    -0.717 OA 
HETATM   39  H   UNL     1     -10.730  19.213  68.803  1.00  0.00     0.000 HD 
HETATM   40  O   UNL     1     -11.010  19.529  66.363  1.00  0.00    -0.368 OA 
HETATM   41  C   UNL     1     -10.180  17.280  66.206  1.00  0.00    -0.342 C  
HETATM   42  H   UNL     1     -11.458  19.434  65.530  1.00  0.00     0.000 HD 
BRANCH  33  43
HETATM   43  C   UNL     1      -7.082  18.056  69.077  1.00  0.00    -0.236 C  
HETATM   44  O   UNL     1      -6.665  19.374  69.310  1.00  0.00    -0.312 OA 
HETATM   45  H   UNL     1      -6.164  19.440  70.114  1.00  0.00     0.000 HD 
ENDBRANCH  33  43
ENDBRANCH  30  31
ENDBRANCH  29  30
BRANCH  29  46
HETATM   46  C   UNL     1      -8.080  13.369  67.565  1.00  0.00    -0.181 C  
HETATM   47  O   UNL     1      -6.912  14.065  67.197  1.00  0.00    -0.394 OA 
HETATM   48  H   UNL     1      -6.148  13.507  67.266  1.00  0.00     0.000 HD 
BRANCH  46  49
HETATM   49  C   UNL     1      -8.200  12.005  66.846  1.00  0.00    -0.146 C  
HETATM   50  H   UNL     1      -8.122  10.109  67.313  1.00  0.00     0.000 HD 
HETATM   51  O   UNL     1      -8.049  10.947  67.755  1.00  0.00    -0.112 OA 
ENDBRANCH  46  49
ENDBRANCH  29  46
ENDBRANCH  26  29
ENDBRANCH  23  26
ENDBRANCH  21  23
ENDBRANCH  20  21
ENDBRANCH  19  20
ENDBRANCH  18  19
ENDBRANCH  16  18
ENDBRANCH  13  16
ENDBRANCH  10  13
ENDBRANCH   7  10
ENDBRANCH   4   7
ENDBRANCH   2   4
TORSDOF 17
ENDMDL
MODEL      165
REMARK 921   NORMALIZED FREE ENERGY PREDICTED BY IDOCK:   -4.82 KCAL/MOL
REMARK 922        TOTAL FREE ENERGY PREDICTED BY IDOCK:  -13.05 KCAL/MOL
REMARK 923 INTER-LIGAND FREE ENERGY PREDICTED BY IDOCK:   -9.41 KCAL/MOL
REMARK 924 INTRA-LIGAND FREE ENERGY PREDICTED BY IDOCK:   -3.64 KCAL/MOL
REMARK 927      BINDING AFFINITY PREDICTED BY RF-SCORE:    0.00 PKD
ROOT
HETATM    1  O   UNL     1     -10.648  17.996  65.418  1.00  0.00    -0.648 OA 
HETATM    2  C   UNL     1      -9.738  17.111  66.013  1.00  0.00    -0.189 C  
HETATM    3  H   UNL     1     -10.312  18.282  64.576  1.00  0.00     0.000 HD 
ENDROOT
BRANCH   2   4
HETATM    4  C   UNL     1     -10.282  16.648  67.375  1.00  0.00    -0.286 C  
HETATM    5  O   UNL     1     -10.698  17.769  68.114  1.00  0.00    -0.366 OA 
HETATM    6  H   UNL     1     -11.034  17.482  68.956  1.00  0.00     0.000 HD 
BRANCH   4   7
HETATM    7  C   UNL     1     -11.471  15.666  67.210  1.00  0.00    -0.037 C  
HETATM    8  H   UNL     1     -12.207  14.545  65.801  1.00  0.00     0.000 HD 
HETATM    9  O   UNL     1     -11.478  15.146  65.902  1.00  0.00    -0.284 OA 
BRANCH   7  10
HETATM   10  C   UNL     1     -11.398  14.490  68.220  1.00  0.00    -0.297 C  
HETATM   11  H   UNL     1     -10.589  14.182  69.946  1.00  0.00     0.000 HD 
HETATM   12  O   UNL     1     -10.634  14.902  69.328  1.00  0.00    -0.233 OA 
BRANCH  10  13
HETATM   13  C   UNL     1     -10.767  13.201  67.625  1.00  0.00    -0.238 C  
HETATM   14  H   UNL     1      -9.047  12.302  67.682  1.00  0.00     0.000 HD 
HETATM   15  O   UNL     1      -9.432  13.091  68.046  1.00  0.00    -0.204 OA 
BRANCH  13  16
HETATM   16  C   UNL     1     -11.488  11.938  68.031  1.00  0.00    -0.323 C  
HETATM   17  O   UNL     1     -11.978  11.218  67.174  1.00  0.00    -0.470 OA 
BRANCH  16  18
HETATM   18  O   UNL     1     -11.613  11.593  69.328  1.00  0.00    -0.265 OA 
BRANCH  18  19
HETATM   19 CA   UNL     1     -11.931   9.264  69.904  1.00  0.00    -0.398 Ca 
BRANCH  19  20
HETATM   20  O   UNL     1     -12.249   6.935  70.479  1.00  0.00    -0.340 OA 
BRANCH  20  21
HETATM   21  C   UNL     1     -11.750   6.722  71.709  1.00  0.00    -0.312 C  
HETATM   22  O   UNL     1     -11.794   7.641  72.510  1.00  0.00    -0.311 OA 
BRANCH  21  23
HETATM   23  C   UNL     1     -10.998   5.457  72.056  1.00  0.00    -0.178 C  
HETATM   24  H   UNL     1     -11.155   4.061  73.380  1.00  0.00     0.000 HD 
HETATM   25  O   UNL     1     -11.627   4.855  73.162  1.00  0.00    -0.324 OA 
BRANCH  23  26
HETATM   26  C   UNL     1      -9.488   5.666  72.382  1.00  0.00    -0.143 C  
HETATM   27  H   UNL     1      -7.991   4.562  72.929  1.00  0.00     0.000 HD 
HETATM   28  O   UNL     1      -8.912   4.434  72.730  1.00  0.00    -0.113 OA 
BRANCH  26  29
HETATM   29  C   UNL     1      -8.608   6.369  71.292  1.00  0.00    -0.127 C  
BRANCH  29  30
HETATM   30  O   UNL     1      -8.542   5.475  70.190  1.00  0.00    -0.117 OA 
BRANCH  30  31
HETATM   31  C   UNL     1      -8.613   6.070  68.910  1.00  0.00    -0.116 C  
HETATM   32  O   UNL     1      -8.656   7.482  69.030  1.00  0.00    -0.134 OA 
HETATM   33  C   UNL     1      -8.711   8.093  67.750  1.00  0.00    -0.130 C  
HETATM   34  H   UNL     1     -10.704   3.835  67.722  1.00  0.00     0.000 HD 
HETATM   35  C   UNL     1     -10.052   7.748  67.052  1.00  0.00    -0.273 C  
HETATM   36  O   UNL     1     -11.140   8.191  67.827  1.00  0.00    -0.484 OA 
HETATM   37  C   UNL     1     -10.127   6.217  66.876  1.00  0.00    -0.183 C  
HETATM   38  O   UNL     1      -9.907   4.152  68.128  1.00  0.00    -0.117 OA 
HETATM   39  H   UNL     1     -11.961   7.979  67.399  1.00  0.00     0.000 HD 
HETATM   40  O   UNL     1     -11.368   5.814  66.352  1.00  0.00    -0.723 OA 
HETATM   41  C   UNL     1      -9.915   5.554  68.247  1.00  0.00    -0.154 C  
HETATM   42  H   UNL     1     -11.414   4.872  66.243  1.00  0.00     0.000 HD 
BRANCH  33  43
HETATM   43  C   UNL     1      -8.529   9.607  67.939  1.00  0.00    -0.122 C  
HETATM   44  O   UNL     1      -9.084  10.325  66.870  1.00  0.00    -0.142 OA 
HETATM   45  H   UNL     1      -8.971  11.260  66.988  1.00  0.00     0.000 HD 
ENDBRANCH  33  43
ENDBRANCH  30  31
ENDBRANCH  29  30
BRANCH  29  46
HETATM   46  C   UNL     1      -7.184   6.837  71.757  1.00  0.00    -0.084 C  
HETATM   47  O   UNL     1      -6.553   5.843  72.530  1.00  0.00    -0.063 OA 
HETATM   48  H   UNL     1      -5.691   6.126  72.811  1.00  0.00     0.000 HD 
BRANCH  46  49
HETATM   49  C   UNL     1      -7.141   8.224  72.440  1.00  0.00    -0.098 C  
HETATM   50  H   UNL     1      -8.339   9.746  72.705  1.00  0.00     0.000 HD 
HETATM   51  O   UNL     1      -8.365   8.893  72.286  1.00  0.00    -0.384 OA 
ENDBRANCH  46  49
ENDBRANCH  29  46
ENDBRANCH  26  29
ENDBRANCH  23  26
ENDBRANCH  21  23
ENDBRANCH  20  21
ENDBRANCH  19  20
ENDBRANCH  18  19
ENDBRANCH  16  18
ENDBRANCH  13  16
ENDBRANCH  10  13
ENDBRANCH   7  10
ENDBRANCH   4   7
ENDBRANCH   2   4
TORSDOF 17
ENDMDL
MODEL      166
REMARK 921   NORMALIZED FREE ENERGY PREDICTED BY IDOCK:   -4.81 KCAL/MOL
REMARK 922        TOTAL FREE ENERGY PREDICTED BY IDOCK:  -13.02 KCAL/MOL
REMARK 923 INTER-LIGAND FREE ENERGY PREDICTED BY IDOCK:   -9.72 KCAL/MOL
REMARK 924 INTRA-LIGAND FREE ENERGY PREDICTED BY IDOCK:   -3.30 KCAL/MOL
REMARK 927      BINDING AFFINITY PREDICTED BY RF-SCORE:    0.00 PKD
ROOT
HETATM    1  O   UNL     1     -10.009  19.271  68.529  1.00  0.00    -0.384 OA 
HETATM    2  C   UNL     1     -10.768  19.003  67.382  1.00  0.00    -0.473 C  
HETATM    3  H   UNL     1     -10.338  20.056  68.953  1.00  0.00     0.000 HD 
ENDROOT
BRANCH   2   4
HETATM    4  C   UNL     1     -10.236  17.733  66.695  1.00  0.00    -0.361 C  
HETATM    5  O   UNL     1      -9.010  18.021  66.071  1.00  0.00    -0.502 OA 
HETATM    6  H   UNL     1      -8.682  17.237  65.647  1.00  0.00     0.000 HD 
BRANCH   4   7
HETATM    7  C   UNL     1     -10.040  16.576  67.711  1.00  0.00    -0.264 C  
HETATM    8  H   UNL     1     -10.931  15.917  69.308  1.00  0.00     0.000 HD 
HETATM    9  O   UNL     1     -11.052  16.625  68.686  1.00  0.00    -0.341 OA 
BRANCH   7  10
HETATM   10  C   UNL     1     -10.071  15.187  67.020  1.00  0.00    -0.244 C  
HETATM   11  H   UNL     1      -9.288  14.394  65.442  1.00  0.00     0.000 HD 
HETATM   12  O   UNL     1      -9.269  15.244  65.865  1.00  0.00    -0.315 OA 
BRANCH  10  13
HETATM   13  C   UNL     1     -11.500  14.728  66.617  1.00  0.00    -0.335 C  
HETATM   14  H   UNL     1     -12.408  14.165  64.995  1.00  0.00     0.000 HD 
HETATM   15  O   UNL     1     -11.535  14.446  65.241  1.00  0.00    -0.328 OA 
BRANCH  13  16
HETATM   16  C   UNL     1     -11.966  13.496  67.356  1.00  0.00    -0.357 C  
HETATM   17  O   UNL     1     -11.969  13.488  68.577  1.00  0.00    -0.351 OA 
BRANCH  16  18
HETATM   18  O   UNL     1     -12.371  12.396  66.690  1.00  0.00    -0.477 OA 
BRANCH  18  19
HETATM   19 CA   UNL     1     -10.713  10.813  65.912  1.00  0.00    -0.226 Ca 
BRANCH  19  20
HETATM   20  O   UNL     1      -9.057   9.231  65.133  1.00  0.00    -0.214 OA 
BRANCH  20  21
HETATM   21  C   UNL     1      -7.841   9.794  65.233  1.00  0.00    -0.120 C  
HETATM   22  O   UNL     1      -7.202   9.960  64.207  1.00  0.00    -0.125 OA 
BRANCH  21  23
HETATM   23  C   UNL     1      -7.193  10.060  66.574  1.00  0.00    -0.101 C  
HETATM   24  H   UNL     1      -5.569  10.896  67.196  1.00  0.00     0.000 HD 
HETATM   25  O   UNL     1      -5.975  10.729  66.354  1.00  0.00    -0.084 OA 
BRANCH  23  26
HETATM   26  C   UNL     1      -6.925   8.785  67.430  1.00  0.00    -0.075 C  
HETATM   27  H   UNL     1      -5.503   8.116  68.566  1.00  0.00     0.000 HD 
HETATM   28  O   UNL     1      -5.666   8.892  68.044  1.00  0.00    -0.038 OA 
BRANCH  26  29
HETATM   29  C   UNL     1      -8.002   8.400  68.503  1.00  0.00    -0.121 C  
BRANCH  29  30
HETATM   30  O   UNL     1      -7.831   9.305  69.585  1.00  0.00    -0.077 OA 
BRANCH  30  31
HETATM   31  C   UNL     1      -9.007   9.649  70.290  1.00  0.00    -0.219 C  
HETATM   32  O   UNL     1      -9.434   8.558  71.088  1.00  0.00    -0.165 OA 
HETATM   33  C   UNL     1     -10.606   8.895  71.814  1.00  0.00    -0.362 C  
HETATM   34  H   UNL     1     -10.340  11.263  67.762  1.00  0.00     0.000 HD 
HETATM   35  C   UNL     1     -11.792   9.118  70.840  1.00  0.00    -0.270 C  
HETATM   36  O   UNL     1     -12.032   7.957  70.082  1.00  0.00    -0.457 OA 
HETATM   37  C   UNL     1     -11.433  10.289  69.901  1.00  0.00    -0.273 C  
HETATM   38  O   UNL     1      -9.680  11.057  68.412  1.00  0.00    -0.166 OA 
HETATM   39  H   UNL     1     -12.758   8.094  69.485  1.00  0.00     0.000 HD 
HETATM   40  O   UNL     1     -12.414  10.479  68.911  1.00  0.00    -0.776 OA 
HETATM   41  C   UNL     1     -10.084   9.985  69.229  1.00  0.00    -0.213 C  
HETATM   42  H   UNL     1     -12.193  11.200  68.333  1.00  0.00     0.000 HD 
BRANCH  33  43
HETATM   43  C   UNL     1     -10.885   7.765  72.817  1.00  0.00    -0.379 C  
HETATM   44  O   UNL     1     -10.375   6.541  72.359  1.00  0.00    -0.185 OA 
HETATM   45  H   UNL     1     -10.546   5.843  72.979  1.00  0.00     0.000 HD 
ENDBRANCH  33  43
ENDBRANCH  30  31
ENDBRANCH  29  30
BRANCH  29  46
HETATM   46  C   UNL     1      -7.994   6.904  68.978  1.00  0.00    -0.116 C  
HETATM   47  O   UNL     1      -9.284   6.489  69.360  1.00  0.00    -0.143 OA 
HETATM   48  H   UNL     1      -9.280   5.584  69.647  1.00  0.00     0.000 HD 
BRANCH  46  49
HETATM   49  C   UNL     1      -6.929   6.563  70.046  1.00  0.00    -0.063 C  
HETATM   50  H   UNL     1      -5.578   5.184  70.356  1.00  0.00     0.000 HD 
HETATM   51  O   UNL     1      -6.232   5.395  69.699  1.00  0.00    -0.023 OA 
ENDBRANCH  46  49
ENDBRANCH  29  46
ENDBRANCH  26  29
ENDBRANCH  23  26
ENDBRANCH  21  23
ENDBRANCH  20  21
ENDBRANCH  19  20
ENDBRANCH  18  19
ENDBRANCH  16  18
ENDBRANCH  13  16
ENDBRANCH  10  13
ENDBRANCH   7  10
ENDBRANCH   4   7
ENDBRANCH   2   4
TORSDOF 17
ENDMDL
MODEL      167
REMARK 921   NORMALIZED FREE ENERGY PREDICTED BY IDOCK:   -4.81 KCAL/MOL
REMARK 922        TOTAL FREE ENERGY PREDICTED BY IDOCK:  -13.02 KCAL/MOL
REMARK 923 INTER-LIGAND FREE ENERGY PREDICTED BY IDOCK:  -10.79 KCAL/MOL
REMARK 924 INTRA-LIGAND FREE ENERGY PREDICTED BY IDOCK:   -2.23 KCAL/MOL
REMARK 927      BINDING AFFINITY PREDICTED BY RF-SCORE:    0.00 PKD
ROOT
HETATM    1  O   UNL     1      -8.851   6.047  70.453  1.00  0.00    -0.144 OA 
HETATM    2  C   UNL     1      -9.016   5.659  71.790  1.00  0.00    -0.136 C  
HETATM    3  H   UNL     1      -8.240   5.460  70.023  1.00  0.00     0.000 HD 
ENDROOT
BRANCH   2   4
HETATM    4  C   UNL     1     -10.006   6.608  72.486  1.00  0.00    -0.170 C  
HETATM    5  O   UNL     1      -9.295   7.662  73.086  1.00  0.00    -0.185 OA 
HETATM    6  H   UNL     1      -9.907   8.249  73.516  1.00  0.00     0.000 HD 
BRANCH   4   7
HETATM    7  C   UNL     1     -11.041   7.186  71.485  1.00  0.00    -0.239 C  
HETATM    8  H   UNL     1     -12.970   7.133  71.242  1.00  0.00     0.000 HD 
HETATM    9  O   UNL     1     -12.336   6.779  71.855  1.00  0.00    -0.339 OA 
BRANCH   7  10
HETATM   10  C   UNL     1     -10.995   8.737  71.434  1.00  0.00    -0.289 C  
HETATM   11  H   UNL     1     -12.209  10.184  71.838  1.00  0.00     0.000 HD 
HETATM   12  O   UNL     1     -12.237   9.234  71.870  1.00  0.00    -0.356 OA 
BRANCH  10  13
HETATM   13  C   UNL     1     -10.697   9.300  70.017  1.00  0.00    -0.232 C  
HETATM   14  H   UNL     1     -11.209  10.851  68.966  1.00  0.00     0.000 HD 
HETATM   15  O   UNL     1     -11.392  10.506  69.832  1.00  0.00    -0.263 OA 
BRANCH  13  16
HETATM   16  C   UNL     1      -9.230   9.567  69.773  1.00  0.00    -0.208 C  
HETATM   17  O   UNL     1      -8.390   8.972  70.430  1.00  0.00    -0.127 OA 
BRANCH  16  18
HETATM   18  O   UNL     1      -8.829  10.462  68.848  1.00  0.00    -0.144 OA 
BRANCH  18  19
HETATM   19 CA   UNL     1     -10.442  11.318  67.260  1.00  0.00    -0.177 Ca 
BRANCH  19  20
HETATM   20  O   UNL     1     -12.054  12.175  65.672  1.00  0.00    -0.545 OA 
BRANCH  20  21
HETATM   21  C   UNL     1     -12.203  13.495  65.878  1.00  0.00    -0.460 C  
HETATM   22  O   UNL     1     -13.073  14.076  65.251  1.00  0.00    -0.782 OA 
BRANCH  21  23
HETATM   23  C   UNL     1     -11.225  14.286  66.718  1.00  0.00    -0.332 C  
HETATM   24  H   UNL     1     -11.275  15.915  67.752  1.00  0.00     0.000 HD 
HETATM   25  O   UNL     1     -11.889  15.418  67.224  1.00  0.00    -0.109 OA 
BRANCH  23  26
HETATM   26  C   UNL     1      -9.942  14.745  65.962  1.00  0.00    -0.313 C  
HETATM   27  H   UNL     1      -9.514  15.931  64.488  1.00  0.00     0.000 HD 
HETATM   28  O   UNL     1     -10.296  15.651  64.949  1.00  0.00    -0.441 OA 
BRANCH  26  29
HETATM   29  C   UNL     1      -8.777  15.348  66.822  1.00  0.00    -0.269 C  
BRANCH  29  30
HETATM   30  O   UNL     1      -8.186  16.372  66.036  1.00  0.00    -0.295 OA 
BRANCH  30  31
HETATM   31  C   UNL     1      -7.947  17.597  66.699  1.00  0.00    -0.251 C  
HETATM   32  O   UNL     1      -9.155  18.098  67.249  1.00  0.00    -0.248 OA 
HETATM   33  C   UNL     1      -8.926  19.321  67.932  1.00  0.00    -0.311 C  
HETATM   34  H   UNL     1      -5.868  18.708  64.415  1.00  0.00     0.000 HD 
HETATM   35  C   UNL     1      -8.501  20.422  66.927  1.00  0.00    -0.239 C  
HETATM   36  O   UNL     1      -9.498  20.613  65.953  1.00  0.00    -0.593 OA 
HETATM   37  C   UNL     1      -7.188  19.978  66.249  1.00  0.00    -0.274 C  
HETATM   38  O   UNL     1      -6.205  18.104  65.065  1.00  0.00    -0.242 OA 
HETATM   39  H   UNL     1      -9.238  21.287  65.337  1.00  0.00     0.000 HD 
HETATM   40  O   UNL     1      -6.797  20.875  65.238  1.00  0.00    -0.510 OA 
HETATM   41  C   UNL     1      -7.398  18.583  65.638  1.00  0.00    -0.055 C  
HETATM   42  H   UNL     1      -5.989  20.601  64.821  1.00  0.00     0.000 HD 
BRANCH  33  43
HETATM   43  C   UNL     1     -10.213  19.689  68.687  1.00  0.00    -0.394 C  
HETATM   44  O   UNL     1      -9.944  20.021  70.022  1.00  0.00    -0.218 OA 
HETATM   45  H   UNL     1     -10.739  20.249  70.488  1.00  0.00     0.000 HD 
ENDBRANCH  33  43
ENDBRANCH  30  31
ENDBRANCH  29  30
BRANCH  29  46
HETATM   46  C   UNL     1      -7.713  14.323  67.351  1.00  0.00    -0.173 C  
HETATM   47  O   UNL     1      -7.982  13.024  66.875  1.00  0.00    -0.388 OA 
HETATM   48  H   UNL     1      -7.339  12.404  67.195  1.00  0.00     0.000 HD 
BRANCH  46  49
HETATM   49  C   UNL     1      -7.483  14.349  68.880  1.00  0.00    -0.132 C  
HETATM   50  H   UNL     1      -7.481  15.669  70.322  1.00  0.00     0.000 HD 
HETATM   51  O   UNL     1      -7.623  15.652  69.382  1.00  0.00    -0.209 OA 
ENDBRANCH  46  49
ENDBRANCH  29  46
ENDBRANCH  26  29
ENDBRANCH  23  26
ENDBRANCH  21  23
ENDBRANCH  20  21
ENDBRANCH  19  20
ENDBRANCH  18  19
ENDBRANCH  16  18
ENDBRANCH  13  16
ENDBRANCH  10  13
ENDBRANCH   7  10
ENDBRANCH   4   7
ENDBRANCH   2   4
TORSDOF 17
ENDMDL
MODEL      168
REMARK 921   NORMALIZED FREE ENERGY PREDICTED BY IDOCK:   -4.80 KCAL/MOL
REMARK 922        TOTAL FREE ENERGY PREDICTED BY IDOCK:  -13.02 KCAL/MOL
REMARK 923 INTER-LIGAND FREE ENERGY PREDICTED BY IDOCK:  -10.37 KCAL/MOL
REMARK 924 INTRA-LIGAND FREE ENERGY PREDICTED BY IDOCK:   -2.64 KCAL/MOL
REMARK 927      BINDING AFFINITY PREDICTED BY RF-SCORE:    0.00 PKD
ROOT
HETATM    1  O   UNL     1      -9.265  20.916  66.753  1.00  0.00    -0.616 OA 
HETATM    2  C   UNL     1      -8.812  19.609  66.522  1.00  0.00    -0.364 C  
HETATM    3  H   UNL     1      -9.441  21.345  65.924  1.00  0.00     0.000 HD 
ENDROOT
BRANCH   2   4
HETATM    4  C   UNL     1      -8.528  18.915  67.865  1.00  0.00    -0.290 C  
HETATM    5  O   UNL     1      -7.738  19.758  68.666  1.00  0.00    -0.329 OA 
HETATM    6  H   UNL     1      -7.563  19.328  69.495  1.00  0.00     0.000 HD 
BRANCH   4   7
HETATM    7  C   UNL     1      -9.841  18.568  68.616  1.00  0.00    -0.385 C  
HETATM    8  H   UNL     1     -11.750  18.668  68.266  1.00  0.00     0.000 HD 
HETATM    9  O   UNL     1     -10.947  18.880  67.805  1.00  0.00    -0.344 OA 
BRANCH   7  10
HETATM   10  C   UNL     1      -9.907  17.068  69.006  1.00  0.00    -0.240 C  
HETATM   11  H   UNL     1      -9.050  15.436  68.429  1.00  0.00     0.000 HD 
HETATM   12  O   UNL     1      -9.009  16.355  68.190  1.00  0.00    -0.190 OA 
BRANCH  10  13
HETATM   13  C   UNL     1     -11.325  16.451  68.852  1.00  0.00    -0.272 C  
HETATM   14  H   UNL     1     -12.203  15.182  67.673  1.00  0.00     0.000 HD 
HETATM   15  O   UNL     1     -11.336  15.559  67.767  1.00  0.00    -0.330 OA 
BRANCH  13  16
HETATM   16  C   UNL     1     -11.787  15.697  70.077  1.00  0.00    -0.367 C  
HETATM   17  O   UNL     1     -11.530  16.133  71.189  1.00  0.00    -0.413 OA 
BRANCH  16  18
HETATM   18  O   UNL     1     -12.472  14.541  69.966  1.00  0.00    -0.334 OA 
BRANCH  18  19
HETATM   19 CA   UNL     1     -12.202  13.198  67.971  1.00  0.00    -0.289 Ca 
BRANCH  19  20
HETATM   20  O   UNL     1     -11.933  11.855  65.976  1.00  0.00    -0.511 OA 
BRANCH  20  21
HETATM   21  C   UNL     1     -10.860  11.061  66.132  1.00  0.00    -0.146 C  
HETATM   22  O   UNL     1     -10.520  10.368  65.187  1.00  0.00    -0.255 OA 
BRANCH  21  23
HETATM   23  C   UNL     1     -10.188  10.883  67.475  1.00  0.00    -0.190 C  
HETATM   24  H   UNL     1      -9.417  12.042  68.813  1.00  0.00     0.000 HD 
HETATM   25  O   UNL     1      -9.839  12.153  67.969  1.00  0.00    -0.190 OA 
BRANCH  23  26
HETATM   26  C   UNL     1      -8.917   9.980  67.453  1.00  0.00    -0.131 C  
HETATM   27  H   UNL     1      -7.025  10.206  67.095  1.00  0.00     0.000 HD 
HETATM   28  O   UNL     1      -7.799  10.757  67.109  1.00  0.00    -0.116 OA 
BRANCH  26  29
HETATM   29  C   UNL     1      -8.603   9.148  68.744  1.00  0.00    -0.131 C  
BRANCH  29  30
HETATM   30  O   UNL     1      -9.827   8.551  69.145  1.00  0.00    -0.177 OA 
BRANCH  30  31
HETATM   31  C   UNL     1      -9.984   8.341  70.534  1.00  0.00    -0.184 C  
HETATM   32  O   UNL     1      -9.724   6.984  70.854  1.00  0.00    -0.174 OA 
HETATM   33  C   UNL     1      -9.863   6.763  72.249  1.00  0.00    -0.155 C  
HETATM   34  H   UNL     1     -12.642  10.252  70.768  1.00  0.00     0.000 HD 
HETATM   35  C   UNL     1     -11.340   6.959  72.676  1.00  0.00    -0.235 C  
HETATM   36  O   UNL     1     -12.178   6.070  71.978  1.00  0.00    -0.257 OA 
HETATM   37  C   UNL     1     -11.746   8.414  72.361  1.00  0.00    -0.382 C  
HETATM   38  O   UNL     1     -11.743  10.035  70.557  1.00  0.00    -0.280 OA 
HETATM   39  H   UNL     1     -13.083   6.191  72.240  1.00  0.00     0.000 HD 
HETATM   40  O   UNL     1     -13.111   8.639  72.615  1.00  0.00    -0.597 OA 
HETATM   41  C   UNL     1     -11.452   8.696  70.878  1.00  0.00    -0.275 C  
HETATM   42  H   UNL     1     -13.360   9.535  72.421  1.00  0.00     0.000 HD 
BRANCH  33  43
HETATM   43  C   UNL     1      -9.354   5.345  72.557  1.00  0.00    -0.142 C  
HETATM   44  O   UNL     1      -9.724   4.442  71.550  1.00  0.00    -0.155 OA 
HETATM   45  H   UNL     1      -9.409   3.567  71.740  1.00  0.00     0.000 HD 
ENDBRANCH  33  43
ENDBRANCH  30  31
ENDBRANCH  29  30
BRANCH  29  46
HETATM   46  C   UNL     1      -7.918   9.934  69.917  1.00  0.00    -0.182 C  
HETATM   47  O   UNL     1      -7.691  11.278  69.560  1.00  0.00    -0.362 OA 
HETATM   48  H   UNL     1      -7.277  11.754  70.269  1.00  0.00     0.000 HD 
BRANCH  46  49
HETATM   49  C   UNL     1      -6.654   9.264  70.504  1.00  0.00    -0.072 C  
HETATM   50  H   UNL     1      -5.268   9.685  71.816  1.00  0.00     0.000 HD 
HETATM   51  O   UNL     1      -6.045  10.097  71.455  1.00  0.00    -0.310 OA 
ENDBRANCH  46  49
ENDBRANCH  29  46
ENDBRANCH  26  29
ENDBRANCH  23  26
ENDBRANCH  21  23
ENDBRANCH  20  21
ENDBRANCH  19  20
ENDBRANCH  18  19
ENDBRANCH  16  18
ENDBRANCH  13  16
ENDBRANCH  10  13
ENDBRANCH   7  10
ENDBRANCH   4   7
ENDBRANCH   2   4
TORSDOF 17
ENDMDL
MODEL      169
REMARK 921   NORMALIZED FREE ENERGY PREDICTED BY IDOCK:   -4.80 KCAL/MOL
REMARK 922        TOTAL FREE ENERGY PREDICTED BY IDOCK:  -13.01 KCAL/MOL
REMARK 923 INTER-LIGAND FREE ENERGY PREDICTED BY IDOCK:  -10.49 KCAL/MOL
REMARK 924 INTRA-LIGAND FREE ENERGY PREDICTED BY IDOCK:   -2.52 KCAL/MOL
REMARK 927      BINDING AFFINITY PREDICTED BY RF-SCORE:    0.00 PKD
ROOT
HETATM    1  O   UNL     1      -9.570   4.550  73.950  1.00  0.00    -0.118 OA 
HETATM    2  C   UNL     1     -10.370   4.146  72.873  1.00  0.00    -0.173 C  
HETATM    3  H   UNL     1      -9.267   3.787  74.428  1.00  0.00     0.000 HD 
ENDROOT
BRANCH   2   4
HETATM    4  C   UNL     1     -10.861   5.382  72.099  1.00  0.00    -0.214 C  
HETATM    5  O   UNL     1     -11.656   6.174  72.946  1.00  0.00    -0.468 OA 
HETATM    6  H   UNL     1     -11.959   6.937  72.468  1.00  0.00     0.000 HD 
BRANCH   4   7
HETATM    7  C   UNL     1      -9.675   6.227  71.564  1.00  0.00    -0.162 C  
HETATM    8  H   UNL     1      -8.018   5.904  70.598  1.00  0.00     0.000 HD 
HETATM    9  O   UNL     1      -8.745   5.387  70.925  1.00  0.00    -0.129 OA 
BRANCH   7  10
HETATM   10  C   UNL     1     -10.144   7.315  70.562  1.00  0.00    -0.191 C  
HETATM   11  H   UNL     1      -9.764   7.779  68.726  1.00  0.00     0.000 HD 
HETATM   12  O   UNL     1      -9.477   7.113  69.340  1.00  0.00    -0.154 OA 
BRANCH  10  13
HETATM   13  C   UNL     1      -9.869   8.765  71.050  1.00  0.00    -0.230 C  
HETATM   14  H   UNL     1     -10.099   9.781  72.689  1.00  0.00     0.000 HD 
HETATM   15  O   UNL     1     -10.267   8.895  72.391  1.00  0.00    -0.251 OA 
BRANCH  13  16
HETATM   16  C   UNL     1      -8.416   9.165  70.956  1.00  0.00    -0.165 C  
HETATM   17  O   UNL     1      -7.692   9.051  71.933  1.00  0.00    -0.340 OA 
BRANCH  16  18
HETATM   18  O   UNL     1      -7.902   9.658  69.812  1.00  0.00    -0.107 OA 
BRANCH  18  19
HETATM   19 CA   UNL     1      -7.779  12.057  69.513  1.00  0.00    -0.272 Ca 
BRANCH  19  20
HETATM   20  O   UNL     1      -7.655  14.455  69.214  1.00  0.00    -0.112 OA 
BRANCH  20  21
HETATM   21  C   UNL     1      -7.692  14.729  67.899  1.00  0.00    -0.137 C  
HETATM   22  O   UNL     1      -6.920  14.130  67.169  1.00  0.00    -0.146 OA 
BRANCH  21  23
HETATM   23  C   UNL     1      -8.528  15.860  67.344  1.00  0.00    -0.175 C  
HETATM   24  H   UNL     1      -8.413  17.786  67.296  1.00  0.00     0.000 HD 
HETATM   25  O   UNL     1      -7.888  17.075  67.645  1.00  0.00    -0.167 OA 
BRANCH  23  26
HETATM   26  C   UNL     1      -9.992  15.910  67.878  1.00  0.00    -0.221 C  
HETATM   27  H   UNL     1     -11.060  17.104  68.971  1.00  0.00     0.000 HD 
HETATM   28  O   UNL     1     -10.168  17.073  68.646  1.00  0.00    -0.279 OA 
BRANCH  26  29
HETATM   29  C   UNL     1     -11.147  15.795  66.825  1.00  0.00    -0.116 C  
BRANCH  29  30
HETATM   30  O   UNL     1     -11.961  14.706  67.239  1.00  0.00    -0.391 OA 
BRANCH  30  31
HETATM   31  C   UNL     1     -11.340  13.763  68.088  1.00  0.00    -0.284 C  
HETATM   32  O   UNL     1     -11.145  12.540  67.398  1.00  0.00    -0.248 OA 
HETATM   33  C   UNL     1     -10.508  11.587  68.235  1.00  0.00    -0.197 C  
HETATM   34  H   UNL     1     -13.101  14.617  70.724  1.00  0.00     0.000 HD 
HETATM   35  C   UNL     1     -11.446  11.195  69.407  1.00  0.00    -0.298 C  
HETATM   36  O   UNL     1     -12.649  10.654  68.917  1.00  0.00    -0.742 OA 
HETATM   37  C   UNL     1     -11.743  12.464  70.233  1.00  0.00    -0.123 C  
HETATM   38  O   UNL     1     -12.517  14.749  69.987  1.00  0.00    -0.324 OA 
HETATM   39  H   UNL     1     -13.223  10.415  69.634  1.00  0.00     0.000 HD 
HETATM   40  O   UNL     1     -12.681  12.212  71.251  1.00  0.00    -0.366 OA 
HETATM   41  C   UNL     1     -12.294  13.547  69.291  1.00  0.00    -0.081 C  
HETATM   42  H   UNL     1     -12.864  12.993  71.760  1.00  0.00     0.000 HD 
BRANCH  33  43
HETATM   43  C   UNL     1     -10.126  10.376  67.369  1.00  0.00    -0.196 C  
HETATM   44  O   UNL     1     -10.972   9.285  67.616  1.00  0.00    -0.483 OA 
HETATM   45  H   UNL     1     -10.736   8.538  67.081  1.00  0.00     0.000 HD 
ENDBRANCH  33  43
ENDBRANCH  30  31
ENDBRANCH  29  30
BRANCH  29  46
HETATM   46  C   UNL     1     -10.699  15.660  65.327  1.00  0.00    -0.425 C  
HETATM   47  O   UNL     1     -10.841  16.884  64.645  1.00  0.00    -0.864 OA 
HETATM   48  H   UNL     1     -10.570  16.803  63.739  1.00  0.00     0.000 HD 
BRANCH  46  49
HETATM   49  C   UNL     1     -11.341  14.483  64.555  1.00  0.00    -0.316 C  
HETATM   50  H   UNL     1     -13.000  14.117  63.589  1.00  0.00     0.000 HD 
HETATM   51  O   UNL     1     -12.606  14.840  64.063  1.00  0.00    -0.822 OA 
ENDBRANCH  46  49
ENDBRANCH  29  46
ENDBRANCH  26  29
ENDBRANCH  23  26
ENDBRANCH  21  23
ENDBRANCH  20  21
ENDBRANCH  19  20
ENDBRANCH  18  19
ENDBRANCH  16  18
ENDBRANCH  13  16
ENDBRANCH  10  13
ENDBRANCH   7  10
ENDBRANCH   4   7
ENDBRANCH   2   4
TORSDOF 17
ENDMDL
MODEL      170
REMARK 921   NORMALIZED FREE ENERGY PREDICTED BY IDOCK:   -4.78 KCAL/MOL
REMARK 922        TOTAL FREE ENERGY PREDICTED BY IDOCK:  -12.97 KCAL/MOL
REMARK 923 INTER-LIGAND FREE ENERGY PREDICTED BY IDOCK:   -9.34 KCAL/MOL
REMARK 924 INTRA-LIGAND FREE ENERGY PREDICTED BY IDOCK:   -3.63 KCAL/MOL
REMARK 927      BINDING AFFINITY PREDICTED BY RF-SCORE:    0.00 PKD
ROOT
HETATM    1  O   UNL     1     -14.101  15.485  70.752  1.00  0.00    -0.871 OA 
HETATM    2  C   UNL     1     -12.786  15.390  71.227  1.00  0.00    -0.436 C  
HETATM    3  H   UNL     1     -14.534  16.228  71.156  1.00  0.00     0.000 HD 
ENDROOT
BRANCH   2   4
HETATM    4  C   UNL     1     -12.085  14.186  70.574  1.00  0.00    -0.350 C  
HETATM    5  O   UNL     1     -12.649  12.997  71.068  1.00  0.00    -0.364 OA 
HETATM    6  H   UNL     1     -12.216  12.253  70.664  1.00  0.00     0.000 HD 
BRANCH   4   7
HETATM    7  C   UNL     1     -12.218  14.219  69.029  1.00  0.00    -0.220 C  
HETATM    8  H   UNL     1     -12.164  15.561  67.623  1.00  0.00     0.000 HD 
HETATM    9  O   UNL     1     -12.082  15.542  68.569  1.00  0.00    -0.246 OA 
BRANCH   7  10
HETATM   10  C   UNL     1     -11.151  13.331  68.335  1.00  0.00    -0.270 C  
HETATM   11  H   UNL     1      -9.576  13.627  67.257  1.00  0.00     0.000 HD 
HETATM   12  O   UNL     1     -10.229  14.170  67.682  1.00  0.00    -0.237 OA 
BRANCH  10  13
HETATM   13  C   UNL     1     -11.749  12.338  67.300  1.00  0.00    -0.324 C  
HETATM   14  H   UNL     1     -12.537  12.435  65.528  1.00  0.00     0.000 HD 
HETATM   15  O   UNL     1     -12.172  13.042  66.161  1.00  0.00    -0.422 OA 
BRANCH  13  16
HETATM   16  C   UNL     1     -10.772  11.276  66.854  1.00  0.00    -0.273 C  
HETATM   17  O   UNL     1     -10.604  11.071  65.662  1.00  0.00    -0.252 OA 
BRANCH  16  18
HETATM   18  O   UNL     1     -10.086  10.539  67.750  1.00  0.00    -0.166 OA 
BRANCH  18  19
HETATM   19 CA   UNL     1     -11.150   8.608  68.748  1.00  0.00    -0.296 Ca 
BRANCH  19  20
HETATM   20  O   UNL     1     -12.213   6.676  69.745  1.00  0.00    -0.038 OA 
BRANCH  20  21
HETATM   21  C   UNL     1     -12.096   6.761  71.082  1.00  0.00    -0.370 C  
HETATM   22  O   UNL     1     -13.115   6.903  71.736  1.00  0.00    -0.356 OA 
BRANCH  21  23
HETATM   23  C   UNL     1     -10.747   6.858  71.759  1.00  0.00    -0.221 C  
HETATM   24  H   UNL     1     -10.107   7.061  73.569  1.00  0.00     0.000 HD 
HETATM   25  O   UNL     1     -10.954   7.000  73.144  1.00  0.00    -0.295 OA 
BRANCH  23  26
HETATM   26  C   UNL     1      -9.850   8.030  71.257  1.00  0.00    -0.163 C  
HETATM   27  H   UNL     1      -9.183   9.707  71.966  1.00  0.00     0.000 HD 
HETATM   28  O   UNL     1      -9.730   8.993  72.273  1.00  0.00    -0.260 OA 
BRANCH  26  29
HETATM   29  C   UNL     1      -8.427   7.663  70.710  1.00  0.00    -0.125 C  
BRANCH  29  30
HETATM   30  O   UNL     1      -8.534   6.359  70.156  1.00  0.00    -0.131 OA 
BRANCH  30  31
HETATM   31  C   UNL     1      -8.377   6.272  68.754  1.00  0.00    -0.120 C  
HETATM   32  O   UNL     1      -8.132   7.558  68.209  1.00  0.00    -0.121 OA 
HETATM   33  C   UNL     1      -7.957   7.482  66.803  1.00  0.00    -0.115 C  
HETATM   34  H   UNL     1     -10.788   4.076  68.378  1.00  0.00     0.000 HD 
HETATM   35  C   UNL     1      -9.281   7.047  66.123  1.00  0.00    -0.077 C  
HETATM   36  O   UNL     1     -10.310   7.961  66.416  1.00  0.00    -0.482 OA 
HETATM   37  C   UNL     1      -9.660   5.648  66.653  1.00  0.00    -0.152 C  
HETATM   38  O   UNL     1      -9.977   4.427  68.725  1.00  0.00    -0.125 OA 
HETATM   39  H   UNL     1     -11.121   7.694  65.999  1.00  0.00     0.000 HD 
HETATM   40  O   UNL     1     -10.913   5.231  66.168  1.00  0.00    -0.687 OA 
HETATM   41  C   UNL     1      -9.701   5.699  68.190  1.00  0.00    -0.127 C  
HETATM   42  H   UNL     1     -11.146   4.370  66.494  1.00  0.00     0.000 HD 
BRANCH  33  43
HETATM   43  C   UNL     1      -7.477   8.857  66.311  1.00  0.00    -0.091 C  
HETATM   44  O   UNL     1      -8.200   9.275  65.184  1.00  0.00    -0.127 OA 
HETATM   45  H   UNL     1      -7.904  10.124  64.880  1.00  0.00     0.000 HD 
ENDBRANCH  33  43
ENDBRANCH  30  31
ENDBRANCH  29  30
BRANCH  29  46
HETATM   46  C   UNL     1      -7.247   7.772  71.738  1.00  0.00    -0.067 C  
HETATM   47  O   UNL     1      -6.857   9.114  71.919  1.00  0.00    -0.288 OA 
HETATM   48  H   UNL     1      -6.143   9.180  72.541  1.00  0.00     0.000 HD 
BRANCH  46  49
HETATM   49  C   UNL     1      -6.041   6.846  71.452  1.00  0.00    -0.037 C  
HETATM   50  H   UNL     1      -5.109   5.369  72.328  1.00  0.00     0.000 HD 
HETATM   51  O   UNL     1      -5.850   5.938  72.504  1.00  0.00    -0.034 OA 
ENDBRANCH  46  49
ENDBRANCH  29  46
ENDBRANCH  26  29
ENDBRANCH  23  26
ENDBRANCH  21  23
ENDBRANCH  20  21
ENDBRANCH  19  20
ENDBRANCH  18  19
ENDBRANCH  16  18
ENDBRANCH  13  16
ENDBRANCH  10  13
ENDBRANCH   7  10
ENDBRANCH   4   7
ENDBRANCH   2   4
TORSDOF 17
ENDMDL
MODEL      171
REMARK 921   NORMALIZED FREE ENERGY PREDICTED BY IDOCK:   -4.76 KCAL/MOL
REMARK 922        TOTAL FREE ENERGY PREDICTED BY IDOCK:  -12.94 KCAL/MOL
REMARK 923 INTER-LIGAND FREE ENERGY PREDICTED BY IDOCK:  -11.05 KCAL/MOL
REMARK 924 INTRA-LIGAND FREE ENERGY PREDICTED BY IDOCK:   -1.88 KCAL/MOL
REMARK 927      BINDING AFFINITY PREDICTED BY RF-SCORE:    0.00 PKD
ROOT
HETATM    1  O   UNL     1      -7.797   6.343  73.385  1.00  0.00    -0.097 OA 
HETATM    2  C   UNL     1      -8.980   5.595  73.449  1.00  0.00    -0.129 C  
HETATM    3  H   UNL     1      -7.230   6.107  74.110  1.00  0.00     0.000 HD 
ENDROOT
BRANCH   2   4
HETATM    4  C   UNL     1      -9.898   5.977  72.275  1.00  0.00    -0.160 C  
HETATM    5  O   UNL     1     -10.740   4.893  71.972  1.00  0.00    -0.182 OA 
HETATM    6  H   UNL     1     -11.307   5.129  71.247  1.00  0.00     0.000 HD 
BRANCH   4   7
HETATM    7  C   UNL     1     -10.760   7.224  72.607  1.00  0.00    -0.278 C  
HETATM    8  H   UNL     1     -10.486   8.966  73.424  1.00  0.00     0.000 HD 
HETATM    9  O   UNL     1      -9.958   8.203  73.221  1.00  0.00    -0.266 OA 
BRANCH   7  10
HETATM   10  C   UNL     1     -11.416   7.830  71.339  1.00  0.00    -0.260 C  
HETATM   11  H   UNL     1     -12.898   7.381  70.183  1.00  0.00     0.000 HD 
HETATM   12  O   UNL     1     -12.496   7.010  70.960  1.00  0.00    -0.376 OA 
BRANCH  10  13
HETATM   13  C   UNL     1     -10.439   7.960  70.138  1.00  0.00    -0.231 C  
HETATM   14  H   UNL     1     -10.371   7.369  68.289  1.00  0.00     0.000 HD 
HETATM   15  O   UNL     1     -10.968   7.289  69.023  1.00  0.00    -0.160 OA 
BRANCH  13  16
HETATM   16  C   UNL     1     -10.170   9.390  69.734  1.00  0.00    -0.220 C  
HETATM   17  O   UNL     1      -9.145   9.941  70.103  1.00  0.00    -0.223 OA 
BRANCH  16  18
HETATM   18  O   UNL     1     -11.051  10.078  68.981  1.00  0.00    -0.223 OA 
BRANCH  18  19
HETATM   19 CA   UNL     1     -10.629  10.333  66.611  1.00  0.00    -0.203 Ca 
BRANCH  19  20
HETATM   20  O   UNL     1     -10.207  10.587  64.242  1.00  0.00    -0.344 OA 
BRANCH  20  21
HETATM   21  C   UNL     1     -10.592  11.819  63.865  1.00  0.00    -0.393 C  
HETATM   22  O   UNL     1      -9.976  12.357  62.961  1.00  0.00    -0.250 OA 
BRANCH  21  23
HETATM   23  C   UNL     1     -11.633  12.600  64.635  1.00  0.00    -0.342 C  
HETATM   24  H   UNL     1     -13.557  12.756  64.614  1.00  0.00     0.000 HD 
HETATM   25  O   UNL     1     -12.903  12.266  64.131  1.00  0.00    -0.678 OA 
BRANCH  23  26
HETATM   26  C   UNL     1     -11.456  14.148  64.582  1.00  0.00    -0.387 C  
HETATM   27  H   UNL     1     -12.516  15.676  64.033  1.00  0.00     0.000 HD 
HETATM   28  O   UNL     1     -12.624  14.733  64.065  1.00  0.00    -0.822 OA 
BRANCH  26  29
HETATM   29  C   UNL     1     -11.049  14.872  65.912  1.00  0.00    -0.338 C  
BRANCH  29  30
HETATM   30  O   UNL     1      -9.904  15.655  65.609  1.00  0.00    -0.330 OA 
BRANCH  30  31
HETATM   31  C   UNL     1      -9.482  16.546  66.621  1.00  0.00    -0.258 C  
HETATM   32  O   UNL     1      -9.871  17.871  66.298  1.00  0.00    -0.352 OA 
HETATM   33  C   UNL     1      -9.466  18.775  67.315  1.00  0.00    -0.301 C  
HETATM   34  H   UNL     1      -6.576  15.078  67.038  1.00  0.00     0.000 HD 
HETATM   35  C   UNL     1      -7.919  18.855  67.373  1.00  0.00    -0.246 C  
HETATM   36  O   UNL     1      -7.400  19.283  66.137  1.00  0.00    -0.248 OA 
HETATM   37  C   UNL     1      -7.374  17.452  67.709  1.00  0.00    -0.177 C  
HETATM   38  O   UNL     1      -7.522  15.139  66.996  1.00  0.00    -0.184 OA 
HETATM   39  H   UNL     1      -6.452  19.332  66.172  1.00  0.00     0.000 HD 
HETATM   40  O   UNL     1      -5.968  17.417  67.668  1.00  0.00    -0.131 OA 
HETATM   41  C   UNL     1      -7.937  16.448  66.690  1.00  0.00    -0.288 C  
HETATM   42  H   UNL     1      -5.633  16.553  67.875  1.00  0.00     0.000 HD 
BRANCH  33  43
HETATM   43  C   UNL     1     -10.107  20.140  67.017  1.00  0.00    -0.459 C  
HETATM   44  O   UNL     1     -10.394  20.281  65.652  1.00  0.00    -0.460 OA 
HETATM   45  H   UNL     1     -10.790  21.124  65.468  1.00  0.00     0.000 HD 
ENDBRANCH  33  43
ENDBRANCH  30  31
ENDBRANCH  29  30
BRANCH  29  46
HETATM   46  C   UNL     1     -10.816  13.943  67.156  1.00  0.00    -0.284 C  
HETATM   47  O   UNL     1      -9.812  12.991  66.893  1.00  0.00    -0.229 OA 
HETATM   48  H   UNL     1      -9.671  12.429  67.646  1.00  0.00     0.000 HD 
BRANCH  46  49
HETATM   49  C   UNL     1     -12.095  13.300  67.741  1.00  0.00    -0.237 C  
HETATM   50  H   UNL     1     -12.949  13.104  69.488  1.00  0.00     0.000 HD 
HETATM   51  O   UNL     1     -12.163  13.500  69.128  1.00  0.00    -0.307 OA 
ENDBRANCH  46  49
ENDBRANCH  29  46
ENDBRANCH  26  29
ENDBRANCH  23  26
ENDBRANCH  21  23
ENDBRANCH  20  21
ENDBRANCH  19  20
ENDBRANCH  18  19
ENDBRANCH  16  18
ENDBRANCH  13  16
ENDBRANCH  10  13
ENDBRANCH   7  10
ENDBRANCH   4   7
ENDBRANCH   2   4
TORSDOF 17
ENDMDL
MODEL      172
REMARK 921   NORMALIZED FREE ENERGY PREDICTED BY IDOCK:   -4.76 KCAL/MOL
REMARK 922        TOTAL FREE ENERGY PREDICTED BY IDOCK:  -12.93 KCAL/MOL
REMARK 923 INTER-LIGAND FREE ENERGY PREDICTED BY IDOCK:  -11.12 KCAL/MOL
REMARK 924 INTRA-LIGAND FREE ENERGY PREDICTED BY IDOCK:   -1.81 KCAL/MOL
REMARK 927      BINDING AFFINITY PREDICTED BY RF-SCORE:    0.00 PKD
ROOT
HETATM    1  O   UNL     1      -8.725   9.180  67.869  1.00  0.00    -0.128 OA 
HETATM    2  C   UNL     1      -7.499   8.525  68.048  1.00  0.00    -0.097 C  
HETATM    3  H   UNL     1      -8.681  10.050  68.250  1.00  0.00     0.000 HD 
ENDROOT
BRANCH   2   4
HETATM    4  C   UNL     1      -7.570   7.117  67.431  1.00  0.00    -0.109 C  
HETATM    5  O   UNL     1      -6.374   6.851  66.743  1.00  0.00    -0.042 OA 
HETATM    6  H   UNL     1      -6.418   5.982  66.362  1.00  0.00     0.000 HD 
BRANCH   4   7
HETATM    7  C   UNL     1      -7.796   6.031  68.515  1.00  0.00    -0.100 C  
HETATM    8  H   UNL     1      -8.754   5.878  70.200  1.00  0.00     0.000 HD 
HETATM    9  O   UNL     1      -8.616   6.544  69.537  1.00  0.00    -0.132 OA 
BRANCH   7  10
HETATM   10  C   UNL     1      -8.457   4.755  67.929  1.00  0.00    -0.103 C  
HETATM   11  H   UNL     1      -8.494   3.863  66.217  1.00  0.00     0.000 HD 
HETATM   12  O   UNL     1      -8.089   4.644  66.576  1.00  0.00    -0.102 OA 
BRANCH  10  13
HETATM   13  C   UNL     1     -10.007   4.760  68.030  1.00  0.00    -0.091 C  
HETATM   14  H   UNL     1     -11.352   5.483  69.230  1.00  0.00     0.000 HD 
HETATM   15  O   UNL     1     -10.404   5.480  69.169  1.00  0.00    -0.216 OA 
BRANCH  13  16
HETATM   16  C   UNL     1     -10.685   5.378  66.830  1.00  0.00    -0.184 C  
HETATM   17  O   UNL     1     -10.878   4.704  65.830  1.00  0.00    -0.293 OA 
BRANCH  16  18
HETATM   18  O   UNL     1     -11.072   6.669  66.837  1.00  0.00    -0.400 OA 
BRANCH  18  19
HETATM   19 CA   UNL     1     -10.507   8.059  68.737  1.00  0.00    -0.180 Ca 
BRANCH  19  20
HETATM   20  O   UNL     1      -9.941   9.447  70.635  1.00  0.00    -0.248 OA 
BRANCH  20  21
HETATM   21  C   UNL     1     -11.062   9.710  71.328  1.00  0.00    -0.355 C  
HETATM   22  O   UNL     1     -11.377   8.940  72.219  1.00  0.00    -0.345 OA 
BRANCH  21  23
HETATM   23  C   UNL     1     -12.009  10.817  70.920  1.00  0.00    -0.333 C  
HETATM   24  H   UNL     1     -13.879  10.953  70.460  1.00  0.00     0.000 HD 
HETATM   25  O   UNL     1     -13.284  10.258  70.716  1.00  0.00    -0.385 OA 
BRANCH  23  26
HETATM   26  C   UNL     1     -11.585  11.597  69.639  1.00  0.00    -0.330 C  
HETATM   27  H   UNL     1     -11.719  11.349  67.721  1.00  0.00     0.000 HD 
HETATM   28  O   UNL     1     -11.978  10.873  68.501  1.00  0.00    -0.520 OA 
BRANCH  26  29
HETATM   29  C   UNL     1     -12.068  13.083  69.509  1.00  0.00    -0.230 C  
BRANCH  29  30
HETATM   30  O   UNL     1     -11.107  13.748  68.702  1.00  0.00    -0.246 OA 
BRANCH  30  31
HETATM   31  C   UNL     1     -11.589  14.286  67.487  1.00  0.00    -0.363 C  
HETATM   32  O   UNL     1     -11.648  13.274  66.496  1.00  0.00    -0.319 OA 
HETATM   33  C   UNL     1     -12.146  13.797  65.274  1.00  0.00    -0.407 C  
HETATM   34  H   UNL     1      -9.891  17.081  67.769  1.00  0.00     0.000 HD 
HETATM   35  C   UNL     1     -11.143  14.822  64.685  1.00  0.00    -0.325 C  
HETATM   36  O   UNL     1      -9.894  14.217  64.457  1.00  0.00    -0.634 OA 
HETATM   37  C   UNL     1     -10.986  15.979  65.694  1.00  0.00    -0.171 C  
HETATM   38  O   UNL     1     -10.502  16.403  68.032  1.00  0.00    -0.280 OA 
HETATM   39  H   UNL     1      -9.280  14.845  64.097  1.00  0.00     0.000 HD 
HETATM   40  O   UNL     1     -10.003  16.897  65.281  1.00  0.00    -0.526 OA 
HETATM   41  C   UNL     1     -10.591  15.391  67.059  1.00  0.00    -0.309 C  
HETATM   42  H   UNL     1      -9.906  17.609  65.902  1.00  0.00     0.000 HD 
BRANCH  33  43
HETATM   43  C   UNL     1     -12.396  12.617  64.321  1.00  0.00    -0.435 C  
HETATM   44  O   UNL     1     -11.959  12.911  63.021  1.00  0.00    -0.790 OA 
HETATM   45  H   UNL     1     -12.113  12.182  62.433  1.00  0.00     0.000 HD 
ENDBRANCH  33  43
ENDBRANCH  30  31
ENDBRANCH  29  30
BRANCH  29  46
HETATM   46  C   UNL     1     -12.330  13.841  70.859  1.00  0.00    -0.380 C  
HETATM   47  O   UNL     1     -13.657  14.309  70.925  1.00  0.00    -0.340 OA 
HETATM   48  H   UNL     1     -13.816  14.767  71.741  1.00  0.00     0.000 HD 
BRANCH  46  49
HETATM   49  C   UNL     1     -11.302  14.944  71.200  1.00  0.00    -0.209 C  
HETATM   50  H   UNL     1     -11.276  16.658  72.140  1.00  0.00     0.000 HD 
HETATM   51  O   UNL     1     -11.907  15.980  71.930  1.00  0.00    -0.456 OA 
ENDBRANCH  46  49
ENDBRANCH  29  46
ENDBRANCH  26  29
ENDBRANCH  23  26
ENDBRANCH  21  23
ENDBRANCH  20  21
ENDBRANCH  19  20
ENDBRANCH  18  19
ENDBRANCH  16  18
ENDBRANCH  13  16
ENDBRANCH  10  13
ENDBRANCH   7  10
ENDBRANCH   4   7
ENDBRANCH   2   4
TORSDOF 17
ENDMDL
MODEL      173
REMARK 921   NORMALIZED FREE ENERGY PREDICTED BY IDOCK:   -4.74 KCAL/MOL
REMARK 922        TOTAL FREE ENERGY PREDICTED BY IDOCK:  -12.90 KCAL/MOL
REMARK 923 INTER-LIGAND FREE ENERGY PREDICTED BY IDOCK:  -10.47 KCAL/MOL
REMARK 924 INTRA-LIGAND FREE ENERGY PREDICTED BY IDOCK:   -2.44 KCAL/MOL
REMARK 927      BINDING AFFINITY PREDICTED BY RF-SCORE:    0.00 PKD
ROOT
HETATM    1  O   UNL     1     -10.402  19.808  68.615  1.00  0.00    -0.502 OA 
HETATM    2  C   UNL     1     -10.151  18.432  68.523  1.00  0.00    -0.384 C  
HETATM    3  H   UNL     1     -10.666  20.026  69.502  1.00  0.00     0.000 HD 
ENDROOT
BRANCH   2   4
HETATM    4  C   UNL     1      -9.723  18.080  67.088  1.00  0.00    -0.297 C  
HETATM    5  O   UNL     1      -8.399  17.608  67.100  1.00  0.00    -0.210 OA 
HETATM    6  H   UNL     1      -8.135  17.391  66.214  1.00  0.00     0.000 HD 
BRANCH   4   7
HETATM    7  C   UNL     1     -10.650  17.003  66.465  1.00  0.00    -0.172 C  
HETATM    8  H   UNL     1     -11.256  16.503  64.686  1.00  0.00     0.000 HD 
HETATM    9  O   UNL     1     -10.688  17.162  65.067  1.00  0.00    -0.712 OA 
BRANCH   7  10
HETATM   10  C   UNL     1     -10.171  15.564  66.796  1.00  0.00    -0.280 C  
HETATM   11  H   UNL     1      -8.893  14.315  66.065  1.00  0.00     0.000 HD 
HETATM   12  O   UNL     1      -9.186  15.196  65.862  1.00  0.00    -0.296 OA 
BRANCH  10  13
HETATM   13  C   UNL     1     -11.313  14.510  66.765  1.00  0.00    -0.352 C  
HETATM   14  H   UNL     1     -11.547  12.686  66.142  1.00  0.00     0.000 HD 
HETATM   15  O   UNL     1     -10.850  13.331  66.160  1.00  0.00    -0.278 OA 
BRANCH  13  16
HETATM   16  C   UNL     1     -11.838  14.154  68.136  1.00  0.00    -0.352 C  
HETATM   17  O   UNL     1     -11.964  15.026  68.982  1.00  0.00    -0.305 OA 
BRANCH  16  18
HETATM   18  O   UNL     1     -12.160  12.883  68.450  1.00  0.00    -0.291 OA 
BRANCH  18  19
HETATM   19 CA   UNL     1     -10.624  11.102  67.881  1.00  0.00    -0.165 Ca 
BRANCH  19  20
HETATM   20  O   UNL     1      -9.087   9.322  67.313  1.00  0.00    -0.126 OA 
BRANCH  20  21
HETATM   21  C   UNL     1      -9.356   8.256  68.086  1.00  0.00    -0.133 C  
HETATM   22  O   UNL     1     -10.510   7.863  68.135  1.00  0.00    -0.207 OA 
BRANCH  21  23
HETATM   23  C   UNL     1      -8.317   7.656  69.007  1.00  0.00    -0.128 C  
HETATM   24  H   UNL     1      -6.668   6.676  68.798  1.00  0.00     0.000 HD 
HETATM   25  O   UNL     1      -7.320   7.053  68.220  1.00  0.00    -0.091 OA 
BRANCH  23  26
HETATM   26  C   UNL     1      -8.872   6.607  70.017  1.00  0.00    -0.141 C  
HETATM   27  H   UNL     1      -9.037   4.677  70.106  1.00  0.00     0.000 HD 
HETATM   28  O   UNL     1      -8.699   5.316  69.490  1.00  0.00    -0.102 OA 
BRANCH  26  29
HETATM   29  C   UNL     1      -8.317   6.655  71.483  1.00  0.00    -0.120 C  
BRANCH  29  30
HETATM   30  O   UNL     1      -9.364   7.170  72.292  1.00  0.00    -0.139 OA 
BRANCH  30  31
HETATM   31  C   UNL     1     -10.574   7.460  71.622  1.00  0.00    -0.205 C  
HETATM   32  O   UNL     1     -10.874   8.842  71.732  1.00  0.00    -0.293 OA 
HETATM   33  C   UNL     1     -12.080   9.150  71.050  1.00  0.00    -0.263 C  
HETATM   34  H   UNL     1     -12.079   4.729  72.647  1.00  0.00     0.000 HD 
HETATM   35  C   UNL     1     -13.280   8.462  71.750  1.00  0.00    -0.355 C  
HETATM   36  O   UNL     1     -13.380   8.886  73.088  1.00  0.00    -0.926 OA 
HETATM   37  C   UNL     1     -13.058   6.936  71.703  1.00  0.00    -0.279 C  
HETATM   38  O   UNL     1     -11.401   5.244  72.226  1.00  0.00    -0.179 OA 
HETATM   39  H   UNL     1     -14.116   8.464  73.516  1.00  0.00     0.000 HD 
HETATM   40  O   UNL     1     -14.051   6.244  72.420  1.00  0.00    -0.593 OA 
HETATM   41  C   UNL     1     -11.680   6.620  72.309  1.00  0.00    -0.269 C  
HETATM   42  H   UNL     1     -13.914   5.305  72.390  1.00  0.00     0.000 HD 
BRANCH  33  43
HETATM   43  C   UNL     1     -12.227  10.679  71.016  1.00  0.00    -0.393 C  
HETATM   44  O   UNL     1     -11.138  11.282  70.370  1.00  0.00    -0.441 OA 
HETATM   45  H   UNL     1     -11.229  12.227  70.349  1.00  0.00     0.000 HD 
ENDBRANCH  33  43
ENDBRANCH  30  31
ENDBRANCH  29  30
BRANCH  29  46
HETATM   46  C   UNL     1      -6.975   7.443  71.683  1.00  0.00    -0.058 C  
HETATM   47  O   UNL     1      -5.913   6.812  71.006  1.00  0.00    -0.031 OA 
HETATM   48  H   UNL     1      -5.101   7.288  71.127  1.00  0.00     0.000 HD 
BRANCH  46  49
HETATM   49  C   UNL     1      -6.620   7.770  73.152  1.00  0.00    -0.073 C  
HETATM   50  H   UNL     1      -6.410   9.357  74.273  1.00  0.00     0.000 HD 
HETATM   51  O   UNL     1      -6.628   9.156  73.370  1.00  0.00    -0.323 OA 
ENDBRANCH  46  49
ENDBRANCH  29  46
ENDBRANCH  26  29
ENDBRANCH  23  26
ENDBRANCH  21  23
ENDBRANCH  20  21
ENDBRANCH  19  20
ENDBRANCH  18  19
ENDBRANCH  16  18
ENDBRANCH  13  16
ENDBRANCH  10  13
ENDBRANCH   7  10
ENDBRANCH   4   7
ENDBRANCH   2   4
TORSDOF 17
ENDMDL
MODEL      174
REMARK 921   NORMALIZED FREE ENERGY PREDICTED BY IDOCK:   -4.74 KCAL/MOL
REMARK 922        TOTAL FREE ENERGY PREDICTED BY IDOCK:  -12.90 KCAL/MOL
REMARK 923 INTER-LIGAND FREE ENERGY PREDICTED BY IDOCK:  -10.25 KCAL/MOL
REMARK 924 INTRA-LIGAND FREE ENERGY PREDICTED BY IDOCK:   -2.65 KCAL/MOL
REMARK 927      BINDING AFFINITY PREDICTED BY RF-SCORE:    0.00 PKD
ROOT
HETATM    1  O   UNL     1     -12.624  14.798  69.518  1.00  0.00    -0.564 OA 
HETATM    2  C   UNL     1     -12.026  13.837  68.691  1.00  0.00    -0.366 C  
HETATM    3  H   UNL     1     -12.986  14.376  70.289  1.00  0.00     0.000 HD 
ENDROOT
BRANCH   2   4
HETATM    4  C   UNL     1     -11.442  14.521  67.443  1.00  0.00    -0.368 C  
HETATM    5  O   UNL     1     -10.666  15.625  67.839  1.00  0.00    -0.277 OA 
HETATM    6  H   UNL     1     -10.305  16.047  67.068  1.00  0.00     0.000 HD 
BRANCH   4   7
HETATM    7  C   UNL     1     -10.566  13.544  66.615  1.00  0.00    -0.280 C  
HETATM    8  H   UNL     1     -10.390  11.619  66.406  1.00  0.00     0.000 HD 
HETATM    9  O   UNL     1     -10.927  12.217  66.912  1.00  0.00    -0.245 OA 
BRANCH   7  10
HETATM   10  C   UNL     1     -10.718  13.779  65.089  1.00  0.00    -0.358 C  
HETATM   11  H   UNL     1     -10.557  15.281  63.885  1.00  0.00     0.000 HD 
HETATM   12  O   UNL     1     -10.464  15.137  64.820  1.00  0.00    -0.368 OA 
BRANCH  10  13
HETATM   13  C   UNL     1     -12.126  13.413  64.544  1.00  0.00    -0.409 C  
HETATM   14  H   UNL     1     -13.493  14.259  63.453  1.00  0.00     0.000 HD 
HETATM   15  O   UNL     1     -12.632  14.483  63.787  1.00  0.00    -0.825 OA 
BRANCH  13  16
HETATM   16  C   UNL     1     -12.130  12.182  63.669  1.00  0.00    -0.551 C  
HETATM   17  O   UNL     1     -13.154  11.854  63.090  1.00  0.00    -0.605 OA 
BRANCH  16  18
HETATM   18  O   UNL     1     -11.022  11.428  63.523  1.00  0.00    -0.398 OA 
BRANCH  18  19
HETATM   19 CA   UNL     1     -10.505   9.757  65.195  1.00  0.00    -0.313 Ca 
BRANCH  19  20
HETATM   20  O   UNL     1      -9.988   8.085  66.867  1.00  0.00    -0.217 OA 
BRANCH  20  21
HETATM   21  C   UNL     1      -9.167   7.170  66.323  1.00  0.00    -0.127 C  
HETATM   22  O   UNL     1      -8.366   7.548  65.485  1.00  0.00    -0.130 OA 
BRANCH  21  23
HETATM   23  C   UNL     1      -9.331   5.691  66.594  1.00  0.00    -0.144 C  
HETATM   24  H   UNL     1     -10.750   4.535  67.207  1.00  0.00     0.000 HD 
HETATM   25  O   UNL     1     -10.647   5.464  67.037  1.00  0.00    -0.254 OA 
BRANCH  23  26
HETATM   26  C   UNL     1      -8.335   5.108  67.641  1.00  0.00    -0.105 C  
HETATM   27  H   UNL     1      -6.418   5.127  67.935  1.00  0.00     0.000 HD 
HETATM   28  O   UNL     1      -7.025   5.482  67.297  1.00  0.00    -0.062 OA 
BRANCH  26  29
HETATM   29  C   UNL     1      -8.598   5.442  69.150  1.00  0.00    -0.102 C  
BRANCH  29  30
HETATM   30  O   UNL     1      -7.942   6.675  69.408  1.00  0.00    -0.111 OA 
BRANCH  30  31
HETATM   31  C   UNL     1      -8.677   7.615  70.165  1.00  0.00    -0.141 C  
HETATM   32  O   UNL     1     -10.044   7.242  70.213  1.00  0.00    -0.190 OA 
HETATM   33  C   UNL     1     -10.791   8.171  70.984  1.00  0.00    -0.235 C  
HETATM   34  H   UNL     1      -7.081  10.209  68.940  1.00  0.00     0.000 HD 
HETATM   35  C   UNL     1     -10.817   9.551  70.278  1.00  0.00    -0.269 C  
HETATM   36  O   UNL     1     -11.391   9.440  68.998  1.00  0.00    -0.451 OA 
HETATM   37  C   UNL     1      -9.366  10.060  70.156  1.00  0.00    -0.041 C  
HETATM   38  O   UNL     1      -7.174   9.372  69.377  1.00  0.00    -0.061 OA 
HETATM   39  H   UNL     1     -11.407  10.286  68.566  1.00  0.00     0.000 HD 
HETATM   40  O   UNL     1      -9.295  11.258  69.422  1.00  0.00    -0.389 OA 
HETATM   41  C   UNL     1      -8.524   8.982  69.451  1.00  0.00    -0.117 C  
HETATM   42  H   UNL     1      -8.402  11.571  69.347  1.00  0.00     0.000 HD 
BRANCH  33  43
HETATM   43  C   UNL     1     -12.202   7.595  71.183  1.00  0.00    -0.285 C  
HETATM   44  O   UNL     1     -12.761   8.023  72.396  1.00  0.00    -0.514 OA 
HETATM   45  H   UNL     1     -13.632   7.667  72.518  1.00  0.00     0.000 HD 
ENDBRANCH  33  43
ENDBRANCH  30  31
ENDBRANCH  29  30
BRANCH  29  46
HETATM   46  C   UNL     1      -8.192   4.330  70.180  1.00  0.00    -0.058 C  
HETATM   47  O   UNL     1      -7.733   3.173  69.520  1.00  0.00    -0.047 OA 
HETATM   48  H   UNL     1      -7.487   2.501  70.143  1.00  0.00     0.000 HD 
BRANCH  46  49
HETATM   49  C   UNL     1      -9.261   4.008  71.250  1.00  0.00    -0.131 C  
HETATM   50  H   UNL     1     -10.220   2.439  71.913  1.00  0.00     0.000 HD 
HETATM   51  O   UNL     1      -9.563   2.637  71.256  1.00  0.00    -0.143 OA 
ENDBRANCH  46  49
ENDBRANCH  29  46
ENDBRANCH  26  29
ENDBRANCH  23  26
ENDBRANCH  21  23
ENDBRANCH  20  21
ENDBRANCH  19  20
ENDBRANCH  18  19
ENDBRANCH  16  18
ENDBRANCH  13  16
ENDBRANCH  10  13
ENDBRANCH   7  10
ENDBRANCH   4   7
ENDBRANCH   2   4
TORSDOF 17
ENDMDL
MODEL      175
REMARK 921   NORMALIZED FREE ENERGY PREDICTED BY IDOCK:   -4.74 KCAL/MOL
REMARK 922        TOTAL FREE ENERGY PREDICTED BY IDOCK:  -12.89 KCAL/MOL
REMARK 923 INTER-LIGAND FREE ENERGY PREDICTED BY IDOCK:   -9.98 KCAL/MOL
REMARK 924 INTRA-LIGAND FREE ENERGY PREDICTED BY IDOCK:   -2.90 KCAL/MOL
REMARK 927      BINDING AFFINITY PREDICTED BY RF-SCORE:    0.00 PKD
ROOT
HETATM    1  O   UNL     1     -10.080  19.351  66.017  1.00  0.00    -0.411 OA 
HETATM    2  C   UNL     1     -10.778  19.499  67.223  1.00  0.00    -0.484 C  
HETATM    3  H   UNL     1     -10.631  19.627  65.293  1.00  0.00     0.000 HD 
ENDROOT
BRANCH   2   4
HETATM    4  C   UNL     1      -9.887  19.053  68.395  1.00  0.00    -0.392 C  
HETATM    5  O   UNL     1     -10.307  19.700  69.570  1.00  0.00    -0.607 OA 
HETATM    6  H   UNL     1      -9.756  19.424  70.294  1.00  0.00     0.000 HD 
BRANCH   4   7
HETATM    7  C   UNL     1      -9.946  17.516  68.602  1.00  0.00    -0.347 C  
HETATM    8  H   UNL     1     -10.990  16.026  67.916  1.00  0.00     0.000 HD 
HETATM    9  O   UNL     1     -10.954  16.967  67.789  1.00  0.00    -0.315 OA 
BRANCH   7  10
HETATM   10  C   UNL     1      -8.595  16.833  68.260  1.00  0.00    -0.226 C  
HETATM   11  H   UNL     1      -7.383  15.616  69.144  1.00  0.00     0.000 HD 
HETATM   12  O   UNL     1      -8.210  16.034  69.353  1.00  0.00    -0.235 OA 
BRANCH  10  13
HETATM   13  C   UNL     1      -7.454  17.840  67.948  1.00  0.00    -0.210 C  
HETATM   14  H   UNL     1      -5.696  18.263  68.657  1.00  0.00     0.000 HD 
HETATM   15  O   UNL     1      -6.393  17.647  68.849  1.00  0.00    -0.193 OA 
BRANCH  13  16
HETATM   16  C   UNL     1      -6.903  17.708  66.548  1.00  0.00    -0.242 C  
HETATM   17  O   UNL     1      -7.417  18.333  65.633  1.00  0.00    -0.532 OA 
BRANCH  16  18
HETATM   18  O   UNL     1      -5.856  16.900  66.284  1.00  0.00    -0.308 OA 
BRANCH  18  19
HETATM   19 CA   UNL     1      -5.835  14.661  67.204  1.00  0.00    -0.106 Ca 
BRANCH  19  20
HETATM   20  O   UNL     1      -5.814  12.423  68.123  1.00  0.00    -0.056 OA 
BRANCH  20  21
HETATM   21  C   UNL     1      -6.130  11.553  67.149  1.00  0.00    -0.115 C  
HETATM   22  O   UNL     1      -5.503  11.613  66.105  1.00  0.00    -0.282 OA 
BRANCH  21  23
HETATM   23  C   UNL     1      -7.332  10.641  67.253  1.00  0.00    -0.092 C  
HETATM   24  H   UNL     1      -7.732   8.953  68.100  1.00  0.00     0.000 HD 
HETATM   25  O   UNL     1      -6.977   9.526  68.034  1.00  0.00    -0.077 OA 
BRANCH  23  26
HETATM   26  C   UNL     1      -7.894  10.147  65.886  1.00  0.00    -0.132 C  
HETATM   27  H   UNL     1      -7.769   8.545  64.800  1.00  0.00     0.000 HD 
HETATM   28  O   UNL     1      -7.426   8.846  65.633  1.00  0.00    -0.084 OA 
BRANCH  26  29
HETATM   29  C   UNL     1      -9.448  10.194  65.687  1.00  0.00    -0.220 C  
BRANCH  29  30
HETATM   30  O   UNL     1      -9.964   9.006  66.269  1.00  0.00    -0.280 OA 
BRANCH  30  31
HETATM   31  C   UNL     1     -10.768   9.182  67.418  1.00  0.00    -0.177 C  
HETATM   32  O   UNL     1     -10.703  10.529  67.857  1.00  0.00    -0.218 OA 
HETATM   33  C   UNL     1     -11.519  10.724  69.002  1.00  0.00    -0.298 C  
HETATM   34  H   UNL     1      -9.896   6.318  68.765  1.00  0.00     0.000 HD 
HETATM   35  C   UNL     1     -10.952   9.924  70.203  1.00  0.00    -0.301 C  
HETATM   36  O   UNL     1      -9.638  10.333  70.493  1.00  0.00    -0.262 OA 
HETATM   37  C   UNL     1     -10.962   8.425  69.834  1.00  0.00    -0.166 C  
HETATM   38  O   UNL     1     -10.243   6.896  68.095  1.00  0.00    -0.159 OA 
HETATM   39  H   UNL     1      -9.291   9.842  71.229  1.00  0.00     0.000 HD 
HETATM   40  O   UNL     1     -10.356   7.641  70.832  1.00  0.00    -0.200 OA 
HETATM   41  C   UNL     1     -10.203   8.240  68.510  1.00  0.00    -0.208 C  
HETATM   42  H   UNL     1     -10.362   6.719  70.605  1.00  0.00     0.000 HD 
BRANCH  33  43
HETATM   43  C   UNL     1     -11.581  12.233  69.288  1.00  0.00    -0.324 C  
HETATM   44  O   UNL     1     -10.301  12.807  69.275  1.00  0.00    -0.423 OA 
HETATM   45  H   UNL     1     -10.340  13.739  69.451  1.00  0.00     0.000 HD 
ENDBRANCH  33  43
ENDBRANCH  30  31
ENDBRANCH  29  30
BRANCH  29  46
HETATM   46  C   UNL     1      -9.946  10.393  64.212  1.00  0.00    -0.298 C  
HETATM   47  O   UNL     1      -9.476   9.359  63.377  1.00  0.00    -0.471 OA 
HETATM   48  H   UNL     1      -9.777   9.479  62.485  1.00  0.00     0.000 HD 
BRANCH  46  49
HETATM   49  C   UNL     1      -9.679  11.794  63.614  1.00  0.00    -0.271 C  
HETATM   50  H   UNL     1      -8.876  12.552  62.001  1.00  0.00     0.000 HD 
HETATM   51  O   UNL     1      -9.040  11.691  62.369  1.00  0.00    -0.259 OA 
ENDBRANCH  46  49
ENDBRANCH  29  46
ENDBRANCH  26  29
ENDBRANCH  23  26
ENDBRANCH  21  23
ENDBRANCH  20  21
ENDBRANCH  19  20
ENDBRANCH  18  19
ENDBRANCH  16  18
ENDBRANCH  13  16
ENDBRANCH  10  13
ENDBRANCH   7  10
ENDBRANCH   4   7
ENDBRANCH   2   4
TORSDOF 17
ENDMDL
MODEL      176
REMARK 921   NORMALIZED FREE ENERGY PREDICTED BY IDOCK:   -4.71 KCAL/MOL
REMARK 922        TOTAL FREE ENERGY PREDICTED BY IDOCK:  -12.82 KCAL/MOL
REMARK 923 INTER-LIGAND FREE ENERGY PREDICTED BY IDOCK:  -10.24 KCAL/MOL
REMARK 924 INTRA-LIGAND FREE ENERGY PREDICTED BY IDOCK:   -2.59 KCAL/MOL
REMARK 927      BINDING AFFINITY PREDICTED BY RF-SCORE:    0.00 PKD
ROOT
HETATM    1  O   UNL     1     -12.976  12.677  64.119  1.00  0.00    -0.717 OA 
HETATM    2  C   UNL     1     -13.028  13.471  65.273  1.00  0.00    -0.228 C  
HETATM    3  H   UNL     1     -13.714  12.881  63.557  1.00  0.00     0.000 HD 
ENDROOT
BRANCH   2   4
HETATM    4  C   UNL     1     -11.833  13.140  66.183  1.00  0.00    -0.401 C  
HETATM    5  O   UNL     1     -11.492  11.786  66.027  1.00  0.00    -0.322 OA 
HETATM    6  H   UNL     1     -10.754  11.581  66.589  1.00  0.00     0.000 HD 
BRANCH   4   7
HETATM    7  C   UNL     1     -10.602  14.025  65.852  1.00  0.00    -0.301 C  
HETATM    8  H   UNL     1      -9.456  14.352  64.316  1.00  0.00     0.000 HD 
HETATM    9  O   UNL     1     -10.210  13.810  64.518  1.00  0.00    -0.414 OA 
BRANCH   7  10
HETATM   10  C   UNL     1     -10.901  15.534  66.054  1.00  0.00    -0.300 C  
HETATM   11  H   UNL     1     -10.575  17.166  65.073  1.00  0.00     0.000 HD 
HETATM   12  O   UNL     1     -10.392  16.241  64.949  1.00  0.00    -0.578 OA 
BRANCH  10  13
HETATM   13  C   UNL     1     -10.283  16.119  67.354  1.00  0.00    -0.272 C  
HETATM   14  H   UNL     1     -10.107  17.866  68.184  1.00  0.00     0.000 HD 
HETATM   15  O   UNL     1     -10.485  17.508  67.389  1.00  0.00    -0.341 OA 
BRANCH  13  16
HETATM   16  C   UNL     1     -10.873  15.533  68.615  1.00  0.00    -0.267 C  
HETATM   17  O   UNL     1     -12.060  15.686  68.856  1.00  0.00    -0.319 OA 
BRANCH  16  18
HETATM   18  O   UNL     1     -10.107  14.850  69.489  1.00  0.00    -0.190 OA 
BRANCH  18  19
HETATM   19 CA   UNL     1     -10.537  12.494  69.843  1.00  0.00    -0.431 Ca 
BRANCH  19  20
HETATM   20  O   UNL     1     -10.966  10.139  70.197  1.00  0.00    -0.273 OA 
BRANCH  20  21
HETATM   21  C   UNL     1     -11.760  10.002  71.273  1.00  0.00    -0.369 C  
HETATM   22  O   UNL     1     -12.573  10.882  71.498  1.00  0.00    -0.384 OA 
BRANCH  21  23
HETATM   23  C   UNL     1     -11.551   8.895  72.282  1.00  0.00    -0.262 C  
HETATM   24  H   UNL     1     -10.048   8.134  73.225  1.00  0.00     0.000 HD 
HETATM   25  O   UNL     1     -10.180   8.829  72.592  1.00  0.00    -0.188 OA 
BRANCH  23  26
HETATM   26  C   UNL     1     -12.034   7.489  71.814  1.00  0.00    -0.301 C  
HETATM   27  H   UNL     1     -13.193   6.778  70.431  1.00  0.00     0.000 HD 
HETATM   28  O   UNL     1     -12.899   7.635  70.716  1.00  0.00    -0.054 OA 
BRANCH  26  29
HETATM   29  C   UNL     1     -10.933   6.424  71.478  1.00  0.00    -0.263 C  
BRANCH  29  30
HETATM   30  O   UNL     1     -11.078   6.119  70.098  1.00  0.00    -0.323 OA 
BRANCH  30  31
HETATM   31  C   UNL     1      -9.914   6.267  69.310  1.00  0.00    -0.155 C  
HETATM   32  O   UNL     1     -10.047   7.385  68.448  1.00  0.00    -0.166 OA 
HETATM   33  C   UNL     1      -8.878   7.554  67.661  1.00  0.00    -0.128 C  
HETATM   34  H   UNL     1      -9.559   3.044  68.798  1.00  0.00     0.000 HD 
HETATM   35  C   UNL     1      -8.716   6.361  66.684  1.00  0.00    -0.127 C  
HETATM   36  O   UNL     1      -9.835   6.259  65.838  1.00  0.00    -0.388 OA 
HETATM   37  C   UNL     1      -8.572   5.070  67.517  1.00  0.00    -0.104 C  
HETATM   38  O   UNL     1      -9.648   3.839  69.308  1.00  0.00    -0.182 OA 
HETATM   39  H   UNL     1      -9.735   5.528  65.240  1.00  0.00     0.000 HD 
HETATM   40  O   UNL     1      -8.534   3.926  66.699  1.00  0.00    -0.103 OA 
HETATM   41  C   UNL     1      -9.769   4.968  68.477  1.00  0.00    -0.154 C  
HETATM   42  H   UNL     1      -8.445   3.131  67.212  1.00  0.00     0.000 HD 
BRANCH  33  43
HETATM   43  C   UNL     1      -8.995   8.897  66.922  1.00  0.00    -0.128 C  
HETATM   44  O   UNL     1     -10.102   9.631  67.372  1.00  0.00    -0.178 OA 
HETATM   45  H   UNL     1     -10.174  10.461  66.916  1.00  0.00     0.000 HD 
ENDBRANCH  33  43
ENDBRANCH  30  31
ENDBRANCH  29  30
BRANCH  29  46
HETATM   46  C   UNL     1     -10.932   5.134  72.370  1.00  0.00    -0.180 C  
HETATM   47  O   UNL     1     -12.006   5.148  73.281  1.00  0.00    -0.512 OA 
HETATM   48  H   UNL     1     -12.006   4.367  73.821  1.00  0.00     0.000 HD 
BRANCH  46  49
HETATM   49  C   UNL     1      -9.585   4.817  73.060  1.00  0.00    -0.132 C  
HETATM   50  H   UNL     1      -8.686   3.266  73.840  1.00  0.00     0.000 HD 
HETATM   51  O   UNL     1      -9.514   3.461  73.416  1.00  0.00    -0.102 OA 
ENDBRANCH  46  49
ENDBRANCH  29  46
ENDBRANCH  26  29
ENDBRANCH  23  26
ENDBRANCH  21  23
ENDBRANCH  20  21
ENDBRANCH  19  20
ENDBRANCH  18  19
ENDBRANCH  16  18
ENDBRANCH  13  16
ENDBRANCH  10  13
ENDBRANCH   7  10
ENDBRANCH   4   7
ENDBRANCH   2   4
TORSDOF 17
ENDMDL
MODEL      177
REMARK 921   NORMALIZED FREE ENERGY PREDICTED BY IDOCK:   -4.70 KCAL/MOL
REMARK 922        TOTAL FREE ENERGY PREDICTED BY IDOCK:  -12.81 KCAL/MOL
REMARK 923 INTER-LIGAND FREE ENERGY PREDICTED BY IDOCK:  -10.39 KCAL/MOL
REMARK 924 INTRA-LIGAND FREE ENERGY PREDICTED BY IDOCK:   -2.42 KCAL/MOL
REMARK 927      BINDING AFFINITY PREDICTED BY RF-SCORE:    0.00 PKD
ROOT
HETATM    1  O   UNL     1      -9.143   5.497  67.436  1.00  0.00    -0.112 OA 
HETATM    2  C   UNL     1     -10.047   5.201  68.465  1.00  0.00    -0.144 C  
HETATM    3  H   UNL     1      -9.522   5.259  66.598  1.00  0.00     0.000 HD 
ENDROOT
BRANCH   2   4
HETATM    4  C   UNL     1      -9.433   5.587  69.821  1.00  0.00    -0.149 C  
HETATM    5  O   UNL     1      -8.048   5.347  69.789  1.00  0.00    -0.092 OA 
HETATM    6  H   UNL     1      -7.669   5.585  70.627  1.00  0.00     0.000 HD 
BRANCH   4   7
HETATM    7  C   UNL     1      -9.690   7.080  70.160  1.00  0.00    -0.175 C  
HETATM    8  H   UNL     1     -10.339   8.659  69.230  1.00  0.00     0.000 HD 
HETATM    9  O   UNL     1     -10.182   7.745  69.022  1.00  0.00    -0.198 OA 
BRANCH   7  10
HETATM   10  C   UNL     1     -10.708   7.244  71.320  1.00  0.00    -0.225 C  
HETATM   11  H   UNL     1     -12.622   7.093  71.530  1.00  0.00     0.000 HD 
HETATM   12  O   UNL     1     -11.999   6.993  70.819  1.00  0.00    -0.349 OA 
BRANCH  10  13
HETATM   13  C   UNL     1     -10.685   8.656  71.967  1.00  0.00    -0.357 C  
HETATM   14  H   UNL     1      -9.381  10.065  72.263  1.00  0.00     0.000 HD 
HETATM   15  O   UNL     1      -9.395   9.201  71.867  1.00  0.00    -0.349 OA 
BRANCH  13  16
HETATM   16  C   UNL     1     -11.650   9.626  71.326  1.00  0.00    -0.393 C  
HETATM   17  O   UNL     1     -12.715   9.870  71.871  1.00  0.00    -0.394 OA 
BRANCH  16  18
HETATM   18  O   UNL     1     -11.361  10.221  70.151  1.00  0.00    -0.270 OA 
BRANCH  18  19
HETATM   19 CA   UNL     1      -9.052  10.367  69.440  1.00  0.00    -0.139 Ca 
BRANCH  19  20
HETATM   20  O   UNL     1      -6.744  10.511  68.729  1.00  0.00    -0.052 OA 
BRANCH  20  21
HETATM   21  C   UNL     1      -6.713  10.813  67.420  1.00  0.00    -0.076 C  
HETATM   22  O   UNL     1      -5.684  10.589  66.806  1.00  0.00    -0.049 OA 
BRANCH  21  23
HETATM   23  C   UNL     1      -7.840  11.567  66.749  1.00  0.00    -0.146 C  
HETATM   24  H   UNL     1      -9.327  12.655  67.326  1.00  0.00     0.000 HD 
HETATM   25  O   UNL     1      -8.619  12.181  67.747  1.00  0.00    -0.147 OA 
BRANCH  23  26
HETATM   26  C   UNL     1      -8.764  10.691  65.850  1.00  0.00    -0.177 C  
HETATM   27  H   UNL     1     -10.109   9.319  66.114  1.00  0.00     0.000 HD 
HETATM   28  O   UNL     1      -9.545   9.852  66.662  1.00  0.00    -0.168 OA 
BRANCH  26  29
HETATM   29  C   UNL     1      -9.686  11.436  64.824  1.00  0.00    -0.244 C  
BRANCH  29  30
HETATM   30  O   UNL     1     -11.010  11.338  65.328  1.00  0.00    -0.234 OA 
BRANCH  30  31
HETATM   31  C   UNL     1     -11.582  12.544  65.793  1.00  0.00    -0.392 C  
HETATM   32  O   UNL     1     -10.851  13.653  65.298  1.00  0.00    -0.299 OA 
HETATM   33  C   UNL     1     -11.424  14.872  65.744  1.00  0.00    -0.281 C  
HETATM   34  H   UNL     1     -12.171  11.385  68.807  1.00  0.00     0.000 HD 
HETATM   35  C   UNL     1     -11.277  14.999  67.283  1.00  0.00    -0.338 C  
HETATM   36  O   UNL     1      -9.920  14.959  67.654  1.00  0.00    -0.224 OA 
HETATM   37  C   UNL     1     -12.031  13.824  67.940  1.00  0.00    -0.356 C  
HETATM   38  O   UNL     1     -12.216  11.407  67.859  1.00  0.00    -0.592 OA 
HETATM   39  H   UNL     1      -9.830  15.036  68.596  1.00  0.00     0.000 HD 
HETATM   40  O   UNL     1     -11.849  13.804  69.334  1.00  0.00    -0.297 OA 
HETATM   41  C   UNL     1     -11.509  12.508  67.340  1.00  0.00    -0.341 C  
HETATM   42  H   UNL     1     -12.313  13.081  69.738  1.00  0.00     0.000 HD 
BRANCH  33  43
HETATM   43  C   UNL     1     -10.731  16.023  64.999  1.00  0.00    -0.378 C  
HETATM   44  O   UNL     1     -11.420  16.358  63.824  1.00  0.00    -1.590 OA 
HETATM   45  H   UNL     1     -10.992  17.069  63.364  1.00  0.00     0.000 HD 
ENDBRANCH  33  43
ENDBRANCH  30  31
ENDBRANCH  29  30
BRANCH  29  46
HETATM   46  C   UNL     1      -9.585  10.953  63.334  1.00  0.00    -0.332 C  
HETATM   47  O   UNL     1      -9.645   9.548  63.253  1.00  0.00    -0.492 OA 
HETATM   48  H   UNL     1      -9.584   9.255  62.352  1.00  0.00     0.000 HD 
BRANCH  46  49
HETATM   49  C   UNL     1      -8.394  11.534  62.537  1.00  0.00     0.302 C  
HETATM   50  H   UNL     1      -6.564  11.018  62.084  1.00  0.00     0.000 HD 
HETATM   51  O   UNL     1      -7.296  10.661  62.573  1.00  0.00    -0.141 OA 
ENDBRANCH  46  49
ENDBRANCH  29  46
ENDBRANCH  26  29
ENDBRANCH  23  26
ENDBRANCH  21  23
ENDBRANCH  20  21
ENDBRANCH  19  20
ENDBRANCH  18  19
ENDBRANCH  16  18
ENDBRANCH  13  16
ENDBRANCH  10  13
ENDBRANCH   7  10
ENDBRANCH   4   7
ENDBRANCH   2   4
TORSDOF 17
ENDMDL
MODEL      178
REMARK 921   NORMALIZED FREE ENERGY PREDICTED BY IDOCK:   -4.69 KCAL/MOL
REMARK 922        TOTAL FREE ENERGY PREDICTED BY IDOCK:  -12.79 KCAL/MOL
REMARK 923 INTER-LIGAND FREE ENERGY PREDICTED BY IDOCK:  -10.93 KCAL/MOL
REMARK 924 INTRA-LIGAND FREE ENERGY PREDICTED BY IDOCK:   -1.87 KCAL/MOL
REMARK 927      BINDING AFFINITY PREDICTED BY RF-SCORE:    0.00 PKD
ROOT
HETATM    1  O   UNL     1     -14.410   8.295  70.928  1.00  0.00    -0.653 OA 
HETATM    2  C   UNL     1     -13.527   7.421  71.577  1.00  0.00    -0.372 C  
HETATM    3  H   UNL     1     -15.140   7.804  70.568  1.00  0.00     0.000 HD 
ENDROOT
BRANCH   2   4
HETATM    4  C   UNL     1     -12.346   8.216  72.159  1.00  0.00    -0.338 C  
HETATM    5  O   UNL     1     -11.590   7.378  72.997  1.00  0.00    -0.575 OA 
HETATM    6  H   UNL     1     -10.860   7.869  73.356  1.00  0.00     0.000 HD 
BRANCH   4   7
HETATM    7  C   UNL     1     -11.436   8.786  71.040  1.00  0.00    -0.285 C  
HETATM    8  H   UNL     1     -10.945  10.539  70.359  1.00  0.00     0.000 HD 
HETATM    9  O   UNL     1     -11.502  10.191  71.044  1.00  0.00    -0.354 OA 
BRANCH   7  10
HETATM   10  C   UNL     1      -9.957   8.350  71.217  1.00  0.00    -0.204 C  
HETATM   11  H   UNL     1      -8.230   9.211  71.148  1.00  0.00     0.000 HD 
HETATM   12  O   UNL     1      -9.135   9.478  71.040  1.00  0.00    -0.224 OA 
BRANCH  10  13
HETATM   13  C   UNL     1      -9.514   7.244  70.219  1.00  0.00    -0.165 C  
HETATM   14  H   UNL     1     -10.164   5.508  69.639  1.00  0.00     0.000 HD 
HETATM   15  O   UNL     1     -10.435   6.184  70.250  1.00  0.00    -0.199 OA 
BRANCH  13  16
HETATM   16  C   UNL     1      -9.413   7.729  68.792  1.00  0.00    -0.149 C  
HETATM   17  O   UNL     1      -8.341   8.128  68.363  1.00  0.00    -0.124 OA 
BRANCH  16  18
HETATM   18  O   UNL     1     -10.491   7.741  67.982  1.00  0.00    -0.207 OA 
BRANCH  18  19
HETATM   19 CA   UNL     1     -10.629   9.404  66.229  1.00  0.00    -0.235 Ca 
BRANCH  19  20
HETATM   20  O   UNL     1     -10.767  11.067  64.476  1.00  0.00    -0.341 OA 
BRANCH  20  21
HETATM   21  C   UNL     1     -10.680  12.288  65.031  1.00  0.00    -0.298 C  
HETATM   22  O   UNL     1     -10.304  13.209  64.327  1.00  0.00    -0.421 OA 
BRANCH  21  23
HETATM   23  C   UNL     1     -10.866  12.503  66.517  1.00  0.00    -0.256 C  
HETATM   24  H   UNL     1     -12.319  12.343  67.777  1.00  0.00     0.000 HD 
HETATM   25  O   UNL     1     -12.202  12.208  66.845  1.00  0.00    -0.537 OA 
BRANCH  23  26
HETATM   26  C   UNL     1     -10.526  13.941  67.013  1.00  0.00    -0.278 C  
HETATM   27  H   UNL     1     -11.265  15.216  68.274  1.00  0.00     0.000 HD 
HETATM   28  O   UNL     1     -11.473  14.339  67.971  1.00  0.00    -0.281 OA 
BRANCH  26  29
HETATM   29  C   UNL     1      -9.080  14.187  67.568  1.00  0.00    -0.195 C  
BRANCH  29  30
HETATM   30  O   UNL     1      -8.501  15.191  66.747  1.00  0.00    -0.242 OA 
BRANCH  30  31
HETATM   31  C   UNL     1      -8.618  16.517  67.222  1.00  0.00    -0.184 C  
HETATM   32  O   UNL     1      -9.383  17.294  66.315  1.00  0.00    -0.319 OA 
HETATM   33  C   UNL     1      -9.522  18.625  66.787  1.00  0.00    -0.316 C  
HETATM   34  H   UNL     1      -5.511  16.673  68.271  1.00  0.00     0.000 HD 
HETATM   35  C   UNL     1      -8.142  19.334  66.796  1.00  0.00    -0.275 C  
HETATM   36  O   UNL     1      -7.589  19.354  65.503  1.00  0.00    -0.434 OA 
HETATM   37  C   UNL     1      -7.208  18.562  67.751  1.00  0.00    -0.220 C  
HETATM   38  O   UNL     1      -6.392  16.325  68.208  1.00  0.00    -0.117 OA 
HETATM   39  H   UNL     1      -6.744  19.788  65.509  1.00  0.00     0.000 HD 
HETATM   40  O   UNL     1      -5.900  19.078  67.727  1.00  0.00    -0.190 OA 
HETATM   41  C   UNL     1      -7.180  17.085  67.324  1.00  0.00    -0.160 C  
HETATM   42  H   UNL     1      -5.325  18.603  68.315  1.00  0.00     0.000 HD 
BRANCH  33  43
HETATM   43  C   UNL     1     -10.537  19.344  65.885  1.00  0.00    -0.459 C  
HETATM   44  O   UNL     1     -11.104  18.463  64.952  1.00  0.00    -0.560 OA 
HETATM   45  H   UNL     1     -11.731  18.907  64.396  1.00  0.00     0.000 HD 
ENDBRANCH  33  43
ENDBRANCH  30  31
ENDBRANCH  29  30
BRANCH  29  46
HETATM   46  C   UNL     1      -8.164  12.919  67.685  1.00  0.00    -0.177 C  
HETATM   47  O   UNL     1      -8.486  12.167  68.832  1.00  0.00    -0.360 OA 
HETATM   48  H   UNL     1      -7.931  11.400  68.902  1.00  0.00     0.000 HD 
BRANCH  46  49
HETATM   49  C   UNL     1      -6.647  13.195  67.573  1.00  0.00    -0.152 C  
HETATM   50  H   UNL     1      -5.076  13.146  68.735  1.00  0.00     0.000 HD 
HETATM   51  O   UNL     1      -6.008  12.976  68.804  1.00  0.00    -0.070 OA 
ENDBRANCH  46  49
ENDBRANCH  29  46
ENDBRANCH  26  29
ENDBRANCH  23  26
ENDBRANCH  21  23
ENDBRANCH  20  21
ENDBRANCH  19  20
ENDBRANCH  18  19
ENDBRANCH  16  18
ENDBRANCH  13  16
ENDBRANCH  10  13
ENDBRANCH   7  10
ENDBRANCH   4   7
ENDBRANCH   2   4
TORSDOF 17
ENDMDL
MODEL      179
REMARK 921   NORMALIZED FREE ENERGY PREDICTED BY IDOCK:   -4.69 KCAL/MOL
REMARK 922        TOTAL FREE ENERGY PREDICTED BY IDOCK:  -12.79 KCAL/MOL
REMARK 923 INTER-LIGAND FREE ENERGY PREDICTED BY IDOCK:  -10.52 KCAL/MOL
REMARK 924 INTRA-LIGAND FREE ENERGY PREDICTED BY IDOCK:   -2.26 KCAL/MOL
REMARK 927      BINDING AFFINITY PREDICTED BY RF-SCORE:    0.00 PKD
ROOT
HETATM    1  O   UNL     1     -14.326   9.247  72.813  1.00  0.00    -0.852 OA 
HETATM    2  C   UNL     1     -13.033   8.715  72.726  1.00  0.00    -0.073 C  
HETATM    3  H   UNL     1     -14.556   9.382  73.725  1.00  0.00     0.000 HD 
ENDROOT
BRANCH   2   4
HETATM    4  C   UNL     1     -12.661   8.497  71.250  1.00  0.00    -0.226 C  
HETATM    5  O   UNL     1     -12.906   9.679  70.530  1.00  0.00    -0.525 OA 
HETATM    6  H   UNL     1     -12.676   9.545  69.618  1.00  0.00     0.000 HD 
BRANCH   4   7
HETATM    7  C   UNL     1     -11.171   8.094  71.091  1.00  0.00    -0.257 C  
HETATM    8  H   UNL     1      -9.850   7.093  72.108  1.00  0.00     0.000 HD 
HETATM    9  O   UNL     1     -10.763   7.340  72.205  1.00  0.00    -0.215 OA 
BRANCH   7  10
HETATM   10  C   UNL     1     -10.929   7.263  69.802  1.00  0.00    -0.216 C  
HETATM   11  H   UNL     1     -11.007   5.398  69.309  1.00  0.00     0.000 HD 
HETATM   12  O   UNL     1     -11.155   5.906  70.098  1.00  0.00    -0.348 OA 
BRANCH  10  13
HETATM   13  C   UNL     1      -9.495   7.420  69.225  1.00  0.00    -0.154 C  
HETATM   14  H   UNL     1      -7.810   6.461  69.323  1.00  0.00     0.000 HD 
HETATM   15  O   UNL     1      -8.686   6.365  69.676  1.00  0.00    -0.135 OA 
BRANCH  13  16
HETATM   16  C   UNL     1      -9.454   7.424  67.715  1.00  0.00    -0.140 C  
HETATM   17  O   UNL     1      -8.438   7.071  67.136  1.00  0.00    -0.119 OA 
BRANCH  16  18
HETATM   18  O   UNL     1     -10.518   7.823  66.990  1.00  0.00    -0.309 OA 
BRANCH  18  19
HETATM   19 CA   UNL     1     -10.305   9.753  65.545  1.00  0.00    -0.252 Ca 
BRANCH  19  20
HETATM   20  O   UNL     1     -10.092  11.683  64.101  1.00  0.00    -0.258 OA 
BRANCH  20  21
HETATM   21  C   UNL     1     -10.512  12.770  64.769  1.00  0.00    -0.335 C  
HETATM   22  O   UNL     1      -9.926  13.822  64.575  1.00  0.00    -0.245 OA 
BRANCH  21  23
HETATM   23  C   UNL     1     -11.557  12.682  65.859  1.00  0.00    -0.396 C  
HETATM   24  H   UNL     1     -13.482  12.790  65.958  1.00  0.00     0.000 HD 
HETATM   25  O   UNL     1     -12.825  12.846  65.274  1.00  0.00    -0.668 OA 
BRANCH  23  26
HETATM   26  C   UNL     1     -11.389  13.723  67.007  1.00  0.00    -0.326 C  
HETATM   27  H   UNL     1     -12.487  15.067  67.871  1.00  0.00     0.000 HD 
HETATM   28  O   UNL     1     -12.590  14.433  67.171  1.00  0.00    -0.091 OA 
BRANCH  26  29
HETATM   29  C   UNL     1     -10.900  13.188  68.398  1.00  0.00    -0.262 C  
BRANCH  29  30
HETATM   30  O   UNL     1     -10.025  14.176  68.923  1.00  0.00    -0.210 OA 
BRANCH  30  31
HETATM   31  C   UNL     1     -10.014  15.413  68.240  1.00  0.00    -0.214 C  
HETATM   32  O   UNL     1      -8.733  15.649  67.680  1.00  0.00    -0.170 OA 
HETATM   33  C   UNL     1      -8.712  16.883  66.977  1.00  0.00    -0.209 C  
HETATM   34  H   UNL     1     -11.809  16.959  70.513  1.00  0.00     0.000 HD 
HETATM   35  C   UNL     1      -8.897  18.063  67.966  1.00  0.00    -0.275 C  
HETATM   36  O   UNL     1      -7.876  18.061  68.934  1.00  0.00    -0.272 OA 
HETATM   37  C   UNL     1     -10.269  17.906  68.655  1.00  0.00    -0.385 C  
HETATM   38  O   UNL     1     -11.606  16.289  69.871  1.00  0.00    -0.277 OA 
HETATM   39  H   UNL     1      -7.990  18.783  69.540  1.00  0.00     0.000 HD 
HETATM   40  O   UNL     1     -10.463  18.878  69.653  1.00  0.00    -0.257 OA 
HETATM   41  C   UNL     1     -10.344  16.506  69.288  1.00  0.00    -0.318 C  
HETATM   42  H   UNL     1     -11.308  18.781  70.076  1.00  0.00     0.000 HD 
BRANCH  33  43
HETATM   43  C   UNL     1      -7.381  16.970  66.214  1.00  0.00    -0.259 C  
HETATM   44  O   UNL     1      -7.395  18.019  65.283  1.00  0.00    -0.357 OA 
HETATM   45  H   UNL     1      -6.573  18.073  64.812  1.00  0.00     0.000 HD 
ENDBRANCH  33  43
ENDBRANCH  30  31
ENDBRANCH  29  30
BRANCH  29  46
HETATM   46  C   UNL     1     -10.245  11.762  68.393  1.00  0.00    -0.206 C  
HETATM   47  O   UNL     1     -10.535  11.069  69.585  1.00  0.00    -0.420 OA 
HETATM   48  H   UNL     1     -10.139  10.206  69.582  1.00  0.00     0.000 HD 
BRANCH  46  49
HETATM   49  C   UNL     1      -8.737  11.736  68.053  1.00  0.00    -0.167 C  
HETATM   50  H   UNL     1      -7.505  10.632  67.012  1.00  0.00     0.000 HD 
HETATM   51  O   UNL     1      -8.432  10.648  67.220  1.00  0.00    -0.125 OA 
ENDBRANCH  46  49
ENDBRANCH  29  46
ENDBRANCH  26  29
ENDBRANCH  23  26
ENDBRANCH  21  23
ENDBRANCH  20  21
ENDBRANCH  19  20
ENDBRANCH  18  19
ENDBRANCH  16  18
ENDBRANCH  13  16
ENDBRANCH  10  13
ENDBRANCH   7  10
ENDBRANCH   4   7
ENDBRANCH   2   4
TORSDOF 17
ENDMDL
MODEL      180
REMARK 921   NORMALIZED FREE ENERGY PREDICTED BY IDOCK:   -4.68 KCAL/MOL
REMARK 922        TOTAL FREE ENERGY PREDICTED BY IDOCK:  -12.78 KCAL/MOL
REMARK 923 INTER-LIGAND FREE ENERGY PREDICTED BY IDOCK:   -9.97 KCAL/MOL
REMARK 924 INTRA-LIGAND FREE ENERGY PREDICTED BY IDOCK:   -2.81 KCAL/MOL
REMARK 927      BINDING AFFINITY PREDICTED BY RF-SCORE:    0.00 PKD
ROOT
HETATM    1  O   UNL     1      -7.737  12.579  68.316  1.00  0.00    -0.126 OA 
HETATM    2  C   UNL     1      -8.717  12.728  67.325  1.00  0.00    -0.200 C  
HETATM    3  H   UNL     1      -7.293  11.746  68.204  1.00  0.00     0.000 HD 
ENDROOT
BRANCH   2   4
HETATM    4  C   UNL     1      -9.434  14.077  67.506  1.00  0.00    -0.221 C  
HETATM    5  O   UNL     1      -8.691  15.088  66.872  1.00  0.00    -0.226 OA 
HETATM    6  H   UNL     1      -9.135  15.920  66.984  1.00  0.00     0.000 HD 
BRANCH   4   7
HETATM    7  C   UNL     1     -10.869  14.042  66.916  1.00  0.00    -0.290 C  
HETATM    8  H   UNL     1     -12.560  14.949  67.230  1.00  0.00     0.000 HD 
HETATM    9  O   UNL     1     -11.682  14.971  67.592  1.00  0.00    -0.342 OA 
BRANCH   7  10
HETATM   10  C   UNL     1     -10.880  14.372  65.399  1.00  0.00    -0.344 C  
HETATM   11  H   UNL     1     -10.795  15.969  64.317  1.00  0.00     0.000 HD 
HETATM   12  O   UNL     1     -10.788  15.768  65.246  1.00  0.00    -0.378 OA 
BRANCH  10  13
HETATM   13  C   UNL     1     -12.154  13.868  64.666  1.00  0.00    -0.431 C  
HETATM   14  H   UNL     1     -13.325  14.501  63.252  1.00  0.00     0.000 HD 
HETATM   15  O   UNL     1     -12.546  14.810  63.701  1.00  0.00    -0.749 OA 
BRANCH  13  16
HETATM   16  C   UNL     1     -11.961  12.542  63.970  1.00  0.00    -0.454 C  
HETATM   17  O   UNL     1     -12.921  11.810  63.784  1.00  0.00    -0.540 OA 
BRANCH  16  18
HETATM   18  O   UNL     1     -10.741  12.144  63.556  1.00  0.00    -0.410 OA 
BRANCH  18  19
HETATM   19 CA   UNL     1      -9.497  10.565  64.905  1.00  0.00    -0.167 Ca 
BRANCH  19  20
HETATM   20  O   UNL     1      -8.253   8.988  66.253  1.00  0.00    -0.111 OA 
BRANCH  20  21
HETATM   21  C   UNL     1      -9.116   8.115  66.802  1.00  0.00    -0.157 C  
HETATM   22  O   UNL     1      -8.962   6.930  66.557  1.00  0.00    -0.139 OA 
BRANCH  21  23
HETATM   23  C   UNL     1     -10.344   8.574  67.555  1.00  0.00    -0.267 C  
HETATM   24  H   UNL     1     -11.682   9.948  67.335  1.00  0.00     0.000 HD 
HETATM   25  O   UNL     1     -10.910   9.660  66.862  1.00  0.00    -0.167 OA 
BRANCH  23  26
HETATM   26  C   UNL     1     -10.081   8.996  69.033  1.00  0.00    -0.195 C  
HETATM   27  H   UNL     1      -9.700  10.639  69.990  1.00  0.00     0.000 HD 
HETATM   28  O   UNL     1      -9.860  10.382  69.089  1.00  0.00    -0.203 OA 
BRANCH  26  29
HETATM   29  C   UNL     1     -11.156   8.591  70.099  1.00  0.00    -0.188 C  
BRANCH  29  30
HETATM   30  O   UNL     1     -11.586   7.281  69.758  1.00  0.00    -0.074 OA 
BRANCH  30  31
HETATM   31  C   UNL     1     -11.164   6.249  70.627  1.00  0.00    -0.337 C  
HETATM   32  O   UNL     1     -10.791   6.791  71.883  1.00  0.00    -0.225 OA 
HETATM   33  C   UNL     1     -10.379   5.763  72.771  1.00  0.00    -0.192 C  
HETATM   34  H   UNL     1      -9.532   4.621  68.290  1.00  0.00     0.000 HD 
HETATM   35  C   UNL     1      -9.072   5.107  72.257  1.00  0.00    -0.131 C  
HETATM   36  O   UNL     1      -8.048   6.066  72.148  1.00  0.00    -0.106 OA 
HETATM   37  C   UNL     1      -9.353   4.486  70.873  1.00  0.00    -0.153 C  
HETATM   38  O   UNL     1     -10.280   5.036  68.700  1.00  0.00    -0.155 OA 
HETATM   39  H   UNL     1      -7.247   5.663  71.833  1.00  0.00     0.000 HD 
HETATM   40  O   UNL     1      -8.183   3.968  70.288  1.00  0.00    -0.060 OA 
HETATM   41  C   UNL     1      -9.942   5.572  69.957  1.00  0.00    -0.218 C  
HETATM   42  H   UNL     1      -8.357   3.586  69.436  1.00  0.00     0.000 HD 
BRANCH  33  43
HETATM   43  C   UNL     1     -10.207   6.383  74.166  1.00  0.00    -0.343 C  
HETATM   44  O   UNL     1      -9.566   7.629  74.095  1.00  0.00    -0.402 OA 
HETATM   45  H   UNL     1      -9.460   8.012  74.957  1.00  0.00     0.000 HD 
ENDBRANCH  33  43
ENDBRANCH  30  31
ENDBRANCH  29  30
BRANCH  29  46
HETATM   46  C   UNL     1     -12.361   9.582  70.270  1.00  0.00     0.228 C  
HETATM   47  O   UNL     1     -12.352  10.566  69.262  1.00  0.00    -0.665 OA 
HETATM   48  H   UNL     1     -13.081  11.165  69.364  1.00  0.00     0.000 HD 
BRANCH  46  49
HETATM   49  C   UNL     1     -12.512  10.193  71.682  1.00  0.00    -0.409 C  
HETATM   50  H   UNL     1     -13.131   9.626  73.447  1.00  0.00     0.000 HD 
HETATM   51  O   UNL     1     -13.038   9.251  72.579  1.00  0.00    -0.418 OA 
ENDBRANCH  46  49
ENDBRANCH  29  46
ENDBRANCH  26  29
ENDBRANCH  23  26
ENDBRANCH  21  23
ENDBRANCH  20  21
ENDBRANCH  19  20
ENDBRANCH  18  19
ENDBRANCH  16  18
ENDBRANCH  13  16
ENDBRANCH  10  13
ENDBRANCH   7  10
ENDBRANCH   4   7
ENDBRANCH   2   4
TORSDOF 17
ENDMDL
MODEL      181
REMARK 921   NORMALIZED FREE ENERGY PREDICTED BY IDOCK:   -4.68 KCAL/MOL
REMARK 922        TOTAL FREE ENERGY PREDICTED BY IDOCK:  -12.76 KCAL/MOL
REMARK 923 INTER-LIGAND FREE ENERGY PREDICTED BY IDOCK:  -11.05 KCAL/MOL
REMARK 924 INTRA-LIGAND FREE ENERGY PREDICTED BY IDOCK:   -1.71 KCAL/MOL
REMARK 927      BINDING AFFINITY PREDICTED BY RF-SCORE:    0.00 PKD
ROOT
HETATM    1  O   UNL     1     -11.133  15.693  71.762  1.00  0.00    -0.302 OA 
HETATM    2  C   UNL     1     -11.357  15.980  70.409  1.00  0.00    -0.391 C  
HETATM    3  H   UNL     1     -11.943  15.791  72.248  1.00  0.00     0.000 HD 
ENDROOT
BRANCH   2   4
HETATM    4  C   UNL     1     -10.045  15.821  69.621  1.00  0.00    -0.289 C  
HETATM    5  O   UNL     1      -9.790  14.454  69.416  1.00  0.00    -0.416 OA 
HETATM    6  H   UNL     1      -8.979  14.356  68.930  1.00  0.00     0.000 HD 
BRANCH   4   7
HETATM    7  C   UNL     1     -10.111  16.546  68.251  1.00  0.00    -0.259 C  
HETATM    8  H   UNL     1     -11.489  17.301  67.105  1.00  0.00     0.000 HD 
HETATM    9  O   UNL     1     -11.449  16.857  67.944  1.00  0.00    -0.033 OA 
BRANCH   7  10
HETATM   10  C   UNL     1      -9.274  17.852  68.245  1.00  0.00    -0.282 C  
HETATM   11  H   UNL     1      -9.584  19.711  68.670  1.00  0.00     0.000 HD 
HETATM   12  O   UNL     1     -10.097  18.911  68.673  1.00  0.00    -0.388 OA 
BRANCH  10  13
HETATM   13  C   UNL     1      -8.688  18.205  66.850  1.00  0.00    -0.259 C  
HETATM   14  H   UNL     1      -8.122  17.243  65.260  1.00  0.00     0.000 HD 
HETATM   15  O   UNL     1      -8.481  17.027  66.113  1.00  0.00    -0.394 OA 
BRANCH  13  16
HETATM   16  C   UNL     1      -9.579  19.112  66.035  1.00  0.00    -0.170 C  
HETATM   17  O   UNL     1      -9.364  20.314  66.016  1.00  0.00    -0.292 OA 
BRANCH  16  18
HETATM   18  O   UNL     1     -10.621  18.619  65.335  1.00  0.00    -0.572 OA 
BRANCH  18  19
HETATM   19 CA   UNL     1     -11.327  16.336  65.722  1.00  0.00    -0.278 Ca 
BRANCH  19  20
HETATM   20  O   UNL     1     -12.033  14.055  66.110  1.00  0.00    -0.380 OA 
BRANCH  20  21
HETATM   21  C   UNL     1     -11.366  13.247  65.267  1.00  0.00    -0.295 C  
HETATM   22  O   UNL     1     -11.563  13.382  64.072  1.00  0.00    -0.393 OA 
BRANCH  21  23
HETATM   23  C   UNL     1     -10.530  12.090  65.767  1.00  0.00    -0.254 C  
HETATM   24  H   UNL     1     -10.352  10.215  65.345  1.00  0.00     0.000 HD 
HETATM   25  O   UNL     1     -10.877  10.942  65.032  1.00  0.00    -0.208 OA 
BRANCH  23  26
HETATM   26  C   UNL     1     -10.683  11.786  67.288  1.00  0.00    -0.237 C  
HETATM   27  H   UNL     1     -12.092  11.185  68.477  1.00  0.00     0.000 HD 
HETATM   28  O   UNL     1     -11.999  11.371  67.550  1.00  0.00    -0.626 OA 
BRANCH  26  29
HETATM   29  C   UNL     1      -9.674  10.767  67.923  1.00  0.00    -0.167 C  
BRANCH  29  30
HETATM   30  O   UNL     1      -9.972  10.720  69.311  1.00  0.00    -0.214 OA 
BRANCH  30  31
HETATM   31  C   UNL     1     -10.847   9.688  69.718  1.00  0.00    -0.250 C  
HETATM   32  O   UNL     1     -11.629  10.117  70.820  1.00  0.00    -0.304 OA 
HETATM   33  C   UNL     1     -12.525   9.095  71.229  1.00  0.00    -0.300 C  
HETATM   34  H   UNL     1      -8.620   7.310  69.314  1.00  0.00     0.000 HD 
HETATM   35  C   UNL     1     -11.733   7.888  71.796  1.00  0.00    -0.287 C  
HETATM   36  O   UNL     1     -10.946   8.285  72.893  1.00  0.00    -0.324 OA 
HETATM   37  C   UNL     1     -10.825   7.336  70.677  1.00  0.00    -0.242 C  
HETATM   38  O   UNL     1      -9.163   8.047  69.060  1.00  0.00    -0.148 OA 
HETATM   39  H   UNL     1     -10.461   7.546  73.240  1.00  0.00     0.000 HD 
HETATM   40  O   UNL     1      -9.988   6.308  71.146  1.00  0.00    -0.179 OA 
HETATM   41  C   UNL     1      -9.961   8.486  70.132  1.00  0.00    -0.181 C  
HETATM   42  H   UNL     1      -9.430   5.968  70.457  1.00  0.00     0.000 HD 
BRANCH  33  43
HETATM   43  C   UNL     1     -13.487   9.695  72.266  1.00  0.00    -0.400 C  
HETATM   44  O   UNL     1     -14.120   8.692  73.015  1.00  0.00    -0.968 OA 
HETATM   45  H   UNL     1     -14.714   9.063  73.656  1.00  0.00     0.000 HD 
ENDBRANCH  33  43
ENDBRANCH  30  31
ENDBRANCH  29  30
BRANCH  29  46
HETATM   46  C   UNL     1      -8.154  11.049  67.655  1.00  0.00    -0.116 C  
HETATM   47  O   UNL     1      -7.575  10.014  66.895  1.00  0.00    -0.095 OA 
HETATM   48  H   UNL     1      -6.655  10.185  66.733  1.00  0.00     0.000 HD 
BRANCH  46  49
HETATM   49  C   UNL     1      -7.320  11.388  68.912  1.00  0.00    -0.114 C  
HETATM   50  H   UNL     1      -5.581  12.179  69.328  1.00  0.00     0.000 HD 
HETATM   51  O   UNL     1      -6.094  11.971  68.555  1.00  0.00    -0.049 OA 
ENDBRANCH  46  49
ENDBRANCH  29  46
ENDBRANCH  26  29
ENDBRANCH  23  26
ENDBRANCH  21  23
ENDBRANCH  20  21
ENDBRANCH  19  20
ENDBRANCH  18  19
ENDBRANCH  16  18
ENDBRANCH  13  16
ENDBRANCH  10  13
ENDBRANCH   7  10
ENDBRANCH   4   7
ENDBRANCH   2   4
TORSDOF 17
ENDMDL
MODEL      182
REMARK 921   NORMALIZED FREE ENERGY PREDICTED BY IDOCK:   -4.67 KCAL/MOL
REMARK 922        TOTAL FREE ENERGY PREDICTED BY IDOCK:  -12.75 KCAL/MOL
REMARK 923 INTER-LIGAND FREE ENERGY PREDICTED BY IDOCK:   -9.30 KCAL/MOL
REMARK 924 INTRA-LIGAND FREE ENERGY PREDICTED BY IDOCK:   -3.44 KCAL/MOL
REMARK 927      BINDING AFFINITY PREDICTED BY RF-SCORE:    0.00 PKD
ROOT
HETATM    1  O   UNL     1      -9.299  12.151  63.241  1.00  0.00    -0.668 OA 
HETATM    2  C   UNL     1     -10.511  11.447  63.274  1.00  0.00    -0.334 C  
HETATM    3  H   UNL     1      -8.573  11.538  63.252  1.00  0.00     0.000 HD 
ENDROOT
BRANCH   2   4
HETATM    4  C   UNL     1     -11.686  12.440  63.257  1.00  0.00    -0.382 C  
HETATM    5  O   UNL     1     -12.897  11.725  63.249  1.00  0.00    -0.778 OA 
HETATM    6  H   UNL     1     -13.623  12.338  63.238  1.00  0.00     0.000 HD 
BRANCH   4   7
HETATM    7  C   UNL     1     -11.652  13.385  64.487  1.00  0.00    -0.371 C  
HETATM    8  H   UNL     1     -12.877  14.600  65.383  1.00  0.00     0.000 HD 
HETATM    9  O   UNL     1     -12.898  14.021  64.630  1.00  0.00    -0.661 OA 
BRANCH   7  10
HETATM   10  C   UNL     1     -11.321  12.621  65.797  1.00  0.00    -0.333 C  
HETATM   11  H   UNL     1     -12.230  12.240  67.458  1.00  0.00     0.000 HD 
HETATM   12  O   UNL     1     -12.432  12.708  66.656  1.00  0.00    -0.368 OA 
BRANCH  10  13
HETATM   13  C   UNL     1     -10.070  13.173  66.535  1.00  0.00    -0.280 C  
HETATM   14  H   UNL     1      -9.624  14.725  67.614  1.00  0.00     0.000 HD 
HETATM   15  O   UNL     1     -10.389  14.388  67.162  1.00  0.00    -0.259 OA 
BRANCH  13  16
HETATM   16  C   UNL     1      -9.534  12.233  67.590  1.00  0.00    -0.188 C  
HETATM   17  O   UNL     1      -9.463  12.604  68.751  1.00  0.00    -0.047 OA 
BRANCH  16  18
HETATM   18  O   UNL     1      -9.119  10.991  67.270  1.00  0.00    -0.138 OA 
BRANCH  18  19
HETATM   19 CA   UNL     1     -10.192   9.087  68.308  1.00  0.00    -0.158 Ca 
BRANCH  19  20
HETATM   20  O   UNL     1     -11.265   7.182  69.344  1.00  0.00    -0.158 OA 
BRANCH  20  21
HETATM   21  C   UNL     1     -11.597   7.506  70.606  1.00  0.00    -0.248 C  
HETATM   22  O   UNL     1     -12.726   7.246  70.984  1.00  0.00    -0.322 OA 
BRANCH  21  23
HETATM   23  C   UNL     1     -10.678   8.324  71.486  1.00  0.00    -0.235 C  
HETATM   24  H   UNL     1      -9.961  10.116  71.468  1.00  0.00     0.000 HD 
HETATM   25  O   UNL     1     -10.537   9.602  70.915  1.00  0.00    -0.304 OA 
BRANCH  23  26
HETATM   26  C   UNL     1      -9.264   7.705  71.702  1.00  0.00    -0.134 C  
HETATM   27  H   UNL     1      -8.536   6.020  72.326  1.00  0.00     0.000 HD 
HETATM   28  O   UNL     1      -9.398   6.397  72.194  1.00  0.00    -0.151 OA 
BRANCH  26  29
HETATM   29  C   UNL     1      -8.282   7.710  70.480  1.00  0.00    -0.121 C  
BRANCH  29  30
HETATM   30  O   UNL     1      -7.936   6.354  70.238  1.00  0.00    -0.108 OA 
BRANCH  30  31
HETATM   31  C   UNL     1      -7.923   5.954  68.883  1.00  0.00    -0.102 C  
HETATM   32  O   UNL     1      -8.510   6.959  68.073  1.00  0.00    -0.123 OA 
HETATM   33  C   UNL     1      -8.490   6.577  66.706  1.00  0.00    -0.113 C  
HETATM   34  H   UNL     1      -8.709   2.836  69.544  1.00  0.00     0.000 HD 
HETATM   35  C   UNL     1      -9.410   5.349  66.482  1.00  0.00    -0.145 C  
HETATM   36  O   UNL     1     -10.731   5.646  66.863  1.00  0.00    -0.303 OA 
HETATM   37  C   UNL     1      -8.872   4.180  67.333  1.00  0.00    -0.116 C  
HETATM   38  O   UNL     1      -8.201   3.636  69.599  1.00  0.00    -0.053 OA 
HETATM   39  H   UNL     1     -11.294   4.893  66.726  1.00  0.00     0.000 HD 
HETATM   40  O   UNL     1      -9.721   3.060  67.272  1.00  0.00    -0.380 OA 
HETATM   41  C   UNL     1      -8.753   4.649  68.793  1.00  0.00    -0.093 C  
HETATM   42  H   UNL     1      -9.389   2.340  67.796  1.00  0.00     0.000 HD 
BRANCH  33  43
HETATM   43  C   UNL     1      -8.928   7.790  65.869  1.00  0.00    -0.113 C  
HETATM   44  O   UNL     1     -10.194   8.249  66.260  1.00  0.00    -0.460 OA 
HETATM   45  H   UNL     1     -10.464   8.998  65.744  1.00  0.00     0.000 HD 
ENDBRANCH  33  43
ENDBRANCH  30  31
ENDBRANCH  29  30
BRANCH  29  46
HETATM   46  C   UNL     1      -7.015   8.626  70.621  1.00  0.00    -0.047 C  
HETATM   47  O   UNL     1      -6.868   9.085  71.944  1.00  0.00    -0.256 OA 
HETATM   48  H   UNL     1      -6.102   9.639  72.029  1.00  0.00     0.000 HD 
BRANCH  46  49
HETATM   49  C   UNL     1      -6.920   9.774  69.589  1.00  0.00    -0.078 C  
HETATM   50  H   UNL     1      -6.920  11.729  69.593  1.00  0.00     0.000 HD 
HETATM   51  O   UNL     1      -6.978  11.023  70.227  1.00  0.00    -0.177 OA 
ENDBRANCH  46  49
ENDBRANCH  29  46
ENDBRANCH  26  29
ENDBRANCH  23  26
ENDBRANCH  21  23
ENDBRANCH  20  21
ENDBRANCH  19  20
ENDBRANCH  18  19
ENDBRANCH  16  18
ENDBRANCH  13  16
ENDBRANCH  10  13
ENDBRANCH   7  10
ENDBRANCH   4   7
ENDBRANCH   2   4
TORSDOF 17
ENDMDL
MODEL      183
REMARK 921   NORMALIZED FREE ENERGY PREDICTED BY IDOCK:   -4.65 KCAL/MOL
REMARK 922        TOTAL FREE ENERGY PREDICTED BY IDOCK:  -12.72 KCAL/MOL
REMARK 923 INTER-LIGAND FREE ENERGY PREDICTED BY IDOCK:  -10.15 KCAL/MOL
REMARK 924 INTRA-LIGAND FREE ENERGY PREDICTED BY IDOCK:   -2.57 KCAL/MOL
REMARK 927      BINDING AFFINITY PREDICTED BY RF-SCORE:    0.00 PKD
ROOT
HETATM    1  O   UNL     1      -7.801  12.370  67.626  1.00  0.00    -0.139 OA 
HETATM    2  C   UNL     1      -8.903  12.766  66.856  1.00  0.00    -0.194 C  
HETATM    3  H   UNL     1      -7.607  11.455  67.459  1.00  0.00     0.000 HD 
ENDROOT
BRANCH   2   4
HETATM    4  C   UNL     1      -9.218  14.247  67.126  1.00  0.00    -0.223 C  
HETATM    5  O   UNL     1      -8.306  15.052  66.420  1.00  0.00    -0.400 OA 
HETATM    6  H   UNL     1      -8.501  15.967  66.587  1.00  0.00     0.000 HD 
BRANCH   4   7
HETATM    7  C   UNL     1     -10.665  14.610  66.699  1.00  0.00    -0.305 C  
HETATM    8  H   UNL     1     -11.910  16.075  66.988  1.00  0.00     0.000 HD 
HETATM    9  O   UNL     1     -11.023  15.854  67.249  1.00  0.00    -0.310 OA 
BRANCH   7  10
HETATM   10  C   UNL     1     -10.815  14.678  65.156  1.00  0.00    -0.401 C  
HETATM   11  H   UNL     1     -10.689  16.047  63.800  1.00  0.00     0.000 HD 
HETATM   12  O   UNL     1     -10.597  16.006  64.745  1.00  0.00    -0.600 OA 
BRANCH  10  13
HETATM   13  C   UNL     1     -12.209  14.217  64.649  1.00  0.00    -0.445 C  
HETATM   14  H   UNL     1     -13.631  14.942  63.542  1.00  0.00     0.000 HD 
HETATM   15  O   UNL     1     -12.779  15.224  63.852  1.00  0.00    -0.732 OA 
BRANCH  13  16
HETATM   16  C   UNL     1     -12.161  12.949  63.829  1.00  0.00    -0.508 C  
HETATM   17  O   UNL     1     -13.123  12.197  63.820  1.00  0.00    -0.774 OA 
BRANCH  16  18
HETATM   18  O   UNL     1     -11.066  12.624  63.113  1.00  0.00    -0.325 OA 
BRANCH  18  19
HETATM   19 CA   UNL     1      -9.372  11.220  64.120  1.00  0.00    -0.193 Ca 
BRANCH  19  20
HETATM   20  O   UNL     1      -7.679   9.815  65.128  1.00  0.00    -0.113 OA 
BRANCH  20  21
HETATM   21  C   UNL     1      -8.194   8.589  65.322  1.00  0.00    -0.149 C  
HETATM   22  O   UNL     1      -8.069   7.769  64.428  1.00  0.00    -0.138 OA 
BRANCH  21  23
HETATM   23  C   UNL     1      -9.056   8.268  66.522  1.00  0.00    -0.178 C  
HETATM   24  H   UNL     1     -10.939   8.325  66.942  1.00  0.00     0.000 HD 
HETATM   25  O   UNL     1     -10.398   8.527  66.188  1.00  0.00    -0.078 OA 
BRANCH  23  26
HETATM   26  C   UNL     1      -8.692   9.059  67.815  1.00  0.00    -0.125 C  
HETATM   27  H   UNL     1      -9.510  10.434  68.912  1.00  0.00     0.000 HD 
HETATM   28  O   UNL     1      -9.732   9.951  68.124  1.00  0.00    -0.142 OA 
BRANCH  26  29
HETATM   29  C   UNL     1      -8.320   8.225  69.089  1.00  0.00    -0.123 C  
BRANCH  29  30
HETATM   30  O   UNL     1      -9.525   7.627  69.544  1.00  0.00    -0.153 OA 
BRANCH  30  31
HETATM   31  C   UNL     1      -9.634   7.448  70.942  1.00  0.00    -0.166 C  
HETATM   32  O   UNL     1      -9.598   6.066  71.260  1.00  0.00    -0.166 OA 
HETATM   33  C   UNL     1      -9.690   5.872  72.663  1.00  0.00    -0.153 C  
HETATM   34  H   UNL     1     -11.897   9.797  71.312  1.00  0.00     0.000 HD 
HETATM   35  C   UNL     1     -11.083   6.325  73.173  1.00  0.00    -0.171 C  
HETATM   36  O   UNL     1     -12.104   5.598  72.534  1.00  0.00    -0.410 OA 
HETATM   37  C   UNL     1     -11.245   7.829  72.867  1.00  0.00    -0.376 C  
HETATM   38  O   UNL     1     -11.063   9.424  71.050  1.00  0.00    -0.284 OA 
HETATM   39  H   UNL     1     -12.956   5.876  72.847  1.00  0.00     0.000 HD 
HETATM   40  O   UNL     1     -12.531   8.291  73.199  1.00  0.00    -0.648 OA 
HETATM   41  C   UNL     1     -10.994   8.055  71.367  1.00  0.00    -0.234 C  
HETATM   42  H   UNL     1     -12.631   9.216  73.011  1.00  0.00     0.000 HD 
BRANCH  33  43
HETATM   43  C   UNL     1      -9.421   4.387  72.954  1.00  0.00    -0.130 C  
HETATM   44  O   UNL     1      -8.910   3.731  71.825  1.00  0.00    -0.096 OA 
HETATM   45  H   UNL     1      -8.743   2.814  72.005  1.00  0.00     0.000 HD 
ENDBRANCH  33  43
ENDBRANCH  30  31
ENDBRANCH  29  30
BRANCH  29  46
HETATM   46  C   UNL     1      -7.582   9.008  70.231  1.00  0.00    -0.087 C  
HETATM   47  O   UNL     1      -8.075  10.323  70.341  1.00  0.00    -0.410 OA 
HETATM   48  H   UNL     1      -7.629  10.797  71.032  1.00  0.00     0.000 HD 
BRANCH  46  49
HETATM   49  C   UNL     1      -6.038   8.966  70.162  1.00  0.00    -0.037 C  
HETATM   50  H   UNL     1      -4.601   9.935  69.259  1.00  0.00     0.000 HD 
HETATM   51  O   UNL     1      -5.550   9.961  69.302  1.00  0.00    -0.035 OA 
ENDBRANCH  46  49
ENDBRANCH  29  46
ENDBRANCH  26  29
ENDBRANCH  23  26
ENDBRANCH  21  23
ENDBRANCH  20  21
ENDBRANCH  19  20
ENDBRANCH  18  19
ENDBRANCH  16  18
ENDBRANCH  13  16
ENDBRANCH  10  13
ENDBRANCH   7  10
ENDBRANCH   4   7
ENDBRANCH   2   4
TORSDOF 17
ENDMDL
MODEL      184
REMARK 921   NORMALIZED FREE ENERGY PREDICTED BY IDOCK:   -4.65 KCAL/MOL
REMARK 922        TOTAL FREE ENERGY PREDICTED BY IDOCK:  -12.71 KCAL/MOL
REMARK 923 INTER-LIGAND FREE ENERGY PREDICTED BY IDOCK:  -10.18 KCAL/MOL
REMARK 924 INTRA-LIGAND FREE ENERGY PREDICTED BY IDOCK:   -2.53 KCAL/MOL
REMARK 927      BINDING AFFINITY PREDICTED BY RF-SCORE:    0.00 PKD
ROOT
HETATM    1  O   UNL     1      -6.923   4.889  72.331  1.00  0.00    -0.068 OA 
HETATM    2  C   UNL     1      -8.056   4.181  72.754  1.00  0.00    -0.092 C  
HETATM    3  H   UNL     1      -6.142   4.495  72.703  1.00  0.00     0.000 HD 
ENDROOT
BRANCH   2   4
HETATM    4  C   UNL     1      -9.319   4.819  72.152  1.00  0.00    -0.136 C  
HETATM    5  O   UNL     1     -10.202   3.805  71.742  1.00  0.00    -0.141 OA 
HETATM    6  H   UNL     1     -10.982   4.199  71.369  1.00  0.00     0.000 HD 
BRANCH   4   7
HETATM    7  C   UNL     1     -10.034   5.744  73.173  1.00  0.00    -0.176 C  
HETATM    8  H   UNL     1      -9.566   7.273  74.279  1.00  0.00     0.000 HD 
HETATM    9  O   UNL     1      -9.128   6.707  73.654  1.00  0.00    -0.127 OA 
BRANCH   7  10
HETATM   10  C   UNL     1     -11.255   6.467  72.545  1.00  0.00    -0.272 C  
HETATM   11  H   UNL     1     -13.066   5.992  72.071  1.00  0.00     0.000 HD 
HETATM   12  O   UNL     1     -12.318   5.549  72.456  1.00  0.00    -0.069 OA 
BRANCH  10  13
HETATM   13  C   UNL     1     -10.971   7.048  71.133  1.00  0.00    -0.247 C  
HETATM   14  H   UNL     1     -11.666   6.816  69.334  1.00  0.00     0.000 HD 
HETATM   15  O   UNL     1     -11.839   6.460  70.198  1.00  0.00    -0.409 OA 
BRANCH  13  16
HETATM   16  C   UNL     1     -11.148   8.546  71.053  1.00  0.00    -0.260 C  
HETATM   17  O   UNL     1     -11.130   9.213  72.076  1.00  0.00    -0.357 OA 
BRANCH  16  18
HETATM   18  O   UNL     1     -11.339   9.163  69.870  1.00  0.00    -0.166 OA 
BRANCH  18  19
HETATM   19 CA   UNL     1      -9.467  10.261  68.798  1.00  0.00    -0.135 Ca 
BRANCH  19  20
HETATM   20  O   UNL     1      -7.596  11.359  67.727  1.00  0.00    -0.098 OA 
BRANCH  20  21
HETATM   21  C   UNL     1      -8.033  12.492  67.150  1.00  0.00    -0.140 C  
HETATM   22  O   UNL     1      -7.266  13.439  67.099  1.00  0.00    -0.075 OA 
BRANCH  21  23
HETATM   23  C   UNL     1      -9.475  12.669  66.731  1.00  0.00    -0.237 C  
HETATM   24  H   UNL     1     -10.967  11.506  66.344  1.00  0.00     0.000 HD 
HETATM   25  O   UNL     1     -10.061  11.396  66.606  1.00  0.00    -0.203 OA 
BRANCH  23  26
HETATM   26  C   UNL     1      -9.675  13.453  65.399  1.00  0.00    -0.007 C  
HETATM   27  H   UNL     1     -10.302  13.062  63.606  1.00  0.00     0.000 HD 
HETATM   28  O   UNL     1     -10.181  12.584  64.418  1.00  0.00    -0.330 OA 
BRANCH  26  29
HETATM   29  C   UNL     1     -10.550  14.752  65.453  1.00  0.00    -0.378 C  
BRANCH  29  30
HETATM   30  O   UNL     1     -10.915  14.935  66.813  1.00  0.00    -0.314 OA 
BRANCH  30  31
HETATM   31  C   UNL     1     -10.643  16.210  67.358  1.00  0.00    -0.311 C  
HETATM   32  O   UNL     1     -10.624  17.185  66.329  1.00  0.00    -0.285 OA 
HETATM   33  C   UNL     1     -10.367  18.475  66.864  1.00  0.00    -0.397 C  
HETATM   34  H   UNL     1      -8.385  15.097  69.464  1.00  0.00     0.000 HD 
HETATM   35  C   UNL     1      -8.931  18.534  67.447  1.00  0.00    -0.272 C  
HETATM   36  O   UNL     1      -7.982  18.246  66.449  1.00  0.00    -0.254 OA 
HETATM   37  C   UNL     1      -8.826  17.494  68.582  1.00  0.00    -0.255 C  
HETATM   38  O   UNL     1      -9.237  15.150  69.050  1.00  0.00    -0.201 OA 
HETATM   39  H   UNL     1      -7.102  18.282  66.806  1.00  0.00     0.000 HD 
HETATM   40  O   UNL     1      -7.516  17.407  69.086  1.00  0.00    -0.222 OA 
HETATM   41  C   UNL     1      -9.251  16.122  68.033  1.00  0.00    -0.195 C  
HETATM   42  H   UNL     1      -7.451  16.767  69.785  1.00  0.00     0.000 HD 
BRANCH  33  43
HETATM   43  C   UNL     1     -10.581  19.504  65.744  1.00  0.00    -0.427 C  
HETATM   44  O   UNL     1      -9.923  20.710  66.027  1.00  0.00    -0.548 OA 
HETATM   45  H   UNL     1     -10.055  21.346  65.334  1.00  0.00     0.000 HD 
ENDBRANCH  33  43
ENDBRANCH  30  31
ENDBRANCH  29  30
BRANCH  29  46
HETATM   46  C   UNL     1     -11.796  14.781  64.499  1.00  0.00    -0.419 C  
HETATM   47  O   UNL     1     -11.968  16.058  63.931  1.00  0.00    -1.267 OA 
HETATM   48  H   UNL     1     -12.722  16.075  63.354  1.00  0.00     0.000 HD 
BRANCH  46  49
HETATM   49  C   UNL     1     -13.105  14.233  65.115  1.00  0.00     0.056 C  
HETATM   50  H   UNL     1     -13.897  12.494  65.523  1.00  0.00     0.000 HD 
HETATM   51  O   UNL     1     -13.093  12.830  65.144  1.00  0.00    -0.750 OA 
ENDBRANCH  46  49
ENDBRANCH  29  46
ENDBRANCH  26  29
ENDBRANCH  23  26
ENDBRANCH  21  23
ENDBRANCH  20  21
ENDBRANCH  19  20
ENDBRANCH  18  19
ENDBRANCH  16  18
ENDBRANCH  13  16
ENDBRANCH  10  13
ENDBRANCH   7  10
ENDBRANCH   4   7
ENDBRANCH   2   4
TORSDOF 17
ENDMDL
MODEL      185
REMARK 921   NORMALIZED FREE ENERGY PREDICTED BY IDOCK:   -4.62 KCAL/MOL
REMARK 922        TOTAL FREE ENERGY PREDICTED BY IDOCK:  -12.65 KCAL/MOL
REMARK 923 INTER-LIGAND FREE ENERGY PREDICTED BY IDOCK:   -9.70 KCAL/MOL
REMARK 924 INTRA-LIGAND FREE ENERGY PREDICTED BY IDOCK:   -2.95 KCAL/MOL
REMARK 927      BINDING AFFINITY PREDICTED BY RF-SCORE:    0.00 PKD
ROOT
HETATM    1  O   UNL     1      -6.345  19.418  67.092  1.00  0.00    -0.187 OA 
HETATM    2  C   UNL     1      -6.832  18.718  65.979  1.00  0.00    -0.254 C  
HETATM    3  H   UNL     1      -6.022  20.269  66.818  1.00  0.00     0.000 HD 
ENDROOT
BRANCH   2   4
HETATM    4  C   UNL     1      -7.354  17.341  66.422  1.00  0.00    -0.301 C  
HETATM    5  O   UNL     1      -6.279  16.439  66.498  1.00  0.00    -0.261 OA 
HETATM    6  H   UNL     1      -6.602  15.588  66.771  1.00  0.00     0.000 HD 
BRANCH   4   7
HETATM    7  C   UNL     1      -8.064  17.417  67.799  1.00  0.00    -0.214 C  
HETATM    8  H   UNL     1      -9.262  18.641  68.718  1.00  0.00     0.000 HD 
HETATM    9  O   UNL     1      -8.828  18.595  67.874  1.00  0.00    -0.278 OA 
BRANCH   7  10
HETATM   10  C   UNL     1      -8.992  16.197  68.041  1.00  0.00    -0.185 C  
HETATM   11  H   UNL     1      -9.001  14.329  67.548  1.00  0.00     0.000 HD 
HETATM   12  O   UNL     1      -8.432  15.076  67.400  1.00  0.00    -0.159 OA 
BRANCH  10  13
HETATM   13  C   UNL     1     -10.439  16.406  67.516  1.00  0.00    -0.304 C  
HETATM   14  H   UNL     1     -11.360  16.309  65.809  1.00  0.00     0.000 HD 
HETATM   15  O   UNL     1     -10.475  16.181  66.130  1.00  0.00    -0.314 OA 
BRANCH  13  16
HETATM   16  C   UNL     1     -11.451  15.489  68.161  1.00  0.00    -0.326 C  
HETATM   17  O   UNL     1     -11.882  15.751  69.274  1.00  0.00    -0.365 OA 
BRANCH  16  18
HETATM   18  O   UNL     1     -11.881  14.375  67.535  1.00  0.00    -0.373 OA 
BRANCH  18  19
HETATM   19 CA   UNL     1     -10.645  12.313  67.817  1.00  0.00    -0.195 Ca 
BRANCH  19  20
HETATM   20  O   UNL     1      -9.410  10.252  68.098  1.00  0.00    -0.137 OA 
BRANCH  20  21
HETATM   21  C   UNL     1      -8.229  10.531  68.676  1.00  0.00    -0.130 C  
HETATM   22  O   UNL     1      -7.549  11.416  68.185  1.00  0.00    -0.102 OA 
BRANCH  21  23
HETATM   23  C   UNL     1      -7.664   9.676  69.788  1.00  0.00    -0.133 C  
HETATM   24  H   UNL     1      -5.913   9.067  70.325  1.00  0.00     0.000 HD 
HETATM   25  O   UNL     1      -6.268   9.604  69.627  1.00  0.00    -0.042 OA 
BRANCH  23  26
HETATM   26  C   UNL     1      -8.243   8.230  69.854  1.00  0.00    -0.123 C  
HETATM   27  H   UNL     1      -7.585   6.427  69.575  1.00  0.00     0.000 HD 
HETATM   28  O   UNL     1      -7.232   7.308  69.534  1.00  0.00    -0.075 OA 
BRANCH  26  29
HETATM   29  C   UNL     1      -8.946   7.797  71.187  1.00  0.00    -0.138 C  
BRANCH  29  30
HETATM   30  O   UNL     1      -9.618   8.947  71.678  1.00  0.00    -0.275 OA 
BRANCH  30  31
HETATM   31  C   UNL     1     -10.958   9.105  71.256  1.00  0.00    -0.330 C  
HETATM   32  O   UNL     1     -11.177  10.435  70.816  1.00  0.00    -0.326 OA 
HETATM   33  C   UNL     1     -12.516  10.603  70.374  1.00  0.00    -0.338 C  
HETATM   34  H   UNL     1     -12.195   7.296  73.700  1.00  0.00     0.000 HD 
HETATM   35  C   UNL     1     -13.494  10.449  71.567  1.00  0.00    -0.210 C  
HETATM   36  O   UNL     1     -13.210  11.401  72.564  1.00  0.00    -0.458 OA 
HETATM   37  C   UNL     1     -13.336   9.027  72.144  1.00  0.00    -0.455 C  
HETATM   38  O   UNL     1     -11.646   7.485  72.949  1.00  0.00    -0.290 OA 
HETATM   39  H   UNL     1     -13.810  11.306  73.295  1.00  0.00     0.000 HD 
HETATM   40  O   UNL     1     -14.111   8.847  73.304  1.00  0.00    -1.211 OA 
HETATM   41  C   UNL     1     -11.853   8.796  72.482  1.00  0.00    -0.202 C  
HETATM   42  H   UNL     1     -14.013   7.972  73.659  1.00  0.00     0.000 HD 
BRANCH  33  43
HETATM   43  C   UNL     1     -12.625  11.983  69.709  1.00  0.00     0.254 C  
HETATM   44  O   UNL     1     -11.668  12.873  70.220  1.00  0.00    -0.516 OA 
HETATM   45  H   UNL     1     -11.735  13.725  69.808  1.00  0.00     0.000 HD 
ENDBRANCH  33  43
ENDBRANCH  30  31
ENDBRANCH  29  30
BRANCH  29  46
HETATM   46  C   UNL     1      -8.018   7.147  72.273  1.00  0.00    -0.097 C  
HETATM   47  O   UNL     1      -8.771   6.397  73.198  1.00  0.00    -0.123 OA 
HETATM   48  H   UNL     1      -8.210   6.004  73.854  1.00  0.00     0.000 HD 
BRANCH  46  49
HETATM   49  C   UNL     1      -7.042   8.124  72.970  1.00  0.00    -0.110 C  
HETATM   50  H   UNL     1      -7.066   9.363  74.482  1.00  0.00     0.000 HD 
HETATM   51  O   UNL     1      -7.665   8.762  74.054  1.00  0.00    -0.418 OA 
ENDBRANCH  46  49
ENDBRANCH  29  46
ENDBRANCH  26  29
ENDBRANCH  23  26
ENDBRANCH  21  23
ENDBRANCH  20  21
ENDBRANCH  19  20
ENDBRANCH  18  19
ENDBRANCH  16  18
ENDBRANCH  13  16
ENDBRANCH  10  13
ENDBRANCH   7  10
ENDBRANCH   4   7
ENDBRANCH   2   4
TORSDOF 17
ENDMDL
MODEL      186
REMARK 921   NORMALIZED FREE ENERGY PREDICTED BY IDOCK:   -4.62 KCAL/MOL
REMARK 922        TOTAL FREE ENERGY PREDICTED BY IDOCK:  -12.65 KCAL/MOL
REMARK 923 INTER-LIGAND FREE ENERGY PREDICTED BY IDOCK:   -9.54 KCAL/MOL
REMARK 924 INTRA-LIGAND FREE ENERGY PREDICTED BY IDOCK:   -3.10 KCAL/MOL
REMARK 927      BINDING AFFINITY PREDICTED BY RF-SCORE:    0.00 PKD
ROOT
HETATM    1  O   UNL     1     -11.695   6.697  69.143  1.00  0.00    -0.629 OA 
HETATM    2  C   UNL     1     -10.827   5.633  68.861  1.00  0.00    -0.159 C  
HETATM    3  H   UNL     1     -11.991   7.092  68.331  1.00  0.00     0.000 HD 
ENDROOT
BRANCH   2   4
HETATM    4  C   UNL     1     -10.347   4.994  70.175  1.00  0.00    -0.236 C  
HETATM    5  O   UNL     1      -9.419   3.979  69.886  1.00  0.00    -0.160 OA 
HETATM    6  H   UNL     1      -9.122   3.584  70.698  1.00  0.00     0.000 HD 
BRANCH   4   7
HETATM    7  C   UNL     1      -9.692   6.042  71.113  1.00  0.00    -0.177 C  
HETATM    8  H   UNL     1     -10.278   7.289  72.485  1.00  0.00     0.000 HD 
HETATM    9  O   UNL     1     -10.680   6.647  71.911  1.00  0.00    -0.217 OA 
BRANCH   7  10
HETATM   10  C   UNL     1      -8.617   5.406  72.034  1.00  0.00    -0.131 C  
HETATM   11  H   UNL     1      -8.591   4.083  73.441  1.00  0.00     0.000 HD 
HETATM   12  O   UNL     1      -9.249   4.473  72.877  1.00  0.00    -0.122 OA 
BRANCH  10  13
HETATM   13  C   UNL     1      -7.859   6.442  72.908  1.00  0.00    -0.103 C  
HETATM   14  H   UNL     1      -6.392   6.427  74.181  1.00  0.00     0.000 HD 
HETATM   15  O   UNL     1      -6.855   5.793  73.646  1.00  0.00    -0.078 OA 
BRANCH  13  16
HETATM   16  C   UNL     1      -7.207   7.542  72.105  1.00  0.00    -0.068 C  
HETATM   17  O   UNL     1      -6.390   7.259  71.242  1.00  0.00    -0.037 OA 
BRANCH  16  18
HETATM   18  O   UNL     1      -7.502   8.838  72.331  1.00  0.00    -0.324 OA 
BRANCH  18  19
HETATM   19 CA   UNL     1      -9.505   9.779  71.352  1.00  0.00    -0.223 Ca 
BRANCH  19  20
HETATM   20  O   UNL     1     -11.509  10.718  70.372  1.00  0.00    -0.303 OA 
BRANCH  20  21
HETATM   21  C   UNL     1     -11.362  10.750  69.036  1.00  0.00    -0.284 C  
HETATM   22  O   UNL     1     -12.252  11.259  68.377  1.00  0.00    -0.604 OA 
BRANCH  21  23
HETATM   23  C   UNL     1     -10.229  10.029  68.342  1.00  0.00    -0.172 C  
HETATM   24  H   UNL     1      -9.248   8.388  68.609  1.00  0.00     0.000 HD 
HETATM   25  O   UNL     1      -9.959   8.841  69.045  1.00  0.00    -0.181 OA 
BRANCH  23  26
HETATM   26  C   UNL     1      -8.913  10.855  68.216  1.00  0.00    -0.150 C  
HETATM   27  H   UNL     1      -7.074  10.689  68.811  1.00  0.00     0.000 HD 
HETATM   28  O   UNL     1      -7.876  10.185  68.888  1.00  0.00    -0.087 OA 
BRANCH  26  29
HETATM   29  C   UNL     1      -8.440  11.242  66.772  1.00  0.00    -0.161 C  
BRANCH  29  30
HETATM   30  O   UNL     1      -9.617  11.504  66.022  1.00  0.00    -0.215 OA 
BRANCH  30  31
HETATM   31  C   UNL     1     -10.044  12.850  65.997  1.00  0.00    -0.285 C  
HETATM   32  O   UNL     1      -9.824  13.455  67.261  1.00  0.00    -0.226 OA 
HETATM   33  C   UNL     1     -10.235  14.813  67.246  1.00  0.00    -0.241 C  
HETATM   34  H   UNL     1     -12.738  12.217  64.231  1.00  0.00     0.000 HD 
HETATM   35  C   UNL     1     -11.772  14.903  67.065  1.00  0.00    -0.261 C  
HETATM   36  O   UNL     1     -12.433  14.228  68.108  1.00  0.00    -0.560 OA 
HETATM   37  C   UNL     1     -12.139  14.258  65.712  1.00  0.00    -0.405 C  
HETATM   38  O   UNL     1     -11.809  12.227  64.429  1.00  0.00    -0.363 OA 
HETATM   39  H   UNL     1     -13.374  14.284  67.996  1.00  0.00     0.000 HD 
HETATM   40  O   UNL     1     -13.532  14.199  65.526  1.00  0.00    -0.710 OA 
HETATM   41  C   UNL     1     -11.560  12.834  65.674  1.00  0.00    -0.370 C  
HETATM   42  H   UNL     1     -13.757  13.802  64.693  1.00  0.00     0.000 HD 
BRANCH  33  43
HETATM   43  C   UNL     1      -9.767  15.464  68.557  1.00  0.00    -0.204 C  
HETATM   44  O   UNL     1     -10.204  14.735  69.673  1.00  0.00    -0.397 OA 
HETATM   45  H   UNL     1      -9.914  15.136  70.483  1.00  0.00     0.000 HD 
ENDBRANCH  33  43
ENDBRANCH  30  31
ENDBRANCH  29  30
BRANCH  29  46
HETATM   46  C   UNL     1      -7.502  10.206  66.057  1.00  0.00    -0.118 C  
HETATM   47  O   UNL     1      -6.554  10.861  65.245  1.00  0.00    -0.360 OA 
HETATM   48  H   UNL     1      -5.987  10.235  64.813  1.00  0.00     0.000 HD 
BRANCH  46  49
HETATM   49  C   UNL     1      -8.234   9.072  65.303  1.00  0.00    -0.137 C  
HETATM   50  H   UNL     1      -8.179   7.120  65.215  1.00  0.00     0.000 HD 
HETATM   51  O   UNL     1      -7.730   7.817  65.679  1.00  0.00    -0.091 OA 
ENDBRANCH  46  49
ENDBRANCH  29  46
ENDBRANCH  26  29
ENDBRANCH  23  26
ENDBRANCH  21  23
ENDBRANCH  20  21
ENDBRANCH  19  20
ENDBRANCH  18  19
ENDBRANCH  16  18
ENDBRANCH  13  16
ENDBRANCH  10  13
ENDBRANCH   7  10
ENDBRANCH   4   7
ENDBRANCH   2   4
TORSDOF 17
ENDMDL
MODEL      187
REMARK 921   NORMALIZED FREE ENERGY PREDICTED BY IDOCK:   -4.61 KCAL/MOL
REMARK 922        TOTAL FREE ENERGY PREDICTED BY IDOCK:  -12.64 KCAL/MOL
REMARK 923 INTER-LIGAND FREE ENERGY PREDICTED BY IDOCK:   -9.81 KCAL/MOL
REMARK 924 INTRA-LIGAND FREE ENERGY PREDICTED BY IDOCK:   -2.83 KCAL/MOL
REMARK 927      BINDING AFFINITY PREDICTED BY RF-SCORE:    0.00 PKD
ROOT
HETATM    1  O   UNL     1      -7.762  12.644  68.079  1.00  0.00    -0.115 OA 
HETATM    2  C   UNL     1      -8.614  12.881  66.992  1.00  0.00    -0.169 C  
HETATM    3  H   UNL     1      -7.385  11.775  68.006  1.00  0.00     0.000 HD 
ENDROOT
BRANCH   2   4
HETATM    4  C   UNL     1      -9.224  14.288  67.110  1.00  0.00    -0.223 C  
HETATM    5  O   UNL     1      -8.462  15.191  66.348  1.00  0.00    -0.413 OA 
HETATM    6  H   UNL     1      -8.839  16.060  66.421  1.00  0.00     0.000 HD 
BRANCH   4   7
HETATM    7  C   UNL     1     -10.697  14.314  66.622  1.00  0.00    -0.290 C  
HETATM    8  H   UNL     1     -12.309  15.329  67.012  1.00  0.00     0.000 HD 
HETATM    9  O   UNL     1     -11.407  15.314  67.311  1.00  0.00    -0.332 OA 
BRANCH   7  10
HETATM   10  C   UNL     1     -10.798  14.584  65.097  1.00  0.00    -0.395 C  
HETATM   11  H   UNL     1     -10.672  16.125  63.940  1.00  0.00     0.000 HD 
HETATM   12  O   UNL     1     -10.610  15.961  64.874  1.00  0.00    -0.546 OA 
BRANCH  10  13
HETATM   13  C   UNL     1     -12.158  14.156  64.481  1.00  0.00    -0.468 C  
HETATM   14  H   UNL     1     -13.473  14.914  63.270  1.00  0.00     0.000 HD 
HETATM   15  O   UNL     1     -12.641  15.176  63.646  1.00  0.00    -0.614 OA 
BRANCH  13  16
HETATM   16  C   UNL     1     -12.075  12.888  63.665  1.00  0.00    -0.535 C  
HETATM   17  O   UNL     1     -13.070  12.194  63.521  1.00  0.00    -0.785 OA 
BRANCH  16  18
HETATM   18  O   UNL     1     -10.915  12.499  63.098  1.00  0.00    -0.343 OA 
BRANCH  18  19
HETATM   19 CA   UNL     1      -9.419  11.060  64.342  1.00  0.00    -0.185 Ca 
BRANCH  19  20
HETATM   20  O   UNL     1      -7.924   9.621  65.587  1.00  0.00    -0.109 OA 
BRANCH  20  21
HETATM   21  C   UNL     1      -8.633   8.600  66.098  1.00  0.00    -0.142 C  
HETATM   22  O   UNL     1      -8.485   7.497  65.601  1.00  0.00    -0.136 OA 
BRANCH  21  23
HETATM   23  C   UNL     1      -9.712   8.820  67.135  1.00  0.00    -0.191 C  
HETATM   24  H   UNL     1     -11.054  10.162  67.488  1.00  0.00     0.000 HD 
HETATM   25  O   UNL     1     -10.376  10.024  66.837  1.00  0.00    -0.225 OA 
BRANCH  23  26
HETATM   26  C   UNL     1      -9.200   8.873  68.606  1.00  0.00    -0.137 C  
HETATM   27  H   UNL     1      -8.856  10.240  69.937  1.00  0.00     0.000 HD 
HETATM   28  O   UNL     1      -9.168  10.208  69.041  1.00  0.00    -0.163 OA 
BRANCH  26  29
HETATM   29  C   UNL     1      -9.953   7.994  69.663  1.00  0.00    -0.188 C  
BRANCH  29  30
HETATM   30  O   UNL     1     -10.282   6.775  69.010  1.00  0.00    -0.164 OA 
BRANCH  30  31
HETATM   31  C   UNL     1      -9.324   5.742  69.118  1.00  0.00    -0.123 C  
HETATM   32  O   UNL     1      -8.952   5.285  67.829  1.00  0.00    -0.109 OA 
HETATM   33  C   UNL     1      -7.978   4.257  67.922  1.00  0.00    -0.087 C  
HETATM   34  H   UNL     1     -10.792   4.320  71.687  1.00  0.00     0.000 HD 
HETATM   35  C   UNL     1      -8.592   2.999  68.589  1.00  0.00    -0.078 C  
HETATM   36  O   UNL     1      -9.692   2.533  67.844  1.00  0.00    -0.330 OA 
HETATM   37  C   UNL     1      -9.051   3.380  70.012  1.00  0.00    -0.129 C  
HETATM   38  O   UNL     1     -10.383   5.023  71.198  1.00  0.00    -0.220 OA 
HETATM   39  H   UNL     1     -10.068   1.762  68.253  1.00  0.00     0.000 HD 
HETATM   40  O   UNL     1      -9.724   2.319  70.642  1.00  0.00    -0.113 OA 
HETATM   41  C   UNL     1      -9.991   4.594  69.917  1.00  0.00    -0.226 C  
HETATM   42  H   UNL     1     -10.006   2.554  71.519  1.00  0.00     0.000 HD 
BRANCH  33  43
HETATM   43  C   UNL     1      -7.458   3.967  66.505  1.00  0.00    -0.083 C  
HETATM   44  O   UNL     1      -6.807   5.084  65.962  1.00  0.00    -0.058 OA 
HETATM   45  H   UNL     1      -6.486   4.904  65.087  1.00  0.00     0.000 HD 
ENDBRANCH  33  43
ENDBRANCH  30  31
ENDBRANCH  29  30
BRANCH  29  46
HETATM   46  C   UNL     1     -11.205   8.656  70.340  1.00  0.00    -0.218 C  
HETATM   47  O   UNL     1     -11.792   9.613  69.489  1.00  0.00    -0.440 OA 
HETATM   48  H   UNL     1     -12.549  10.013  69.898  1.00  0.00     0.000 HD 
BRANCH  46  49
HETATM   49  C   UNL     1     -10.962   9.209  71.763  1.00  0.00    -0.359 C  
HETATM   50  H   UNL     1     -10.870   8.519  73.590  1.00  0.00     0.000 HD 
HETATM   51  O   UNL     1     -11.019   8.179  72.715  1.00  0.00    -0.369 OA 
ENDBRANCH  46  49
ENDBRANCH  29  46
ENDBRANCH  26  29
ENDBRANCH  23  26
ENDBRANCH  21  23
ENDBRANCH  20  21
ENDBRANCH  19  20
ENDBRANCH  18  19
ENDBRANCH  16  18
ENDBRANCH  13  16
ENDBRANCH  10  13
ENDBRANCH   7  10
ENDBRANCH   4   7
ENDBRANCH   2   4
TORSDOF 17
ENDMDL
MODEL      188
REMARK 921   NORMALIZED FREE ENERGY PREDICTED BY IDOCK:   -4.61 KCAL/MOL
REMARK 922        TOTAL FREE ENERGY PREDICTED BY IDOCK:  -12.64 KCAL/MOL
REMARK 923 INTER-LIGAND FREE ENERGY PREDICTED BY IDOCK:   -8.69 KCAL/MOL
REMARK 924 INTRA-LIGAND FREE ENERGY PREDICTED BY IDOCK:   -3.94 KCAL/MOL
REMARK 927      BINDING AFFINITY PREDICTED BY RF-SCORE:    0.00 PKD
ROOT
HETATM    1  O   UNL     1     -11.991   8.236  70.289  1.00  0.00    -0.464 OA 
HETATM    2  C   UNL     1     -12.131   6.871  70.573  1.00  0.00    -0.261 C  
HETATM    3  H   UNL     1     -12.495   8.455  69.514  1.00  0.00     0.000 HD 
ENDROOT
BRANCH   2   4
HETATM    4  C   UNL     1     -11.315   6.517  71.827  1.00  0.00    -0.281 C  
HETATM    5  O   UNL     1     -12.150   5.879  72.761  1.00  0.00    -0.537 OA 
HETATM    6  H   UNL     1     -11.646   5.660  73.536  1.00  0.00     0.000 HD 
BRANCH   4   7
HETATM    7  C   UNL     1     -10.119   5.589  71.486  1.00  0.00    -0.205 C  
HETATM    8  H   UNL     1      -9.814   3.994  70.416  1.00  0.00     0.000 HD 
HETATM    9  O   UNL     1     -10.546   4.562  70.625  1.00  0.00     0.039 OA 
BRANCH   7  10
HETATM   10  C   UNL     1      -8.957   6.365  70.809  1.00  0.00    -0.144 C  
HETATM   11  H   UNL     1      -7.765   6.072  69.318  1.00  0.00     0.000 HD 
HETATM   12  O   UNL     1      -8.476   5.597  69.733  1.00  0.00    -0.105 OA 
BRANCH  10  13
HETATM   13  C   UNL     1      -7.778   6.676  71.772  1.00  0.00    -0.097 C  
HETATM   14  H   UNL     1      -5.913   7.197  71.614  1.00  0.00     0.000 HD 
HETATM   15  O   UNL     1      -6.634   7.006  71.026  1.00  0.00    -0.047 OA 
BRANCH  13  16
HETATM   16  C   UNL     1      -8.061   7.819  72.718  1.00  0.00    -0.124 C  
HETATM   17  O   UNL     1      -8.381   7.584  73.873  1.00  0.00    -0.149 OA 
BRANCH  16  18
HETATM   18  O   UNL     1      -7.977   9.100  72.307  1.00  0.00    -0.290 OA 
BRANCH  18  19
HETATM   19 CA   UNL     1      -9.754  10.020  70.945  1.00  0.00    -0.232 Ca 
BRANCH  19  20
HETATM   20  O   UNL     1     -11.531  10.939  69.584  1.00  0.00    -0.251 OA 
BRANCH  20  21
HETATM   21  C   UNL     1     -11.925  12.107  70.119  1.00  0.00    -0.314 C  
HETATM   22  O   UNL     1     -12.772  12.076  70.996  1.00  0.00    -0.334 OA 
BRANCH  21  23
HETATM   23  C   UNL     1     -11.480  13.435  69.550  1.00  0.00    -0.244 C  
HETATM   24  H   UNL     1     -11.626  15.291  70.061  1.00  0.00     0.000 HD 
HETATM   25  O   UNL     1     -11.906  14.456  70.418  1.00  0.00    -0.286 OA 
BRANCH  23  26
HETATM   26  C   UNL     1     -12.007  13.737  68.114  1.00  0.00    -0.358 C  
HETATM   27  H   UNL     1     -12.590  15.295  67.118  1.00  0.00     0.000 HD 
HETATM   28  O   UNL     1     -12.268  15.112  67.993  1.00  0.00    -0.081 OA 
BRANCH  26  29
HETATM   29  C   UNL     1     -11.125  13.261  66.908  1.00  0.00    -0.289 C  
BRANCH  29  30
HETATM   30  O   UNL     1      -9.808  13.725  67.167  1.00  0.00    -0.232 OA 
BRANCH  30  31
HETATM   31  C   UNL     1      -8.787  12.750  67.097  1.00  0.00    -0.202 C  
HETATM   32  O   UNL     1      -9.318  11.467  67.381  1.00  0.00    -0.165 OA 
HETATM   33  C   UNL     1      -8.306  10.475  67.299  1.00  0.00    -0.122 C  
HETATM   34  H   UNL     1      -6.544  14.646  68.564  1.00  0.00     0.000 HD 
HETATM   35  C   UNL     1      -7.258  10.689  68.422  1.00  0.00    -0.084 C  
HETATM   36  O   UNL     1      -7.870  10.627  69.687  1.00  0.00    -0.303 OA 
HETATM   37  C   UNL     1      -6.613  12.077  68.223  1.00  0.00    -0.055 C  
HETATM   38  O   UNL     1      -7.193  14.411  67.912  1.00  0.00    -0.125 OA 
HETATM   39  H   UNL     1      -7.228  10.759  70.375  1.00  0.00     0.000 HD 
HETATM   40  O   UNL     1      -5.729  12.394  69.271  1.00  0.00    -0.070 OA 
HETATM   41  C   UNL     1      -7.728  13.134  68.161  1.00  0.00    -0.143 C  
HETATM   42  H   UNL     1      -5.332  13.248  69.148  1.00  0.00     0.000 HD 
BRANCH  33  43
HETATM   43  C   UNL     1      -8.983   9.099  67.393  1.00  0.00    -0.117 C  
HETATM   44  O   UNL     1      -9.726   8.976  68.576  1.00  0.00    -0.154 OA 
HETATM   45  H   UNL     1     -10.144   8.126  68.634  1.00  0.00     0.000 HD 
ENDBRANCH  33  43
ENDBRANCH  30  31
ENDBRANCH  29  30
BRANCH  29  46
HETATM   46  C   UNL     1     -11.629  13.679  65.482  1.00  0.00    -0.324 C  
HETATM   47  O   UNL     1     -13.023  13.881  65.478  1.00  0.00    -0.673 OA 
HETATM   48  H   UNL     1     -13.327  14.134  64.615  1.00  0.00     0.000 HD 
BRANCH  46  49
HETATM   49  C   UNL     1     -11.168  12.757  64.329  1.00  0.00    -0.364 C  
HETATM   50  H   UNL     1     -11.976  11.794  62.832  1.00  0.00     0.000 HD 
HETATM   51  O   UNL     1     -12.259  12.361  63.541  1.00  0.00    -0.504 OA 
ENDBRANCH  46  49
ENDBRANCH  29  46
ENDBRANCH  26  29
ENDBRANCH  23  26
ENDBRANCH  21  23
ENDBRANCH  20  21
ENDBRANCH  19  20
ENDBRANCH  18  19
ENDBRANCH  16  18
ENDBRANCH  13  16
ENDBRANCH  10  13
ENDBRANCH   7  10
ENDBRANCH   4   7
ENDBRANCH   2   4
TORSDOF 17
ENDMDL
MODEL      189
REMARK 921   NORMALIZED FREE ENERGY PREDICTED BY IDOCK:   -4.61 KCAL/MOL
REMARK 922        TOTAL FREE ENERGY PREDICTED BY IDOCK:  -12.63 KCAL/MOL
REMARK 923 INTER-LIGAND FREE ENERGY PREDICTED BY IDOCK:   -9.81 KCAL/MOL
REMARK 924 INTRA-LIGAND FREE ENERGY PREDICTED BY IDOCK:   -2.83 KCAL/MOL
REMARK 927      BINDING AFFINITY PREDICTED BY RF-SCORE:    0.00 PKD
ROOT
HETATM    1  O   UNL     1     -12.463  16.399  72.387  1.00  0.00    -0.462 OA 
HETATM    2  C   UNL     1     -12.689  15.083  72.813  1.00  0.00    -0.400 C  
HETATM    3  H   UNL     1     -12.123  16.914  73.109  1.00  0.00     0.000 HD 
ENDROOT
BRANCH   2   4
HETATM    4  C   UNL     1     -13.241  14.249  71.644  1.00  0.00    -0.356 C  
HETATM    5  O   UNL     1     -14.077  15.055  70.852  1.00  0.00    -0.678 OA 
HETATM    6  H   UNL     1     -14.418  14.539  70.130  1.00  0.00     0.000 HD 
BRANCH   4   7
HETATM    7  C   UNL     1     -12.099  13.670  70.767  1.00  0.00    -0.295 C  
HETATM    8  H   UNL     1     -11.513  11.916  70.169  1.00  0.00     0.000 HD 
HETATM    9  O   UNL     1     -12.212  12.269  70.706  1.00  0.00    -0.378 OA 
BRANCH   7  10
HETATM   10  C   UNL     1     -12.127  14.243  69.326  1.00  0.00    -0.313 C  
HETATM   11  H   UNL     1     -11.949  13.535  67.538  1.00  0.00     0.000 HD 
HETATM   12  O   UNL     1     -11.931  13.183  68.421  1.00  0.00    -0.341 OA 
BRANCH  10  13
HETATM   13  C   UNL     1     -11.046  15.329  69.070  1.00  0.00    -0.260 C  
HETATM   14  H   UNL     1      -9.821  16.395  70.135  1.00  0.00     0.000 HD 
HETATM   15  O   UNL     1     -10.482  15.732  70.292  1.00  0.00    -0.308 OA 
BRANCH  13  16
HETATM   16  C   UNL     1      -9.924  14.860  68.174  1.00  0.00    -0.222 C  
HETATM   17  O   UNL     1      -8.915  14.380  68.667  1.00  0.00    -0.189 OA 
BRANCH  16  18
HETATM   18  O   UNL     1     -10.011  14.971  66.833  1.00  0.00    -0.238 OA 
BRANCH  18  19
HETATM   19 CA   UNL     1     -10.443  12.990  65.512  1.00  0.00    -0.253 Ca 
BRANCH  19  20
HETATM   20  O   UNL     1     -10.875  11.009  64.191  1.00  0.00    -0.361 OA 
BRANCH  20  21
HETATM   21  C   UNL     1      -9.778  10.232  64.206  1.00  0.00    -0.308 C  
HETATM   22  O   UNL     1      -9.323   9.866  63.136  1.00  0.00    -0.275 OA 
BRANCH  21  23
HETATM   23  C   UNL     1      -9.214   9.674  65.494  1.00  0.00    -0.234 C  
HETATM   24  H   UNL     1      -7.697  10.045  66.628  1.00  0.00     0.000 HD 
HETATM   25  O   UNL     1      -8.051  10.395  65.819  1.00  0.00    -0.144 OA 
BRANCH  23  26
HETATM   26  C   UNL     1      -8.874   8.154  65.450  1.00  0.00    -0.044 C  
HETATM   27  H   UNL     1      -7.293   7.063  65.186  1.00  0.00     0.000 HD 
HETATM   28  O   UNL     1      -7.500   7.990  65.213  1.00  0.00    -0.074 OA 
BRANCH  26  29
HETATM   29  C   UNL     1      -9.302   7.285  66.683  1.00  0.00    -0.171 C  
BRANCH  29  30
HETATM   30  O   UNL     1      -8.155   7.175  67.514  1.00  0.00    -0.111 OA 
BRANCH  30  31
HETATM   31  C   UNL     1      -8.342   7.524  68.870  1.00  0.00    -0.129 C  
HETATM   32  O   UNL     1      -9.721   7.714  69.140  1.00  0.00    -0.161 OA 
HETATM   33  C   UNL     1      -9.925   8.051  70.504  1.00  0.00    -0.190 C  
HETATM   34  H   UNL     1      -5.725   9.503  68.971  1.00  0.00     0.000 HD 
HETATM   35  C   UNL     1      -9.303   9.438  70.808  1.00  0.00    -0.226 C  
HETATM   36  O   UNL     1      -9.881  10.428  69.993  1.00  0.00    -0.414 OA 
HETATM   37  C   UNL     1      -7.786   9.359  70.536  1.00  0.00    -0.161 C  
HETATM   38  O   UNL     1      -6.198   8.693  68.829  1.00  0.00    -0.044 OA 
HETATM   39  H   UNL     1      -9.499  11.278  70.180  1.00  0.00     0.000 HD 
HETATM   40  O   UNL     1      -7.166  10.613  70.681  1.00  0.00    -0.422 OA 
HETATM   41  C   UNL     1      -7.570   8.847  69.102  1.00  0.00    -0.080 C  
HETATM   42  H   UNL     1      -6.232  10.564  70.514  1.00  0.00     0.000 HD 
BRANCH  33  43
HETATM   43  C   UNL     1     -11.436   8.020  70.778  1.00  0.00    -0.263 C  
HETATM   44  O   UNL     1     -11.916   9.290  71.129  1.00  0.00    -0.293 OA 
HETATM   45  H   UNL     1     -12.850   9.271  71.298  1.00  0.00     0.000 HD 
ENDBRANCH  33  43
ENDBRANCH  30  31
ENDBRANCH  29  30
BRANCH  29  46
HETATM   46  C   UNL     1      -9.928   5.884  66.352  1.00  0.00    -0.116 C  
HETATM   47  O   UNL     1     -11.305   5.863  66.649  1.00  0.00    -0.649 OA 
HETATM   48  H   UNL     1     -11.683   5.016  66.449  1.00  0.00     0.000 HD 
BRANCH  46  49
HETATM   49  C   UNL     1      -9.180   4.674  66.958  1.00  0.00    -0.128 C  
HETATM   50  H   UNL     1      -9.275   2.723  66.876  1.00  0.00     0.000 HD 
HETATM   51  O   UNL     1      -9.735   3.467  66.504  1.00  0.00    -0.114 OA 
ENDBRANCH  46  49
ENDBRANCH  29  46
ENDBRANCH  26  29
ENDBRANCH  23  26
ENDBRANCH  21  23
ENDBRANCH  20  21
ENDBRANCH  19  20
ENDBRANCH  18  19
ENDBRANCH  16  18
ENDBRANCH  13  16
ENDBRANCH  10  13
ENDBRANCH   7  10
ENDBRANCH   4   7
ENDBRANCH   2   4
TORSDOF 17
ENDMDL
MODEL      190
REMARK 921   NORMALIZED FREE ENERGY PREDICTED BY IDOCK:   -4.61 KCAL/MOL
REMARK 922        TOTAL FREE ENERGY PREDICTED BY IDOCK:  -12.62 KCAL/MOL
REMARK 923 INTER-LIGAND FREE ENERGY PREDICTED BY IDOCK:  -10.12 KCAL/MOL
REMARK 924 INTRA-LIGAND FREE ENERGY PREDICTED BY IDOCK:   -2.50 KCAL/MOL
REMARK 927      BINDING AFFINITY PREDICTED BY RF-SCORE:    0.00 PKD
ROOT
HETATM    1  O   UNL     1     -10.901  11.567  68.942  1.00  0.00    -0.202 OA 
HETATM    2  C   UNL     1     -11.897  10.788  69.548  1.00  0.00    -0.308 C  
HETATM    3  H   UNL     1     -11.290  12.349  68.569  1.00  0.00     0.000 HD 
ENDROOT
BRANCH   2   4
HETATM    4  C   UNL     1     -11.267   9.521  70.153  1.00  0.00    -0.234 C  
HETATM    5  O   UNL     1      -9.945   9.395  69.693  1.00  0.00    -0.177 OA 
HETATM    6  H   UNL     1      -9.556   8.613  70.066  1.00  0.00     0.000 HD 
BRANCH   4   7
HETATM    7  C   UNL     1     -11.274   9.566  71.703  1.00  0.00    -0.308 C  
HETATM    8  H   UNL     1     -12.571   9.897  73.113  1.00  0.00     0.000 HD 
HETATM    9  O   UNL     1     -12.568   9.869  72.163  1.00  0.00    -0.345 OA 
BRANCH   7  10
HETATM   10  C   UNL     1     -10.820   8.217  72.324  1.00  0.00    -0.338 C  
HETATM   11  H   UNL     1      -9.240   7.109  72.253  1.00  0.00     0.000 HD 
HETATM   12  O   UNL     1      -9.518   7.934  71.873  1.00  0.00    -0.152 OA 
BRANCH  10  13
HETATM   13  C   UNL     1     -11.749   7.026  71.961  1.00  0.00    -0.295 C  
HETATM   14  H   UNL     1     -13.579   6.781  71.358  1.00  0.00     0.000 HD 
HETATM   15  O   UNL     1     -13.011   7.510  71.580  1.00  0.00    -0.341 OA 
BRANCH  13  16
HETATM   16  C   UNL     1     -11.218   6.175  70.831  1.00  0.00    -0.299 C  
HETATM   17  O   UNL     1     -10.343   5.352  71.053  1.00  0.00    -0.219 OA 
BRANCH  16  18
HETATM   18  O   UNL     1     -11.686   6.314  69.575  1.00  0.00    -0.360 OA 
BRANCH  18  19
HETATM   19 CA   UNL     1     -10.181   5.972  67.711  1.00  0.00    -0.123 Ca 
BRANCH  19  20
HETATM   20  O   UNL     1      -8.676   5.629  65.847  1.00  0.00    -0.138 OA 
BRANCH  20  21
HETATM   21  C   UNL     1      -8.099   6.803  65.537  1.00  0.00    -0.128 C  
HETATM   22  O   UNL     1      -7.231   6.803  64.681  1.00  0.00    -0.066 OA 
BRANCH  21  23
HETATM   23  C   UNL     1      -8.373   8.061  66.331  1.00  0.00    -0.124 C  
HETATM   24  H   UNL     1      -8.704   8.497  68.182  1.00  0.00     0.000 HD 
HETATM   25  O   UNL     1      -8.532   7.707  67.683  1.00  0.00    -0.117 OA 
BRANCH  23  26
HETATM   26  C   UNL     1      -9.626   8.863  65.865  1.00  0.00    -0.223 C  
HETATM   27  H   UNL     1     -11.220   9.602  66.686  1.00  0.00     0.000 HD 
HETATM   28  O   UNL     1     -10.457   9.112  66.970  1.00  0.00    -0.260 OA 
BRANCH  26  29
HETATM   29  C   UNL     1      -9.375  10.199  65.084  1.00  0.00    -0.235 C  
BRANCH  29  30
HETATM   30  O   UNL     1     -10.650  10.788  64.875  1.00  0.00    -0.292 OA 
BRANCH  30  31
HETATM   31  C   UNL     1     -10.700  12.197  64.969  1.00  0.00    -0.297 C  
HETATM   32  O   UNL     1     -10.002  12.634  66.123  1.00  0.00    -0.252 OA 
HETATM   33  C   UNL     1     -10.031  14.050  66.221  1.00  0.00    -0.307 C  
HETATM   34  H   UNL     1     -13.835  12.391  64.013  1.00  0.00     0.000 HD 
HETATM   35  C   UNL     1     -11.482  14.538  66.470  1.00  0.00    -0.362 C  
HETATM   36  O   UNL     1     -11.994  13.978  67.655  1.00  0.00    -0.368 OA 
HETATM   37  C   UNL     1     -12.351  14.104  65.271  1.00  0.00    -0.460 C  
HETATM   38  O   UNL     1     -12.918  12.152  63.948  1.00  0.00    -0.726 OA 
HETATM   39  H   UNL     1     -12.883  14.276  67.807  1.00  0.00     0.000 HD 
HETATM   40  O   UNL     1     -13.708  14.411  65.475  1.00  0.00    -0.476 OA 
HETATM   41  C   UNL     1     -12.196  12.587  65.075  1.00  0.00    -0.456 C  
HETATM   42  H   UNL     1     -14.242  14.144  64.737  1.00  0.00     0.000 HD 
BRANCH  33  43
HETATM   43  C   UNL     1      -9.078  14.466  67.352  1.00  0.00    -0.198 C  
HETATM   44  O   UNL     1      -9.641  15.472  68.150  1.00  0.00    -0.198 OA 
HETATM   45  H   UNL     1      -9.053  15.729  68.849  1.00  0.00     0.000 HD 
ENDBRANCH  33  43
ENDBRANCH  30  31
ENDBRANCH  29  30
BRANCH  29  46
HETATM   46  C   UNL     1      -8.558  10.072  63.750  1.00  0.00    -0.198 C  
HETATM   47  O   UNL     1      -8.957   8.934  63.021  1.00  0.00    -0.431 OA 
HETATM   48  H   UNL     1      -8.463   8.856  62.214  1.00  0.00     0.000 HD 
BRANCH  46  49
HETATM   49  C   UNL     1      -7.023  10.155  63.911  1.00  0.00    -0.103 C  
HETATM   50  H   UNL     1      -5.738  10.892  65.187  1.00  0.00     0.000 HD 
HETATM   51  O   UNL     1      -6.682  10.840  65.088  1.00  0.00    -0.008 OA 
ENDBRANCH  46  49
ENDBRANCH  29  46
ENDBRANCH  26  29
ENDBRANCH  23  26
ENDBRANCH  21  23
ENDBRANCH  20  21
ENDBRANCH  19  20
ENDBRANCH  18  19
ENDBRANCH  16  18
ENDBRANCH  13  16
ENDBRANCH  10  13
ENDBRANCH   7  10
ENDBRANCH   4   7
ENDBRANCH   2   4
TORSDOF 17
ENDMDL
MODEL      191
REMARK 921   NORMALIZED FREE ENERGY PREDICTED BY IDOCK:   -4.60 KCAL/MOL
REMARK 922        TOTAL FREE ENERGY PREDICTED BY IDOCK:  -12.62 KCAL/MOL
REMARK 923 INTER-LIGAND FREE ENERGY PREDICTED BY IDOCK:   -8.54 KCAL/MOL
REMARK 924 INTRA-LIGAND FREE ENERGY PREDICTED BY IDOCK:   -4.08 KCAL/MOL
REMARK 927      BINDING AFFINITY PREDICTED BY RF-SCORE:    0.00 PKD
ROOT
HETATM    1  O   UNL     1     -11.262  15.551  70.294  1.00  0.00    -0.269 OA 
HETATM    2  C   UNL     1     -12.188  14.504  70.189  1.00  0.00    -0.342 C  
HETATM    3  H   UNL     1     -11.685  16.315  70.669  1.00  0.00     0.000 HD 
ENDROOT
BRANCH   2   4
HETATM    4  C   UNL     1     -11.503  13.267  69.582  1.00  0.00    -0.198 C  
HETATM    5  O   UNL     1     -12.235  12.117  69.923  1.00  0.00    -0.251 OA 
HETATM    6  H   UNL     1     -11.812  11.353  69.548  1.00  0.00     0.000 HD 
BRANCH   4   7
HETATM    7  C   UNL     1     -11.398  13.375  68.038  1.00  0.00    -0.286 C  
HETATM    8  H   UNL     1     -12.025  14.582  66.649  1.00  0.00     0.000 HD 
HETATM    9  O   UNL     1     -12.090  14.517  67.594  1.00  0.00    -0.343 OA 
BRANCH   7  10
HETATM   10  C   UNL     1      -9.924  13.459  67.560  1.00  0.00    -0.230 C  
HETATM   11  H   UNL     1      -8.962  14.371  66.156  1.00  0.00     0.000 HD 
HETATM   12  O   UNL     1      -9.864  14.319  66.448  1.00  0.00    -0.274 OA 
BRANCH  10  13
HETATM   13  C   UNL     1      -9.321  12.083  67.165  1.00  0.00    -0.187 C  
HETATM   14  H   UNL     1      -8.517  10.568  68.077  1.00  0.00     0.000 HD 
HETATM   15  O   UNL     1      -8.885  11.410  68.318  1.00  0.00    -0.155 OA 
BRANCH  13  16
HETATM   16  C   UNL     1     -10.299  11.184  66.445  1.00  0.00    -0.252 C  
HETATM   17  O   UNL     1     -10.807  11.558  65.399  1.00  0.00    -0.287 OA 
BRANCH  16  18
HETATM   18  O   UNL     1     -10.632   9.976  66.943  1.00  0.00    -0.236 OA 
BRANCH  18  19
HETATM   19 CA   UNL     1     -12.059   9.858  68.894  1.00  0.00    -0.465 Ca 
BRANCH  19  20
HETATM   20  O   UNL     1     -13.487   9.740  70.844  1.00  0.00    -0.309 OA 
BRANCH  20  21
HETATM   21  C   UNL     1     -12.804   9.160  71.845  1.00  0.00    -0.393 C  
HETATM   22  O   UNL     1     -13.365   9.031  72.920  1.00  0.00    -0.337 OA 
BRANCH  21  23
HETATM   23  C   UNL     1     -11.333   8.830  71.720  1.00  0.00    -0.339 C  
HETATM   24  H   UNL     1      -9.823   9.540  70.750  1.00  0.00     0.000 HD 
HETATM   25  O   UNL     1     -10.747   9.746  70.828  1.00  0.00    -0.303 OA 
BRANCH  23  26
HETATM   26  C   UNL     1     -11.031   7.381  71.231  1.00  0.00    -0.242 C  
HETATM   27  H   UNL     1     -11.861   6.080  70.057  1.00  0.00     0.000 HD 
HETATM   28  O   UNL     1     -12.046   6.963  70.355  1.00  0.00    -0.318 OA 
BRANCH  26  29
HETATM   29  C   UNL     1      -9.630   7.120  70.577  1.00  0.00    -0.169 C  
BRANCH  29  30
HETATM   30  O   UNL     1      -9.858   6.255  69.473  1.00  0.00    -0.150 OA 
BRANCH  30  31
HETATM   31  C   UNL     1      -8.890   6.302  68.445  1.00  0.00    -0.114 C  
HETATM   32  O   UNL     1      -8.515   7.645  68.189  1.00  0.00    -0.123 OA 
HETATM   33  C   UNL     1      -7.531   7.706  67.168  1.00  0.00    -0.096 C  
HETATM   34  H   UNL     1     -10.342   3.976  66.640  1.00  0.00     0.000 HD 
HETATM   35  C   UNL     1      -8.133   7.236  65.819  1.00  0.00    -0.129 C  
HETATM   36  O   UNL     1      -9.228   8.042  65.459  1.00  0.00    -0.402 OA 
HETATM   37  C   UNL     1      -8.594   5.772  65.979  1.00  0.00    -0.139 C  
HETATM   38  O   UNL     1      -9.941   4.354  67.413  1.00  0.00    -0.170 OA 
HETATM   39  H   UNL     1      -9.597   7.754  64.632  1.00  0.00     0.000 HD 
HETATM   40  O   UNL     1      -9.257   5.308  64.828  1.00  0.00    -0.351 OA 
HETATM   41  C   UNL     1      -9.545   5.685  67.184  1.00  0.00    -0.131 C  
HETATM   42  H   UNL     1      -9.540   4.407  64.927  1.00  0.00     0.000 HD 
BRANCH  33  43
HETATM   43  C   UNL     1      -7.009   9.150  67.098  1.00  0.00    -0.081 C  
HETATM   44  O   UNL     1      -6.604   9.483  65.798  1.00  0.00    -0.071 OA 
HETATM   45  H   UNL     1      -6.283  10.376  65.755  1.00  0.00     0.000 HD 
ENDBRANCH  33  43
ENDBRANCH  30  31
ENDBRANCH  29  30
BRANCH  29  46
HETATM   46  C   UNL     1      -8.516   6.571  71.536  1.00  0.00    -0.125 C  
HETATM   47  O   UNL     1      -9.037   6.309  72.818  1.00  0.00    -0.133 OA 
HETATM   48  H   UNL     1      -8.363   5.977  73.398  1.00  0.00     0.000 HD 
BRANCH  46  49
HETATM   49  C   UNL     1      -7.224   7.420  71.592  1.00  0.00    -0.071 C  
HETATM   50  H   UNL     1      -6.638   9.203  71.045  1.00  0.00     0.000 HD 
HETATM   51  O   UNL     1      -7.431   8.681  71.011  1.00  0.00    -0.070 OA 
ENDBRANCH  46  49
ENDBRANCH  29  46
ENDBRANCH  26  29
ENDBRANCH  23  26
ENDBRANCH  21  23
ENDBRANCH  20  21
ENDBRANCH  19  20
ENDBRANCH  18  19
ENDBRANCH  16  18
ENDBRANCH  13  16
ENDBRANCH  10  13
ENDBRANCH   7  10
ENDBRANCH   4   7
ENDBRANCH   2   4
TORSDOF 17
ENDMDL
MODEL      192
REMARK 921   NORMALIZED FREE ENERGY PREDICTED BY IDOCK:   -4.60 KCAL/MOL
REMARK 922        TOTAL FREE ENERGY PREDICTED BY IDOCK:  -12.62 KCAL/MOL
REMARK 923 INTER-LIGAND FREE ENERGY PREDICTED BY IDOCK:  -10.73 KCAL/MOL
REMARK 924 INTRA-LIGAND FREE ENERGY PREDICTED BY IDOCK:   -1.88 KCAL/MOL
REMARK 927      BINDING AFFINITY PREDICTED BY RF-SCORE:    0.00 PKD
ROOT
HETATM    1  O   UNL     1     -11.544   4.572  64.991  1.00  0.00    -1.101 OA 
HETATM    2  C   UNL     1     -10.531   4.628  65.959  1.00  0.00    -0.264 C  
HETATM    3  H   UNL     1     -12.384   4.440  65.415  1.00  0.00     0.000 HD 
ENDROOT
BRANCH   2   4
HETATM    4  C   UNL     1      -9.171   4.841  65.272  1.00  0.00    -0.153 C  
HETATM    5  O   UNL     1      -9.367   4.991  63.888  1.00  0.00    -0.355 OA 
HETATM    6  H   UNL     1      -8.527   5.123  63.465  1.00  0.00     0.000 HD 
BRANCH   4   7
HETATM    7  C   UNL     1      -8.441   6.092  65.830  1.00  0.00    -0.146 C  
HETATM    8  H   UNL     1      -7.517   6.589  67.466  1.00  0.00     0.000 HD 
HETATM    9  O   UNL     1      -7.963   5.823  67.125  1.00  0.00    -0.101 OA 
BRANCH   7  10
HETATM   10  C   UNL     1      -7.250   6.517  64.930  1.00  0.00    -0.067 C  
HETATM   11  H   UNL     1      -5.403   5.993  64.719  1.00  0.00     0.000 HD 
HETATM   12  O   UNL     1      -6.132   5.732  65.270  1.00  0.00    -0.027 OA 
BRANCH  10  13
HETATM   13  C   UNL     1      -6.872   8.018  65.072  1.00  0.00    -0.055 C  
HETATM   14  H   UNL     1      -5.278   9.108  64.871  1.00  0.00     0.000 HD 
HETATM   15  O   UNL     1      -5.509   8.191  64.784  1.00  0.00    -0.039 OA 
BRANCH  13  16
HETATM   16  C   UNL     1      -7.659   8.924  64.155  1.00  0.00    -0.120 C  
HETATM   17  O   UNL     1      -8.331   8.440  63.257  1.00  0.00    -0.157 OA 
BRANCH  16  18
HETATM   18  O   UNL     1      -7.626  10.263  64.303  1.00  0.00    -0.147 OA 
BRANCH  18  19
HETATM   19 CA   UNL     1      -9.595  11.559  63.755  1.00  0.00    -0.207 Ca 
BRANCH  19  20
HETATM   20  O   UNL     1     -11.563  12.855  63.206  1.00  0.00    -0.488 OA 
BRANCH  20  21
HETATM   21  C   UNL     1     -12.455  12.730  64.204  1.00  0.00    -0.369 C  
HETATM   22  O   UNL     1     -13.449  12.055  64.000  1.00  0.00    -0.655 OA 
BRANCH  21  23
HETATM   23  C   UNL     1     -12.338  13.531  65.482  1.00  0.00    -0.481 C  
HETATM   24  H   UNL     1     -13.219  15.067  66.250  1.00  0.00     0.000 HD 
HETATM   25  O   UNL     1     -13.292  14.564  65.447  1.00  0.00    -0.458 OA 
BRANCH  23  26
HETATM   26  C   UNL     1     -10.929  14.148  65.736  1.00  0.00    -0.301 C  
HETATM   27  H   UNL     1      -9.952  15.726  65.173  1.00  0.00     0.000 HD 
HETATM   28  O   UNL     1     -10.810  15.349  65.017  1.00  0.00    -0.399 OA 
BRANCH  26  29
HETATM   29  C   UNL     1     -10.505  14.384  67.227  1.00  0.00    -0.269 C  
BRANCH  29  30
HETATM   30  O   UNL     1     -11.619  14.010  68.025  1.00  0.00    -0.298 OA 
BRANCH  30  31
HETATM   31  C   UNL     1     -11.362  13.049  69.029  1.00  0.00    -0.289 C  
HETATM   32  O   UNL     1     -11.374  11.745  68.470  1.00  0.00    -0.225 OA 
HETATM   33  C   UNL     1     -11.102  10.770  69.465  1.00  0.00    -0.278 C  
HETATM   34  H   UNL     1     -13.205  14.559  71.287  1.00  0.00     0.000 HD 
HETATM   35  C   UNL     1     -12.254  10.730  70.502  1.00  0.00    -0.366 C  
HETATM   36  O   UNL     1     -13.474  10.425  69.872  1.00  0.00    -0.422 OA 
HETATM   37  C   UNL     1     -12.348  12.115  71.175  1.00  0.00    -0.160 C  
HETATM   38  O   UNL     1     -12.513  14.475  70.642  1.00  0.00    -0.304 OA 
HETATM   39  H   UNL     1     -14.180  10.400  70.507  1.00  0.00     0.000 HD 
HETATM   40  O   UNL     1     -13.446  12.194  72.050  1.00  0.00    -0.456 OA 
HETATM   41  C   UNL     1     -12.492  13.186  70.080  1.00  0.00    -0.122 C  
HETATM   42  H   UNL     1     -13.504  13.047  72.465  1.00  0.00     0.000 HD 
BRANCH  33  43
HETATM   43  C   UNL     1     -10.907   9.418  68.762  1.00  0.00    -0.114 C  
HETATM   44  O   UNL     1     -11.401   8.362  69.542  1.00  0.00    -0.438 OA 
HETATM   45  H   UNL     1     -11.281   7.527  69.107  1.00  0.00     0.000 HD 
ENDBRANCH  33  43
ENDBRANCH  30  31
ENDBRANCH  29  30
BRANCH  29  46
HETATM   46  C   UNL     1      -9.987  15.824  67.574  1.00  0.00    -0.236 C  
HETATM   47  O   UNL     1      -8.819  16.129  66.849  1.00  0.00    -0.190 OA 
HETATM   48  H   UNL     1      -8.506  17.000  67.059  1.00  0.00     0.000 HD 
BRANCH  46  49
HETATM   49  C   UNL     1      -9.831  16.117  69.085  1.00  0.00    -0.250 C  
HETATM   50  H   UNL     1      -8.380  16.317  70.379  1.00  0.00     0.000 HD 
HETATM   51  O   UNL     1      -8.476  16.137  69.451  1.00  0.00    -0.227 OA 
ENDBRANCH  46  49
ENDBRANCH  29  46
ENDBRANCH  26  29
ENDBRANCH  23  26
ENDBRANCH  21  23
ENDBRANCH  20  21
ENDBRANCH  19  20
ENDBRANCH  18  19
ENDBRANCH  16  18
ENDBRANCH  13  16
ENDBRANCH  10  13
ENDBRANCH   7  10
ENDBRANCH   4   7
ENDBRANCH   2   4
TORSDOF 17
ENDMDL
MODEL      193
REMARK 921   NORMALIZED FREE ENERGY PREDICTED BY IDOCK:   -4.60 KCAL/MOL
REMARK 922        TOTAL FREE ENERGY PREDICTED BY IDOCK:  -12.61 KCAL/MOL
REMARK 923 INTER-LIGAND FREE ENERGY PREDICTED BY IDOCK:   -9.42 KCAL/MOL
REMARK 924 INTRA-LIGAND FREE ENERGY PREDICTED BY IDOCK:   -3.19 KCAL/MOL
REMARK 927      BINDING AFFINITY PREDICTED BY RF-SCORE:    0.00 PKD
ROOT
HETATM    1  O   UNL     1     -11.663   6.615  69.263  1.00  0.00    -0.645 OA 
HETATM    2  C   UNL     1     -10.497   5.866  69.476  1.00  0.00    -0.278 C  
HETATM    3  H   UNL     1     -11.577   7.118  68.461  1.00  0.00     0.000 HD 
ENDROOT
BRANCH   2   4
HETATM    4  C   UNL     1     -10.635   5.053  70.775  1.00  0.00    -0.078 C  
HETATM    5  O   UNL     1      -9.401   4.455  71.081  1.00  0.00    -0.129 OA 
HETATM    6  H   UNL     1      -9.486   3.952  71.883  1.00  0.00     0.000 HD 
BRANCH   4   7
HETATM    7  C   UNL     1     -11.086   5.946  71.961  1.00  0.00    -0.274 C  
HETATM    8  H   UNL     1     -12.490   5.923  73.306  1.00  0.00     0.000 HD 
HETATM    9  O   UNL     1     -12.214   5.376  72.580  1.00  0.00    -0.115 OA 
BRANCH   7  10
HETATM   10  C   UNL     1      -9.963   6.117  73.018  1.00  0.00    -0.176 C  
HETATM   11  H   UNL     1      -9.572   5.401  74.769  1.00  0.00     0.000 HD 
HETATM   12  O   UNL     1     -10.260   5.296  74.122  1.00  0.00    -0.207 OA 
BRANCH  10  13
HETATM   13  C   UNL     1      -9.794   7.581  73.511  1.00  0.00    -0.317 C  
HETATM   14  H   UNL     1      -8.679   8.534  74.783  1.00  0.00     0.000 HD 
HETATM   15  O   UNL     1      -8.781   7.638  74.482  1.00  0.00    -0.195 OA 
BRANCH  13  16
HETATM   16  C   UNL     1      -9.435   8.548  72.407  1.00  0.00    -0.280 C  
HETATM   17  O   UNL     1      -8.261   8.747  72.136  1.00  0.00    -0.340 OA 
BRANCH  16  18
HETATM   18  O   UNL     1     -10.390   9.207  71.721  1.00  0.00    -0.344 OA 
BRANCH  18  19
HETATM   19 CA   UNL     1     -10.524   8.924  69.321  1.00  0.00    -0.187 Ca 
BRANCH  19  20
HETATM   20  O   UNL     1     -10.657   8.641  66.921  1.00  0.00    -0.287 OA 
BRANCH  20  21
HETATM   21  C   UNL     1      -9.969   9.634  66.331  1.00  0.00    -0.255 C  
HETATM   22  O   UNL     1     -10.361  10.034  65.248  1.00  0.00    -0.236 OA 
BRANCH  21  23
HETATM   23  C   UNL     1      -8.653  10.132  66.886  1.00  0.00    -0.126 C  
HETATM   24  H   UNL     1      -7.017   9.331  67.525  1.00  0.00     0.000 HD 
HETATM   25  O   UNL     1      -7.844   9.019  67.176  1.00  0.00    -0.098 OA 
BRANCH  23  26
HETATM   26  C   UNL     1      -8.779  11.016  68.164  1.00  0.00    -0.141 C  
HETATM   27  H   UNL     1      -8.439  10.817  70.062  1.00  0.00     0.000 HD 
HETATM   28  O   UNL     1      -8.362  10.278  69.284  1.00  0.00    -0.141 OA 
BRANCH  26  29
HETATM   29  C   UNL     1      -8.055  12.407  68.151  1.00  0.00    -0.163 C  
BRANCH  29  30
HETATM   30  O   UNL     1      -8.343  12.998  66.892  1.00  0.00    -0.136 OA 
BRANCH  30  31
HETATM   31  C   UNL     1      -9.289  14.047  66.906  1.00  0.00    -0.257 C  
HETATM   32  O   UNL     1      -9.665  14.346  68.240  1.00  0.00    -0.209 OA 
HETATM   33  C   UNL     1     -10.605  15.410  68.271  1.00  0.00    -0.253 C  
HETATM   34  H   UNL     1     -10.928  12.931  64.290  1.00  0.00     0.000 HD 
HETATM   35  C   UNL     1     -11.935  14.965  67.611  1.00  0.00    -0.145 C  
HETATM   36  O   UNL     1     -12.471  13.851  68.282  1.00  0.00    -0.440 OA 
HETATM   37  C   UNL     1     -11.647  14.598  66.140  1.00  0.00    -0.332 C  
HETATM   38  O   UNL     1     -10.173  13.234  64.780  1.00  0.00    -0.342 OA 
HETATM   39  H   UNL     1     -13.287  13.579  67.877  1.00  0.00     0.000 HD 
HETATM   40  O   UNL     1     -12.787  14.075  65.503  1.00  0.00    -0.615 OA 
HETATM   41  C   UNL     1     -10.520  13.552  66.106  1.00  0.00    -0.296 C  
HETATM   42  H   UNL     1     -12.609  13.849  64.597  1.00  0.00     0.000 HD 
BRANCH  33  43
HETATM   43  C   UNL     1     -10.797  15.830  69.737  1.00  0.00    -0.314 C  
HETATM   44  O   UNL     1     -10.668  14.734  70.602  1.00  0.00    -0.502 OA 
HETATM   45  H   UNL     1     -10.786  14.993  71.507  1.00  0.00     0.000 HD 
ENDBRANCH  33  43
ENDBRANCH  30  31
ENDBRANCH  29  30
BRANCH  29  46
HETATM   46  C   UNL     1      -6.515  12.382  68.452  1.00  0.00    -0.058 C  
HETATM   47  O   UNL     1      -5.943  11.157  68.054  1.00  0.00    -0.049 OA 
HETATM   48  H   UNL     1      -5.011  11.142  68.236  1.00  0.00     0.000 HD 
BRANCH  46  49
HETATM   49  C   UNL     1      -6.125  12.768  69.897  1.00  0.00    -0.122 C  
HETATM   50  H   UNL     1      -5.802  11.865  71.601  1.00  0.00     0.000 HD 
HETATM   51  O   UNL     1      -6.042  11.628  70.713  1.00  0.00    -0.342 OA 
ENDBRANCH  46  49
ENDBRANCH  29  46
ENDBRANCH  26  29
ENDBRANCH  23  26
ENDBRANCH  21  23
ENDBRANCH  20  21
ENDBRANCH  19  20
ENDBRANCH  18  19
ENDBRANCH  16  18
ENDBRANCH  13  16
ENDBRANCH  10  13
ENDBRANCH   7  10
ENDBRANCH   4   7
ENDBRANCH   2   4
TORSDOF 17
ENDMDL
MODEL      194
REMARK 921   NORMALIZED FREE ENERGY PREDICTED BY IDOCK:   -4.59 KCAL/MOL
REMARK 922        TOTAL FREE ENERGY PREDICTED BY IDOCK:  -12.59 KCAL/MOL
REMARK 923 INTER-LIGAND FREE ENERGY PREDICTED BY IDOCK:   -9.76 KCAL/MOL
REMARK 924 INTRA-LIGAND FREE ENERGY PREDICTED BY IDOCK:   -2.84 KCAL/MOL
REMARK 927      BINDING AFFINITY PREDICTED BY RF-SCORE:    0.00 PKD
ROOT
HETATM    1  O   UNL     1     -10.115   9.608  69.657  1.00  0.00    -0.196 OA 
HETATM    2  C   UNL     1      -9.094  10.402  69.117  1.00  0.00    -0.187 C  
HETATM    3  H   UNL     1     -10.316   9.900  70.538  1.00  0.00     0.000 HD 
ENDROOT
BRANCH   2   4
HETATM    4  C   UNL     1      -8.769   9.928  67.690  1.00  0.00    -0.121 C  
HETATM    5  O   UNL     1      -8.340   8.590  67.732  1.00  0.00    -0.127 OA 
HETATM    6  H   UNL     1      -8.139   8.298  66.850  1.00  0.00     0.000 HD 
BRANCH   4   7
HETATM    7  C   UNL     1     -10.002  10.048  66.755  1.00  0.00    -0.210 C  
HETATM    8  H   UNL     1     -11.665   9.084  66.462  1.00  0.00     0.000 HD 
HETATM    9  O   UNL     1     -10.910   9.011  67.035  1.00  0.00    -0.183 OA 
BRANCH   7  10
HETATM   10  C   UNL     1     -10.725  11.411  66.920  1.00  0.00    -0.265 C  
HETATM   11  H   UNL     1     -12.384  12.027  67.692  1.00  0.00     0.000 HD 
HETATM   12  O   UNL     1     -11.942  11.192  67.592  1.00  0.00    -0.613 OA 
BRANCH  10  13
HETATM   13  C   UNL     1     -11.017  12.123  65.570  1.00  0.00    -0.301 C  
HETATM   14  H   UNL     1     -12.576  12.784  64.619  1.00  0.00     0.000 HD 
HETATM   15  O   UNL     1     -12.397  12.348  65.444  1.00  0.00    -0.596 OA 
BRANCH  13  16
HETATM   16  C   UNL     1     -10.314  13.453  65.429  1.00  0.00    -0.312 C  
HETATM   17  O   UNL     1      -9.333  13.695  66.115  1.00  0.00    -0.195 OA 
BRANCH  16  18
HETATM   18  O   UNL     1     -10.758  14.387  64.564  1.00  0.00    -0.371 OA 
BRANCH  18  19
HETATM   19 CA   UNL     1     -10.465  16.728  65.104  1.00  0.00    -0.309 Ca 
BRANCH  19  20
HETATM   20  O   UNL     1     -10.172  19.068  65.643  1.00  0.00    -0.499 OA 
BRANCH  20  21
HETATM   21  C   UNL     1      -8.937  19.245  66.144  1.00  0.00    -0.255 C  
HETATM   22  O   UNL     1      -8.102  19.774  65.430  1.00  0.00    -0.285 OA 
BRANCH  21  23
HETATM   23  C   UNL     1      -8.526  18.658  67.476  1.00  0.00    -0.265 C  
HETATM   24  H   UNL     1      -7.311  19.141  68.896  1.00  0.00     0.000 HD 
HETATM   25  O   UNL     1      -7.569  19.509  68.060  1.00  0.00    -0.278 OA 
BRANCH  23  26
HETATM   26  C   UNL     1      -7.943  17.215  67.398  1.00  0.00    -0.180 C  
HETATM   27  H   UNL     1      -6.196  16.384  67.536  1.00  0.00     0.000 HD 
HETATM   28  O   UNL     1      -6.551  17.264  67.583  1.00  0.00    -0.146 OA 
BRANCH  26  29
HETATM   29  C   UNL     1      -8.562  16.136  68.353  1.00  0.00    -0.189 C  
BRANCH  29  30
HETATM   30  O   UNL     1      -9.240  16.849  69.378  1.00  0.00    -0.068 OA 
BRANCH  30  31
HETATM   31  C   UNL     1     -10.553  16.413  69.665  1.00  0.00    -0.307 C  
HETATM   32  O   UNL     1     -10.564  15.654  70.863  1.00  0.00    -0.204 OA 
HETATM   33  C   UNL     1     -11.880  15.222  71.172  1.00  0.00    -0.348 C  
HETATM   34  H   UNL     1     -11.265  15.714  66.537  1.00  0.00     0.000 HD 
HETATM   35  C   UNL     1     -12.376  14.216  70.101  1.00  0.00    -0.351 C  
HETATM   36  O   UNL     1     -11.522  13.099  70.040  1.00  0.00    -0.499 OA 
HETATM   37  C   UNL     1     -12.396  14.933  68.735  1.00  0.00     0.028 C  
HETATM   38  O   UNL     1     -10.989  16.255  67.267  1.00  0.00    -0.264 OA 
HETATM   39  H   UNL     1     -11.826  12.483  69.384  1.00  0.00     0.000 HD 
HETATM   40  O   UNL     1     -12.727  14.051  67.691  1.00  0.00    -0.302 OA 
HETATM   41  C   UNL     1     -11.003  15.530  68.474  1.00  0.00    -0.288 C  
HETATM   42  H   UNL     1     -12.739  14.493  66.850  1.00  0.00     0.000 HD 
BRANCH  33  43
HETATM   43  C   UNL     1     -11.858  14.607  72.580  1.00  0.00    -0.014 C  
HETATM   44  O   UNL     1     -13.056  14.859  73.265  1.00  0.00    -0.502 OA 
HETATM   45  H   UNL     1     -13.043  14.479  74.134  1.00  0.00     0.000 HD 
ENDBRANCH  33  43
ENDBRANCH  30  31
ENDBRANCH  29  30
BRANCH  29  46
HETATM   46  C   UNL     1      -7.559  15.078  68.936  1.00  0.00    -0.144 C  
HETATM   47  O   UNL     1      -8.193  13.835  69.128  1.00  0.00    -0.336 OA 
HETATM   48  H   UNL     1      -7.587  13.195  69.480  1.00  0.00     0.000 HD 
BRANCH  46  49
HETATM   49  C   UNL     1      -6.778  15.537  70.189  1.00  0.00     0.034 C  
HETATM   50  H   UNL     1      -4.970  15.367  70.912  1.00  0.00     0.000 HD 
HETATM   51  O   UNL     1      -5.450  15.086  70.141  1.00  0.00    -0.110 OA 
ENDBRANCH  46  49
ENDBRANCH  29  46
ENDBRANCH  26  29
ENDBRANCH  23  26
ENDBRANCH  21  23
ENDBRANCH  20  21
ENDBRANCH  19  20
ENDBRANCH  18  19
ENDBRANCH  16  18
ENDBRANCH  13  16
ENDBRANCH  10  13
ENDBRANCH   7  10
ENDBRANCH   4   7
ENDBRANCH   2   4
TORSDOF 17
ENDMDL
MODEL      195
REMARK 921   NORMALIZED FREE ENERGY PREDICTED BY IDOCK:   -4.59 KCAL/MOL
REMARK 922        TOTAL FREE ENERGY PREDICTED BY IDOCK:  -12.59 KCAL/MOL
REMARK 923 INTER-LIGAND FREE ENERGY PREDICTED BY IDOCK:  -10.10 KCAL/MOL
REMARK 924 INTRA-LIGAND FREE ENERGY PREDICTED BY IDOCK:   -2.48 KCAL/MOL
REMARK 927      BINDING AFFINITY PREDICTED BY RF-SCORE:    0.00 PKD
ROOT
HETATM    1  O   UNL     1     -11.241   3.318  64.284  1.00  0.00    -0.609 OA 
HETATM    2  C   UNL     1      -9.908   3.634  63.985  1.00  0.00    -0.178 C  
HETATM    3  H   UNL     1     -11.550   2.643  63.691  1.00  0.00     0.000 HD 
ENDROOT
BRANCH   2   4
HETATM    4  C   UNL     1      -9.407   4.726  64.946  1.00  0.00    -0.083 C  
HETATM    5  O   UNL     1      -9.536   4.274  66.271  1.00  0.00    -0.152 OA 
HETATM    6  H   UNL     1      -9.226   4.949  66.864  1.00  0.00     0.000 HD 
BRANCH   4   7
HETATM    7  C   UNL     1      -7.926   5.095  64.667  1.00  0.00    -0.102 C  
HETATM    8  H   UNL     1      -6.293   4.158  64.181  1.00  0.00     0.000 HD 
HETATM    9  O   UNL     1      -7.200   3.932  64.351  1.00  0.00    -0.056 OA 
BRANCH   7  10
HETATM   10  C   UNL     1      -7.791   6.107  63.498  1.00  0.00    -0.111 C  
HETATM   11  H   UNL     1      -7.347   6.021  61.621  1.00  0.00     0.000 HD 
HETATM   12  O   UNL     1      -7.429   5.401  62.336  1.00  0.00    -0.047 OA 
BRANCH  10  13
HETATM   13  C   UNL     1      -6.736   7.217  63.761  1.00  0.00    -0.052 C  
HETATM   14  H   UNL     1      -5.055   7.796  62.977  1.00  0.00     0.000 HD 
HETATM   15  O   UNL     1      -5.701   7.117  62.817  1.00  0.00    -0.039 OA 
BRANCH  13  16
HETATM   16  C   UNL     1      -7.303   8.615  63.682  1.00  0.00    -0.104 C  
HETATM   17  O   UNL     1      -6.547   9.572  63.609  1.00  0.00    -0.097 OA 
BRANCH  16  18
HETATM   18  O   UNL     1      -8.633   8.829  63.701  1.00  0.00    -0.152 OA 
BRANCH  18  19
HETATM   19 CA   UNL     1      -9.978   7.740  65.394  1.00  0.00    -0.410 Ca 
BRANCH  19  20
HETATM   20  O   UNL     1     -11.322   6.652  67.086  1.00  0.00    -0.343 OA 
BRANCH  20  21
HETATM   21  C   UNL     1     -10.777   6.892  68.291  1.00  0.00    -0.214 C  
HETATM   22  O   UNL     1     -11.165   6.225  69.235  1.00  0.00    -0.372 OA 
BRANCH  21  23
HETATM   23  C   UNL     1      -9.844   8.058  68.526  1.00  0.00    -0.174 C  
HETATM   24  H   UNL     1      -8.101   8.313  69.315  1.00  0.00     0.000 HD 
HETATM   25  O   UNL     1      -8.687   7.580  69.167  1.00  0.00    -0.135 OA 
BRANCH  23  26
HETATM   26  C   UNL     1     -10.452   9.217  69.373  1.00  0.00    -0.219 C  
HETATM   27  H   UNL     1      -9.804  10.543  70.630  1.00  0.00     0.000 HD 
HETATM   28  O   UNL     1      -9.433   9.837  70.114  1.00  0.00    -0.240 OA 
BRANCH  26  29
HETATM   29  C   UNL     1     -11.284  10.306  68.610  1.00  0.00    -0.208 C  
BRANCH  29  30
HETATM   30  O   UNL     1     -10.370  10.990  67.765  1.00  0.00    -0.178 OA 
BRANCH  30  31
HETATM   31  C   UNL     1     -10.874  12.141  67.117  1.00  0.00    -0.244 C  
HETATM   32  O   UNL     1     -11.412  11.792  65.853  1.00  0.00    -0.314 OA 
HETATM   33  C   UNL     1     -11.936  12.937  65.198  1.00  0.00    -0.414 C  
HETATM   34  H   UNL     1      -8.387  14.061  68.068  1.00  0.00     0.000 HD 
HETATM   35  C   UNL     1     -10.791  13.921  64.845  1.00  0.00    -0.405 C  
HETATM   36  O   UNL     1      -9.845  13.299  64.010  1.00  0.00    -0.741 OA 
HETATM   37  C   UNL     1     -10.114  14.366  66.159  1.00  0.00    -0.309 C  
HETATM   38  O   UNL     1      -9.118  13.465  68.178  1.00  0.00    -0.197 OA 
HETATM   39  H   UNL     1      -9.143  13.902  63.795  1.00  0.00     0.000 HD 
HETATM   40  O   UNL     1      -8.988  15.174  65.915  1.00  0.00    -0.463 OA 
HETATM   41  C   UNL     1      -9.681  13.113  66.937  1.00  0.00    -0.243 C  
HETATM   42  H   UNL     1      -8.572  15.448  66.723  1.00  0.00     0.000 HD 
BRANCH  33  43
HETATM   43  C   UNL     1     -12.697  12.462  63.949  1.00  0.00    -0.353 C  
HETATM   44  O   UNL     1     -12.511  13.343  62.874  1.00  0.00    -0.828 OA 
HETATM   45  H   UNL     1     -12.981  13.049  62.103  1.00  0.00     0.000 HD 
ENDBRANCH  33  43
ENDBRANCH  30  31
ENDBRANCH  29  30
BRANCH  29  46
HETATM   46  C   UNL     1     -12.109  11.293  69.508  1.00  0.00    -0.317 C  
HETATM   47  O   UNL     1     -11.264  12.228  70.139  1.00  0.00    -0.469 OA 
HETATM   48  H   UNL     1     -11.763  12.826  70.682  1.00  0.00     0.000 HD 
BRANCH  46  49
HETATM   49  C   UNL     1     -13.079  10.617  70.505  1.00  0.00    -0.110 C  
HETATM   50  H   UNL     1     -13.873  11.009  72.247  1.00  0.00     0.000 HD 
HETATM   51  O   UNL     1     -13.277  11.425  71.635  1.00  0.00    -0.419 OA 
ENDBRANCH  46  49
ENDBRANCH  29  46
ENDBRANCH  26  29
ENDBRANCH  23  26
ENDBRANCH  21  23
ENDBRANCH  20  21
ENDBRANCH  19  20
ENDBRANCH  18  19
ENDBRANCH  16  18
ENDBRANCH  13  16
ENDBRANCH  10  13
ENDBRANCH   7  10
ENDBRANCH   4   7
ENDBRANCH   2   4
TORSDOF 17
ENDMDL
MODEL      196
REMARK 921   NORMALIZED FREE ENERGY PREDICTED BY IDOCK:   -4.58 KCAL/MOL
REMARK 922        TOTAL FREE ENERGY PREDICTED BY IDOCK:  -12.58 KCAL/MOL
REMARK 923 INTER-LIGAND FREE ENERGY PREDICTED BY IDOCK:  -10.28 KCAL/MOL
REMARK 924 INTRA-LIGAND FREE ENERGY PREDICTED BY IDOCK:   -2.30 KCAL/MOL
REMARK 927      BINDING AFFINITY PREDICTED BY RF-SCORE:    0.00 PKD
ROOT
HETATM    1  O   UNL     1     -10.004   5.812  65.825  1.00  0.00    -0.382 OA 
HETATM    2  C   UNL     1     -10.501   5.233  67.000  1.00  0.00    -0.229 C  
HETATM    3  H   UNL     1     -10.623   5.679  65.117  1.00  0.00     0.000 HD 
ENDROOT
BRANCH   2   4
HETATM    4  C   UNL     1      -9.499   5.448  68.147  1.00  0.00    -0.118 C  
HETATM    5  O   UNL     1      -8.206   5.587  67.614  1.00  0.00    -0.101 OA 
HETATM    6  H   UNL     1      -7.587   5.720  68.322  1.00  0.00     0.000 HD 
BRANCH   4   7
HETATM    7  C   UNL     1      -9.851   6.706  68.984  1.00  0.00    -0.144 C  
HETATM    8  H   UNL     1     -10.961   8.289  68.776  1.00  0.00     0.000 HD 
HETATM    9  O   UNL     1     -10.745   7.519  68.263  1.00  0.00    -0.167 OA 
BRANCH   7  10
HETATM   10  C   UNL     1     -10.493   6.335  70.347  1.00  0.00    -0.222 C  
HETATM   11  H   UNL     1     -12.284   6.189  71.054  1.00  0.00     0.000 HD 
HETATM   12  O   UNL     1     -11.892   6.416  70.219  1.00  0.00    -0.396 OA 
BRANCH  10  13
HETATM   13  C   UNL     1     -10.041   7.255  71.515  1.00  0.00    -0.186 C  
HETATM   14  H   UNL     1      -8.524   8.400  71.918  1.00  0.00     0.000 HD 
HETATM   15  O   UNL     1      -8.801   7.837  71.204  1.00  0.00    -0.133 OA 
BRANCH  13  16
HETATM   16  C   UNL     1     -11.015   8.370  71.811  1.00  0.00    -0.291 C  
HETATM   17  O   UNL     1     -12.016   8.140  72.473  1.00  0.00    -0.376 OA 
BRANCH  16  18
HETATM   18  O   UNL     1     -10.807   9.619  71.349  1.00  0.00    -0.340 OA 
BRANCH  18  19
HETATM   19 CA   UNL     1     -10.227   9.932  69.020  1.00  0.00    -0.159 Ca 
BRANCH  19  20
HETATM   20  O   UNL     1      -9.648  10.243  66.691  1.00  0.00    -0.165 OA 
BRANCH  20  21
HETATM   21  C   UNL     1     -10.125  11.432  66.283  1.00  0.00    -0.224 C  
HETATM   22  O   UNL     1     -10.250  11.615  65.084  1.00  0.00    -0.250 OA 
BRANCH  21  23
HETATM   23  C   UNL     1     -10.340  12.578  67.246  1.00  0.00    -0.220 C  
HETATM   24  H   UNL     1     -10.992  12.778  69.052  1.00  0.00     0.000 HD 
HETATM   25  O   UNL     1     -10.857  12.058  68.447  1.00  0.00    -0.212 OA 
BRANCH  23  26
HETATM   26  C   UNL     1     -11.293  13.696  66.724  1.00  0.00    -0.328 C  
HETATM   27  H   UNL     1     -12.858  14.639  67.373  1.00  0.00     0.000 HD 
HETATM   28  O   UNL     1     -12.278  13.957  67.691  1.00  0.00    -0.345 OA 
BRANCH  26  29
HETATM   29  C   UNL     1     -10.638  15.043  66.263  1.00  0.00    -0.307 C  
BRANCH  29  30
HETATM   30  O   UNL     1     -10.966  16.008  67.252  1.00  0.00    -0.300 OA 
BRANCH  30  31
HETATM   31  C   UNL     1      -9.874  16.696  67.828  1.00  0.00    -0.252 C  
HETATM   32  O   UNL     1      -9.118  17.342  66.818  1.00  0.00    -0.243 OA 
HETATM   33  C   UNL     1      -8.025  18.050  67.385  1.00  0.00    -0.221 C  
HETATM   34  H   UNL     1      -9.201  14.315  69.985  1.00  0.00     0.000 HD 
HETATM   35  C   UNL     1      -7.015  17.056  68.014  1.00  0.00    -0.165 C  
HETATM   36  O   UNL     1      -6.535  16.159  67.043  1.00  0.00    -0.236 OA 
HETATM   37  C   UNL     1      -7.736  16.276  69.133  1.00  0.00    -0.229 C  
HETATM   38  O   UNL     1      -9.735  14.965  69.546  1.00  0.00    -0.145 OA 
HETATM   39  H   UNL     1      -5.916  15.550  67.429  1.00  0.00     0.000 HD 
HETATM   40  O   UNL     1      -6.916  15.272  69.678  1.00  0.00    -0.172 OA 
HETATM   41  C   UNL     1      -9.004  15.633  68.546  1.00  0.00    -0.192 C  
HETATM   42  H   UNL     1      -7.360  14.792  70.367  1.00  0.00     0.000 HD 
BRANCH  33  43
HETATM   43  C   UNL     1      -7.387  18.902  66.276  1.00  0.00    -0.254 C  
HETATM   44  O   UNL     1      -6.935  18.103  65.216  1.00  0.00    -0.484 OA 
HETATM   45  H   UNL     1      -6.541  18.629  64.531  1.00  0.00     0.000 HD 
ENDBRANCH  33  43
ENDBRANCH  30  31
ENDBRANCH  29  30
BRANCH  29  46
HETATM   46  C   UNL     1     -11.010  15.529  64.818  1.00  0.00    -0.399 C  
HETATM   47  O   UNL     1     -10.873  16.926  64.704  1.00  0.00    -0.864 OA 
HETATM   48  H   UNL     1     -11.098  17.220  63.830  1.00  0.00     0.000 HD 
BRANCH  46  49
HETATM   49  C   UNL     1     -12.375  15.030  64.292  1.00  0.00    -0.226 C  
HETATM   50  H   UNL     1     -13.077  13.486  63.319  1.00  0.00     0.000 HD 
HETATM   51  O   UNL     1     -12.238  13.793  63.643  1.00  0.00    -0.600 OA 
ENDBRANCH  46  49
ENDBRANCH  29  46
ENDBRANCH  26  29
ENDBRANCH  23  26
ENDBRANCH  21  23
ENDBRANCH  20  21
ENDBRANCH  19  20
ENDBRANCH  18  19
ENDBRANCH  16  18
ENDBRANCH  13  16
ENDBRANCH  10  13
ENDBRANCH   7  10
ENDBRANCH   4   7
ENDBRANCH   2   4
TORSDOF 17
ENDMDL
MODEL      197
REMARK 921   NORMALIZED FREE ENERGY PREDICTED BY IDOCK:   -4.58 KCAL/MOL
REMARK 922        TOTAL FREE ENERGY PREDICTED BY IDOCK:  -12.58 KCAL/MOL
REMARK 923 INTER-LIGAND FREE ENERGY PREDICTED BY IDOCK:  -10.71 KCAL/MOL
REMARK 924 INTRA-LIGAND FREE ENERGY PREDICTED BY IDOCK:   -1.87 KCAL/MOL
REMARK 927      BINDING AFFINITY PREDICTED BY RF-SCORE:    0.00 PKD
ROOT
HETATM    1  O   UNL     1      -9.390   9.340  64.865  1.00  0.00    -0.416 OA 
HETATM    2  C   UNL     1      -8.224   8.593  65.080  1.00  0.00    -0.151 C  
HETATM    3  H   UNL     1      -9.962   8.875  64.266  1.00  0.00     0.000 HD 
ENDROOT
BRANCH   2   4
HETATM    4  C   UNL     1      -7.298   9.348  66.050  1.00  0.00    -0.092 C  
HETATM    5  O   UNL     1      -7.796  10.646  66.253  1.00  0.00    -0.138 OA 
HETATM    6  H   UNL     1      -7.224  11.112  66.852  1.00  0.00     0.000 HD 
BRANCH   4   7
HETATM    7  C   UNL     1      -7.187   8.618  67.415  1.00  0.00    -0.080 C  
HETATM    8  H   UNL     1      -6.417   8.980  69.164  1.00  0.00     0.000 HD 
HETATM    9  O   UNL     1      -6.486   9.427  68.328  1.00  0.00    -0.053 OA 
BRANCH   7  10
HETATM   10  C   UNL     1      -8.580   8.279  68.007  1.00  0.00    -0.132 C  
HETATM   11  H   UNL     1      -9.608   8.813  69.553  1.00  0.00     0.000 HD 
HETATM   12  O   UNL     1      -8.754   9.021  69.190  1.00  0.00    -0.131 OA 
BRANCH  10  13
HETATM   13  C   UNL     1      -8.767   6.770  68.327  1.00  0.00    -0.123 C  
HETATM   14  H   UNL     1      -8.735   5.637  69.904  1.00  0.00     0.000 HD 
HETATM   15  O   UNL     1      -8.621   6.559  69.708  1.00  0.00    -0.133 OA 
BRANCH  13  16
HETATM   16  C   UNL     1     -10.116   6.231  67.915  1.00  0.00    -0.145 C  
HETATM   17  O   UNL     1     -10.183   5.196  67.271  1.00  0.00    -0.193 OA 
BRANCH  16  18
HETATM   18  O   UNL     1     -11.253   6.881  68.235  1.00  0.00    -0.115 OA 
BRANCH  18  19
HETATM   19 CA   UNL     1     -11.149   9.233  68.795  1.00  0.00    -0.219 Ca 
BRANCH  19  20
HETATM   20  O   UNL     1     -11.045  11.585  69.355  1.00  0.00    -0.247 OA 
BRANCH  20  21
HETATM   21  C   UNL     1     -10.355  12.227  68.397  1.00  0.00    -0.224 C  
HETATM   22  O   UNL     1      -9.155  12.371  68.557  1.00  0.00    -0.163 OA 
BRANCH  21  23
HETATM   23  C   UNL     1     -11.047  12.909  67.238  1.00  0.00    -0.274 C  
HETATM   24  H   UNL     1     -12.434  12.451  65.976  1.00  0.00     0.000 HD 
HETATM   25  O   UNL     1     -11.999  12.022  66.704  1.00  0.00    -0.614 OA 
BRANCH  23  26
HETATM   26  C   UNL     1     -10.094  13.379  66.097  1.00  0.00    -0.302 C  
HETATM   27  H   UNL     1      -9.438  12.667  64.417  1.00  0.00     0.000 HD 
HETATM   28  O   UNL     1     -10.019  12.381  65.112  1.00  0.00    -0.259 OA 
BRANCH  26  29
HETATM   29  C   UNL     1     -10.405  14.760  65.423  1.00  0.00    -0.386 C  
BRANCH  29  30
HETATM   30  O   UNL     1     -10.493  15.710  66.476  1.00  0.00    -0.290 OA 
BRANCH  30  31
HETATM   31  C   UNL     1      -9.442  16.652  66.544  1.00  0.00    -0.266 C  
HETATM   32  O   UNL     1      -8.743  16.514  67.770  1.00  0.00    -0.192 OA 
HETATM   33  C   UNL     1      -7.673  17.445  67.845  1.00  0.00    -0.199 C  
HETATM   34  H   UNL     1     -11.203  19.076  65.204  1.00  0.00     0.000 HD 
HETATM   35  C   UNL     1      -8.229  18.891  67.906  1.00  0.00    -0.277 C  
HETATM   36  O   UNL     1      -9.066  19.052  69.025  1.00  0.00    -0.303 OA 
HETATM   37  C   UNL     1      -9.029  19.157  66.614  1.00  0.00    -0.328 C  
HETATM   38  O   UNL     1     -10.805  18.216  65.256  1.00  0.00    -0.628 OA 
HETATM   39  H   UNL     1      -9.406  19.938  69.062  1.00  0.00     0.000 HD 
HETATM   40  O   UNL     1      -9.662  20.413  66.644  1.00  0.00    -0.542 OA 
HETATM   41  C   UNL     1     -10.092  18.056  66.458  1.00  0.00    -0.379 C  
HETATM   42  H   UNL     1     -10.155  20.576  65.848  1.00  0.00     0.000 HD 
BRANCH  33  43
HETATM   43  C   UNL     1      -6.828  17.096  69.081  1.00  0.00    -0.236 C  
HETATM   44  O   UNL     1      -5.785  18.016  69.260  1.00  0.00    -0.196 OA 
HETATM   45  H   UNL     1      -5.263  17.801  70.024  1.00  0.00     0.000 HD 
ENDBRANCH  33  43
ENDBRANCH  30  31
ENDBRANCH  29  30
BRANCH  29  46
HETATM   46  C   UNL     1     -11.663  14.799  64.486  1.00  0.00    -0.391 C  
HETATM   47  O   UNL     1     -11.884  16.100  63.991  1.00  0.00    -1.227 OA 
HETATM   48  H   UNL     1     -12.645  16.124  63.425  1.00  0.00     0.000 HD 
BRANCH  46  49
HETATM   49  C   UNL     1     -12.945  14.176  65.086  1.00  0.00    -0.177 C  
HETATM   50  H   UNL     1     -14.061  12.598  64.795  1.00  0.00     0.000 HD 
HETATM   51  O   UNL     1     -13.274  12.981  64.427  1.00  0.00    -0.484 OA 
ENDBRANCH  46  49
ENDBRANCH  29  46
ENDBRANCH  26  29
ENDBRANCH  23  26
ENDBRANCH  21  23
ENDBRANCH  20  21
ENDBRANCH  19  20
ENDBRANCH  18  19
ENDBRANCH  16  18
ENDBRANCH  13  16
ENDBRANCH  10  13
ENDBRANCH   7  10
ENDBRANCH   4   7
ENDBRANCH   2   4
TORSDOF 17
ENDMDL
MODEL      198
REMARK 921   NORMALIZED FREE ENERGY PREDICTED BY IDOCK:   -4.58 KCAL/MOL
REMARK 922        TOTAL FREE ENERGY PREDICTED BY IDOCK:  -12.57 KCAL/MOL
REMARK 923 INTER-LIGAND FREE ENERGY PREDICTED BY IDOCK:  -11.17 KCAL/MOL
REMARK 924 INTRA-LIGAND FREE ENERGY PREDICTED BY IDOCK:   -1.41 KCAL/MOL
REMARK 927      BINDING AFFINITY PREDICTED BY RF-SCORE:    0.00 PKD
ROOT
HETATM    1  O   UNL     1     -13.860   9.536  72.943  1.00  0.00    -0.713 OA 
HETATM    2  C   UNL     1     -12.669   8.836  72.704  1.00  0.00    -0.219 C  
HETATM    3  H   UNL     1     -13.929   9.742  73.868  1.00  0.00     0.000 HD 
ENDROOT
BRANCH   2   4
HETATM    4  C   UNL     1     -12.557   8.502  71.206  1.00  0.00    -0.226 C  
HETATM    5  O   UNL     1     -13.196   9.506  70.458  1.00  0.00    -0.531 OA 
HETATM    6  H   UNL     1     -13.127   9.299  69.533  1.00  0.00     0.000 HD 
BRANCH   4   7
HETATM    7  C   UNL     1     -11.076   8.386  70.757  1.00  0.00    -0.258 C  
HETATM    8  H   UNL     1      -9.369   7.951  71.580  1.00  0.00     0.000 HD 
HETATM    9  O   UNL     1     -10.276   8.022  71.855  1.00  0.00    -0.191 OA 
BRANCH   7  10
HETATM   10  C   UNL     1     -10.893   7.337  69.628  1.00  0.00    -0.222 C  
HETATM   11  H   UNL     1     -10.998   5.414  69.479  1.00  0.00     0.000 HD 
HETATM   12  O   UNL     1     -11.110   6.056  70.170  1.00  0.00    -0.338 OA 
BRANCH  10  13
HETATM   13  C   UNL     1      -9.485   7.373  68.973  1.00  0.00    -0.148 C  
HETATM   14  H   UNL     1      -7.811   6.404  69.143  1.00  0.00     0.000 HD 
HETATM   15  O   UNL     1      -8.672   6.382  69.545  1.00  0.00    -0.131 OA 
BRANCH  13  16
HETATM   16  C   UNL     1      -9.513   7.147  67.479  1.00  0.00    -0.124 C  
HETATM   17  O   UNL     1      -8.534   6.676  66.920  1.00  0.00    -0.112 OA 
BRANCH  16  18
HETATM   18  O   UNL     1     -10.598   7.467  66.746  1.00  0.00    -0.310 OA 
BRANCH  18  19
HETATM   19 CA   UNL     1     -10.417   9.199  65.066  1.00  0.00    -0.388 Ca 
BRANCH  19  20
HETATM   20  O   UNL     1     -10.236  10.931  63.386  1.00  0.00    -0.338 OA 
BRANCH  20  21
HETATM   21  C   UNL     1     -10.694  12.084  63.903  1.00  0.00    -0.397 C  
HETATM   22  O   UNL     1      -9.966  13.061  63.853  1.00  0.00    -0.311 OA 
BRANCH  21  23
HETATM   23  C   UNL     1     -11.989  12.149  64.681  1.00  0.00    -0.323 C  
HETATM   24  H   UNL     1     -13.872  12.116  64.260  1.00  0.00     0.000 HD 
HETATM   25  O   UNL     1     -13.059  12.075  63.771  1.00  0.00    -0.730 OA 
BRANCH  23  26
HETATM   26  C   UNL     1     -12.156  13.426  65.560  1.00  0.00    -0.428 C  
HETATM   27  H   UNL     1     -13.366  14.939  65.644  1.00  0.00     0.000 HD 
HETATM   28  O   UNL     1     -13.265  14.161  65.108  1.00  0.00    -0.743 OA 
BRANCH  26  29
HETATM   29  C   UNL     1     -12.256  13.224  67.111  1.00  0.00    -0.227 C  
BRANCH  29  30
HETATM   30  O   UNL     1     -11.539  14.298  67.703  1.00  0.00    -0.328 OA 
BRANCH  30  31
HETATM   31  C   UNL     1     -10.237  14.519  67.200  1.00  0.00    -0.260 C  
HETATM   32  O   UNL     1      -9.271  14.171  68.178  1.00  0.00    -0.181 OA 
HETATM   33  C   UNL     1      -7.957  14.374  67.680  1.00  0.00    -0.179 C  
HETATM   34  H   UNL     1     -11.030  17.332  65.706  1.00  0.00     0.000 HD 
HETATM   35  C   UNL     1      -7.704  15.885  67.444  1.00  0.00    -0.175 C  
HETATM   36  O   UNL     1      -7.865  16.606  68.642  1.00  0.00    -0.209 OA 
HETATM   37  C   UNL     1      -8.717  16.387  66.394  1.00  0.00    -0.319 C  
HETATM   38  O   UNL     1     -11.093  16.407  65.909  1.00  0.00    -0.058 OA 
HETATM   39  H   UNL     1      -7.710  17.532  68.497  1.00  0.00     0.000 HD 
HETATM   40  O   UNL     1      -8.625  17.779  66.208  1.00  0.00    -0.384 OA 
HETATM   41  C   UNL     1     -10.135  16.029  66.868  1.00  0.00    -0.265 C  
HETATM   42  H   UNL     1      -9.249  18.087  65.561  1.00  0.00     0.000 HD 
BRANCH  33  43
HETATM   43  C   UNL     1      -6.969  13.772  68.692  1.00  0.00    -0.102 C  
HETATM   44  O   UNL     1      -7.324  14.100  70.008  1.00  0.00    -0.360 OA 
HETATM   45  H   UNL     1      -6.714  13.728  70.633  1.00  0.00     0.000 HD 
ENDBRANCH  33  43
ENDBRANCH  30  31
ENDBRANCH  29  30
BRANCH  29  46
HETATM   46  C   UNL     1     -11.783  11.829  67.654  1.00  0.00    -0.250 C  
HETATM   47  O   UNL     1     -12.183  11.646  68.992  1.00  0.00    -0.321 OA 
HETATM   48  H   UNL     1     -11.898  10.803  69.321  1.00  0.00     0.000 HD 
BRANCH  46  49
HETATM   49  C   UNL     1     -10.283  11.520  67.445  1.00  0.00    -0.203 C  
HETATM   50  H   UNL     1      -8.866  10.530  68.358  1.00  0.00     0.000 HD 
HETATM   51  O   UNL     1      -9.789  10.720  68.487  1.00  0.00    -0.163 OA 
ENDBRANCH  46  49
ENDBRANCH  29  46
ENDBRANCH  26  29
ENDBRANCH  23  26
ENDBRANCH  21  23
ENDBRANCH  20  21
ENDBRANCH  19  20
ENDBRANCH  18  19
ENDBRANCH  16  18
ENDBRANCH  13  16
ENDBRANCH  10  13
ENDBRANCH   7  10
ENDBRANCH   4   7
ENDBRANCH   2   4
TORSDOF 17
ENDMDL
MODEL      199
REMARK 921   NORMALIZED FREE ENERGY PREDICTED BY IDOCK:   -4.56 KCAL/MOL
REMARK 922        TOTAL FREE ENERGY PREDICTED BY IDOCK:  -12.53 KCAL/MOL
REMARK 923 INTER-LIGAND FREE ENERGY PREDICTED BY IDOCK:  -10.85 KCAL/MOL
REMARK 924 INTRA-LIGAND FREE ENERGY PREDICTED BY IDOCK:   -1.69 KCAL/MOL
REMARK 927      BINDING AFFINITY PREDICTED BY RF-SCORE:    0.00 PKD
ROOT
HETATM    1  O   UNL     1      -8.589  14.988  69.486  1.00  0.00    -0.384 OA 
HETATM    2  C   UNL     1      -7.385  15.324  68.852  1.00  0.00    -0.146 C  
HETATM    3  H   UNL     1      -9.037  14.317  68.985  1.00  0.00     0.000 HD 
ENDROOT
BRANCH   2   4
HETATM    4  C   UNL     1      -6.658  16.411  69.662  1.00  0.00    -0.180 C  
HETATM    5  O   UNL     1      -5.437  15.900  70.135  1.00  0.00    -0.140 OA 
HETATM    6  H   UNL     1      -4.989  16.571  70.636  1.00  0.00     0.000 HD 
BRANCH   4   7
HETATM    7  C   UNL     1      -6.392  17.678  68.807  1.00  0.00    -0.200 C  
HETATM    8  H   UNL     1      -5.006  18.317  67.603  1.00  0.00     0.000 HD 
HETATM    9  O   UNL     1      -5.168  17.541  68.126  1.00  0.00    -0.135 OA 
BRANCH   7  10
HETATM   10  C   UNL     1      -7.521  17.927  67.771  1.00  0.00    -0.206 C  
HETATM   11  H   UNL     1      -7.635  18.599  65.964  1.00  0.00     0.000 HD 
HETATM   12  O   UNL     1      -6.943  18.446  66.598  1.00  0.00    -0.191 OA 
BRANCH  10  13
HETATM   13  C   UNL     1      -8.614  18.911  68.272  1.00  0.00    -0.330 C  
HETATM   14  H   UNL     1      -9.107  20.764  67.966  1.00  0.00     0.000 HD 
HETATM   15  O   UNL     1      -8.438  20.162  67.660  1.00  0.00    -0.319 OA 
BRANCH  13  16
HETATM   16  C   UNL     1     -10.021  18.444  67.980  1.00  0.00    -0.351 C  
HETATM   17  O   UNL     1     -10.829  19.223  67.499  1.00  0.00    -0.473 OA 
BRANCH  16  18
HETATM   18  O   UNL     1     -10.406  17.182  68.252  1.00  0.00    -0.313 OA 
BRANCH  18  19
HETATM   19 CA   UNL     1     -10.419  15.544  66.470  1.00  0.00    -0.255 Ca 
BRANCH  19  20
HETATM   20  O   UNL     1     -10.432  13.906  64.689  1.00  0.00    -0.425 OA 
BRANCH  20  21
HETATM   21  C   UNL     1     -11.022  12.785  65.138  1.00  0.00    -0.293 C  
HETATM   22  O   UNL     1     -11.643  12.107  64.337  1.00  0.00    -0.332 OA 
BRANCH  21  23
HETATM   23  C   UNL     1     -11.077  12.448  66.611  1.00  0.00    -0.289 C  
HETATM   24  H   UNL     1     -12.068  11.221  67.725  1.00  0.00     0.000 HD 
HETATM   25  O   UNL     1     -12.033  11.433  66.799  1.00  0.00    -0.383 OA 
BRANCH  23  26
HETATM   26  C   UNL     1     -11.423  13.650  67.541  1.00  0.00    -0.329 C  
HETATM   27  H   UNL     1     -12.779  15.034  67.621  1.00  0.00     0.000 HD 
HETATM   28  O   UNL     1     -12.569  14.302  67.054  1.00  0.00    -0.179 OA 
BRANCH  26  29
HETATM   29  C   UNL     1     -11.599  13.350  69.070  1.00  0.00    -0.312 C  
BRANCH  29  30
HETATM   30  O   UNL     1     -12.016  11.996  69.168  1.00  0.00    -0.305 OA 
BRANCH  30  31
HETATM   31  C   UNL     1     -11.290  11.193  70.076  1.00  0.00    -0.243 C  
HETATM   32  O   UNL     1     -10.324  10.422  69.380  1.00  0.00    -0.213 OA 
HETATM   33  C   UNL     1      -9.576   9.622  70.282  1.00  0.00    -0.254 C  
HETATM   34  H   UNL     1     -13.922  10.427  71.881  1.00  0.00     0.000 HD 
HETATM   35  C   UNL     1     -10.492   8.553  70.932  1.00  0.00    -0.203 C  
HETATM   36  O   UNL     1     -11.067   7.730  69.947  1.00  0.00    -0.366 OA 
HETATM   37  C   UNL     1     -11.603   9.281  71.717  1.00  0.00    -0.388 C  
HETATM   38  O   UNL     1     -13.295  10.999  71.456  1.00  0.00    -0.321 OA 
HETATM   39  H   UNL     1     -11.628   7.076  70.345  1.00  0.00     0.000 HD 
HETATM   40  O   UNL     1     -12.544   8.377  72.244  1.00  0.00    -0.352 OA 
HETATM   41  C   UNL     1     -12.314  10.260  70.768  1.00  0.00    -0.350 C  
HETATM   42  H   UNL     1     -13.228   8.825  72.727  1.00  0.00     0.000 HD 
BRANCH  33  43
HETATM   43  C   UNL     1      -8.412   8.991  69.502  1.00  0.00    -0.125 C  
HETATM   44  O   UNL     1      -8.280   9.565  68.230  1.00  0.00    -0.111 OA 
HETATM   45  H   UNL     1      -7.561   9.176  67.748  1.00  0.00     0.000 HD 
ENDBRANCH  33  43
ENDBRANCH  30  31
ENDBRANCH  29  30
BRANCH  29  46
HETATM   46  C   UNL     1     -12.553  14.319  69.854  1.00  0.00    -0.165 C  
HETATM   47  O   UNL     1     -12.412  15.645  69.399  1.00  0.00    -0.580 OA 
HETATM   48  H   UNL     1     -12.988  16.231  69.873  1.00  0.00     0.000 HD 
BRANCH  46  49
HETATM   49  C   UNL     1     -12.466  14.218  71.394  1.00  0.00    -0.360 C  
HETATM   50  H   UNL     1     -13.138  15.192  72.951  1.00  0.00     0.000 HD 
HETATM   51  O   UNL     1     -13.191  15.254  72.004  1.00  0.00    -0.348 OA 
ENDBRANCH  46  49
ENDBRANCH  29  46
ENDBRANCH  26  29
ENDBRANCH  23  26
ENDBRANCH  21  23
ENDBRANCH  20  21
ENDBRANCH  19  20
ENDBRANCH  18  19
ENDBRANCH  16  18
ENDBRANCH  13  16
ENDBRANCH  10  13
ENDBRANCH   7  10
ENDBRANCH   4   7
ENDBRANCH   2   4
TORSDOF 17
ENDMDL
MODEL      200
REMARK 921   NORMALIZED FREE ENERGY PREDICTED BY IDOCK:   -4.55 KCAL/MOL
REMARK 922        TOTAL FREE ENERGY PREDICTED BY IDOCK:  -12.51 KCAL/MOL
REMARK 923 INTER-LIGAND FREE ENERGY PREDICTED BY IDOCK:  -10.12 KCAL/MOL
REMARK 924 INTRA-LIGAND FREE ENERGY PREDICTED BY IDOCK:   -2.40 KCAL/MOL
REMARK 927      BINDING AFFINITY PREDICTED BY RF-SCORE:    0.00 PKD
ROOT
HETATM    1  O   UNL     1      -9.841   6.022  66.058  1.00  0.00    -0.368 OA 
HETATM    2  C   UNL     1     -10.503   5.443  67.150  1.00  0.00    -0.235 C  
HETATM    3  H   UNL     1     -10.409   6.011  65.297  1.00  0.00     0.000 HD 
ENDROOT
BRANCH   2   4
HETATM    4  C   UNL     1      -9.583   5.460  68.382  1.00  0.00    -0.129 C  
HETATM    5  O   UNL     1      -8.245   5.543  67.961  1.00  0.00    -0.100 OA 
HETATM    6  H   UNL     1      -7.676   5.554  68.723  1.00  0.00     0.000 HD 
BRANCH   4   7
HETATM    7  C   UNL     1      -9.906   6.655  69.318  1.00  0.00    -0.149 C  
HETATM    8  H   UNL     1     -10.903   8.321  69.207  1.00  0.00     0.000 HD 
HETATM    9  O   UNL     1     -10.706   7.589  68.634  1.00  0.00    -0.171 OA 
BRANCH   7  10
HETATM   10  C   UNL     1     -10.647   6.202  70.604  1.00  0.00    -0.249 C  
HETATM   11  H   UNL     1     -12.477   6.166  71.222  1.00  0.00     0.000 HD 
HETATM   12  O   UNL     1     -12.023   6.444  70.434  1.00  0.00    -0.349 OA 
BRANCH  10  13
HETATM   13  C   UNL     1     -10.162   6.931  71.887  1.00  0.00    -0.188 C  
HETATM   14  H   UNL     1      -8.487   7.627  72.581  1.00  0.00     0.000 HD 
HETATM   15  O   UNL     1      -8.783   7.181  71.796  1.00  0.00    -0.118 OA 
BRANCH  13  16
HETATM   16  C   UNL     1     -10.858   8.250  72.127  1.00  0.00    -0.320 C  
HETATM   17  O   UNL     1     -11.924   8.273  72.723  1.00  0.00    -0.377 OA 
BRANCH  16  18
HETATM   18  O   UNL     1     -10.329   9.407  71.683  1.00  0.00    -0.309 OA 
BRANCH  18  19
HETATM   19 CA   UNL     1      -9.671   9.589  69.361  1.00  0.00    -0.146 Ca 
BRANCH  19  20
HETATM   20  O   UNL     1      -9.014   9.769  67.039  1.00  0.00    -0.136 OA 
BRANCH  20  21
HETATM   21  C   UNL     1      -9.879  10.582  66.407  1.00  0.00    -0.210 C  
HETATM   22  O   UNL     1     -10.046  10.417  65.211  1.00  0.00    -0.293 OA 
BRANCH  21  23
HETATM   23  C   UNL     1     -10.500  11.775  67.097  1.00  0.00    -0.220 C  
HETATM   24  H   UNL     1     -11.484  12.087  68.728  1.00  0.00     0.000 HD 
HETATM   25  O   UNL     1     -11.094  11.337  68.295  1.00  0.00    -0.202 OA 
BRANCH  23  26
HETATM   26  C   UNL     1     -11.566  12.534  66.249  1.00  0.00    -0.394 C  
HETATM   27  H   UNL     1     -13.161  13.583  66.590  1.00  0.00     0.000 HD 
HETATM   28  O   UNL     1     -12.512  13.120  67.107  1.00  0.00    -0.215 OA 
BRANCH  26  29
HETATM   29  C   UNL     1     -11.045  13.606  65.230  1.00  0.00    -0.301 C  
BRANCH  29  30
HETATM   30  O   UNL     1     -10.955  14.830  65.945  1.00  0.00    -0.320 OA 
BRANCH  30  31
HETATM   31  C   UNL     1      -9.689  15.458  65.932  1.00  0.00    -0.357 C  
HETATM   32  O   UNL     1      -8.885  14.957  66.986  1.00  0.00    -0.205 OA 
HETATM   33  C   UNL     1      -7.604  15.569  66.975  1.00  0.00    -0.193 C  
HETATM   34  H   UNL     1     -10.902  18.426  65.227  1.00  0.00     0.000 HD 
HETATM   35  C   UNL     1      -7.732  17.079  67.304  1.00  0.00    -0.171 C  
HETATM   36  O   UNL     1      -8.324  17.260  68.568  1.00  0.00    -0.252 OA 
HETATM   37  C   UNL     1      -8.609  17.738  66.219  1.00  0.00    -0.185 C  
HETATM   38  O   UNL     1     -10.749  17.497  65.105  1.00  0.00    -0.673 OA 
HETATM   39  H   UNL     1      -8.402  18.185  68.769  1.00  0.00     0.000 HD 
HETATM   40  O   UNL     1      -8.866  19.090  66.510  1.00  0.00    -0.307 OA 
HETATM   41  C   UNL     1      -9.940  16.974  66.131  1.00  0.00    -0.298 C  
HETATM   42  H   UNL     1      -9.405  19.496  65.842  1.00  0.00     0.000 HD 
BRANCH  33  43
HETATM   43  C   UNL     1      -6.716  14.828  67.987  1.00  0.00    -0.144 C  
HETATM   44  O   UNL     1      -5.907  13.874  67.353  1.00  0.00    -0.351 OA 
HETATM   45  H   UNL     1      -5.358  13.417  67.978  1.00  0.00     0.000 HD 
ENDBRANCH  33  43
ENDBRANCH  30  31
ENDBRANCH  29  30
BRANCH  29  46
HETATM   46  C   UNL     1     -11.876  13.755  63.907  1.00  0.00    -0.327 C  
HETATM   47  O   UNL     1     -12.439  15.043  63.808  1.00  0.00    -1.037 OA 
HETATM   48  H   UNL     1     -12.942  15.133  63.007  1.00  0.00     0.000 HD 
BRANCH  46  49
HETATM   49  C   UNL     1     -12.917  12.640  63.658  1.00  0.00     0.098 C  
HETATM   50  H   UNL     1     -12.979  10.877  62.816  1.00  0.00     0.000 HD 
HETATM   51  O   UNL     1     -12.339  11.562  62.969  1.00  0.00    -0.213 OA 
ENDBRANCH  46  49
ENDBRANCH  29  46
ENDBRANCH  26  29
ENDBRANCH  23  26
ENDBRANCH  21  23
ENDBRANCH  20  21
ENDBRANCH  19  20
ENDBRANCH  18  19
ENDBRANCH  16  18
ENDBRANCH  13  16
ENDBRANCH  10  13
ENDBRANCH   7  10
ENDBRANCH   4   7
ENDBRANCH   2   4
TORSDOF 17
ENDMDL
MODEL      201
REMARK 921   NORMALIZED FREE ENERGY PREDICTED BY IDOCK:   -4.54 KCAL/MOL
REMARK 922        TOTAL FREE ENERGY PREDICTED BY IDOCK:  -12.48 KCAL/MOL
REMARK 923 INTER-LIGAND FREE ENERGY PREDICTED BY IDOCK:   -8.92 KCAL/MOL
REMARK 924 INTRA-LIGAND FREE ENERGY PREDICTED BY IDOCK:   -3.57 KCAL/MOL
REMARK 927      BINDING AFFINITY PREDICTED BY RF-SCORE:    0.00 PKD
ROOT
HETATM    1  O   UNL     1     -13.101  13.302  64.721  1.00  0.00    -0.709 OA 
HETATM    2  C   UNL     1     -12.850  13.863  65.981  1.00  0.00    -0.252 C  
HETATM    3  H   UNL     1     -14.006  13.455  64.478  1.00  0.00     0.000 HD 
ENDROOT
BRANCH   2   4
HETATM    4  C   UNL     1     -11.384  13.616  66.375  1.00  0.00    -0.316 C  
HETATM    5  O   UNL     1     -11.073  12.259  66.179  1.00  0.00    -0.284 OA 
HETATM    6  H   UNL     1     -10.167  12.106  66.423  1.00  0.00     0.000 HD 
BRANCH   4   7
HETATM    7  C   UNL     1     -10.413  14.494  65.541  1.00  0.00    -0.356 C  
HETATM    8  H   UNL     1      -9.783  14.568  63.704  1.00  0.00     0.000 HD 
HETATM    9  O   UNL     1     -10.377  14.030  64.214  1.00  0.00    -0.253 OA 
BRANCH   7  10
HETATM   10  C   UNL     1     -10.835  15.987  65.544  1.00  0.00    -0.292 C  
HETATM   11  H   UNL     1     -11.324  17.302  64.216  1.00  0.00     0.000 HD 
HETATM   12  O   UNL     1     -11.066  16.387  64.214  1.00  0.00    -0.845 OA 
BRANCH  10  13
HETATM   13  C   UNL     1      -9.773  16.929  66.175  1.00  0.00    -0.272 C  
HETATM   14  H   UNL     1      -9.330  18.819  66.111  1.00  0.00     0.000 HD 
HETATM   15  O   UNL     1      -9.979  18.243  65.724  1.00  0.00    -0.540 OA 
BRANCH  13  16
HETATM   16  C   UNL     1      -9.808  16.946  67.685  1.00  0.00    -0.259 C  
HETATM   17  O   UNL     1     -10.643  17.624  68.264  1.00  0.00    -0.374 OA 
BRANCH  16  18
HETATM   18  O   UNL     1      -8.924  16.232  68.411  1.00  0.00    -0.191 OA 
BRANCH  18  19
HETATM   19 CA   UNL     1      -8.932  13.818  68.235  1.00  0.00    -0.144 Ca 
BRANCH  19  20
HETATM   20  O   UNL     1      -8.941  11.405  68.060  1.00  0.00    -0.150 OA 
BRANCH  20  21
HETATM   21  C   UNL     1      -9.831  10.911  68.938  1.00  0.00    -0.192 C  
HETATM   22  O   UNL     1     -10.912  11.468  69.030  1.00  0.00    -0.214 OA 
BRANCH  21  23
HETATM   23  C   UNL     1      -9.463   9.816  69.914  1.00  0.00    -0.231 C  
HETATM   24  H   UNL     1      -7.851   9.205  70.782  1.00  0.00     0.000 HD 
HETATM   25  O   UNL     1      -8.082   9.892  70.169  1.00  0.00    -0.179 OA 
BRANCH  23  26
HETATM   26  C   UNL     1      -9.813   8.374  69.436  1.00  0.00    -0.185 C  
HETATM   27  H   UNL     1     -11.011   7.562  68.146  1.00  0.00     0.000 HD 
HETATM   28  O   UNL     1     -10.798   8.441  68.437  1.00  0.00    -0.074 OA 
BRANCH  26  29
HETATM   29  C   UNL     1      -8.629   7.471  68.948  1.00  0.00    -0.129 C  
BRANCH  29  30
HETATM   30  O   UNL     1      -8.923   7.115  67.605  1.00  0.00    -0.126 OA 
BRANCH  30  31
HETATM   31  C   UNL     1      -8.114   7.719  66.616  1.00  0.00    -0.111 C  
HETATM   32  O   UNL     1      -8.893   8.593  65.816  1.00  0.00    -0.172 OA 
HETATM   33  C   UNL     1      -8.089   9.220  64.828  1.00  0.00    -0.133 C  
HETATM   34  H   UNL     1      -6.419   4.980  65.983  1.00  0.00     0.000 HD 
HETATM   35  C   UNL     1      -7.572   8.166  63.815  1.00  0.00    -0.128 C  
HETATM   36  O   UNL     1      -8.649   7.510  63.191  1.00  0.00    -0.364 OA 
HETATM   37  C   UNL     1      -6.710   7.140  64.581  1.00  0.00    -0.046 C  
HETATM   38  O   UNL     1      -6.772   5.681  66.517  1.00  0.00    -0.054 OA 
HETATM   39  H   UNL     1      -8.332   6.865  62.571  1.00  0.00     0.000 HD 
HETATM   40  O   UNL     1      -6.296   6.085  63.748  1.00  0.00    -0.028 OA 
HETATM   41  C   UNL     1      -7.539   6.574  65.745  1.00  0.00    -0.085 C  
HETATM   42  H   UNL     1      -5.766   5.454  64.219  1.00  0.00     0.000 HD 
BRANCH  33  43
HETATM   43  C   UNL     1      -8.934  10.310  64.151  1.00  0.00    -0.237 C  
HETATM   44  O   UNL     1      -8.800  11.541  64.808  1.00  0.00    -0.380 OA 
HETATM   45  H   UNL     1      -9.322  12.214  64.389  1.00  0.00     0.000 HD 
ENDBRANCH  33  43
ENDBRANCH  30  31
ENDBRANCH  29  30
BRANCH  29  46
HETATM   46  C   UNL     1      -8.311   6.215  69.835  1.00  0.00    -0.128 C  
HETATM   47  O   UNL     1      -8.031   5.090  69.035  1.00  0.00    -0.079 OA 
HETATM   48  H   UNL     1      -7.839   4.331  69.572  1.00  0.00     0.000 HD 
BRANCH  46  49
HETATM   49  C   UNL     1      -9.357   5.908  70.931  1.00  0.00    -0.161 C  
HETATM   50  H   UNL     1     -10.926   4.763  71.157  1.00  0.00     0.000 HD 
HETATM   51  O   UNL     1     -10.283   4.952  70.483  1.00  0.00    -0.244 OA 
ENDBRANCH  46  49
ENDBRANCH  29  46
ENDBRANCH  26  29
ENDBRANCH  23  26
ENDBRANCH  21  23
ENDBRANCH  20  21
ENDBRANCH  19  20
ENDBRANCH  18  19
ENDBRANCH  16  18
ENDBRANCH  13  16
ENDBRANCH  10  13
ENDBRANCH   7  10
ENDBRANCH   4   7
ENDBRANCH   2   4
TORSDOF 17
ENDMDL
MODEL      202
REMARK 921   NORMALIZED FREE ENERGY PREDICTED BY IDOCK:   -4.53 KCAL/MOL
REMARK 922        TOTAL FREE ENERGY PREDICTED BY IDOCK:  -12.47 KCAL/MOL
REMARK 923 INTER-LIGAND FREE ENERGY PREDICTED BY IDOCK:  -10.53 KCAL/MOL
REMARK 924 INTRA-LIGAND FREE ENERGY PREDICTED BY IDOCK:   -1.94 KCAL/MOL
REMARK 927      BINDING AFFINITY PREDICTED BY RF-SCORE:    0.00 PKD
ROOT
HETATM    1  O   UNL     1     -11.209   9.370  71.319  1.00  0.00    -0.309 OA 
HETATM    2  C   UNL     1     -10.173   8.932  72.156  1.00  0.00    -0.222 C  
HETATM    3  H   UNL     1     -12.023   9.398  71.807  1.00  0.00     0.000 HD 
ENDROOT
BRANCH   2   4
HETATM    4  C   UNL     1      -8.854   8.886  71.365  1.00  0.00    -0.213 C  
HETATM    5  O   UNL     1      -7.776   9.071  72.248  1.00  0.00    -0.346 OA 
HETATM    6  H   UNL     1      -6.962   9.043  71.760  1.00  0.00     0.000 HD 
BRANCH   4   7
HETATM    7  C   UNL     1      -8.684   7.537  70.617  1.00  0.00    -0.141 C  
HETATM    8  H   UNL     1      -7.424   6.756  69.360  1.00  0.00     0.000 HD 
HETATM    9  O   UNL     1      -7.527   7.582  69.818  1.00  0.00    -0.087 OA 
BRANCH   7  10
HETATM   10  C   UNL     1      -8.574   6.340  71.599  1.00  0.00    -0.133 C  
HETATM   11  H   UNL     1      -7.383   4.839  71.842  1.00  0.00     0.000 HD 
HETATM   12  O   UNL     1      -7.450   5.572  71.241  1.00  0.00    -0.091 OA 
BRANCH  10  13
HETATM   13  C   UNL     1      -9.829   5.424  71.601  1.00  0.00    -0.172 C  
HETATM   14  H   UNL     1     -11.387   5.149  72.726  1.00  0.00     0.000 HD 
HETATM   15  O   UNL     1     -10.620   5.709  72.725  1.00  0.00    -0.202 OA 
BRANCH  13  16
HETATM   16  C   UNL     1     -10.692   5.587  70.372  1.00  0.00    -0.251 C  
HETATM   17  O   UNL     1     -10.426   4.960  69.358  1.00  0.00    -0.167 OA 
BRANCH  16  18
HETATM   18  O   UNL     1     -11.749   6.423  70.370  1.00  0.00    -0.396 OA 
BRANCH  18  19
HETATM   19 CA   UNL     1     -11.647   8.448  69.048  1.00  0.00    -0.436 Ca 
BRANCH  19  20
HETATM   20  O   UNL     1     -11.545  10.473  67.727  1.00  0.00    -0.462 OA 
BRANCH  20  21
HETATM   21  C   UNL     1     -10.673  11.320  68.301  1.00  0.00    -0.194 C  
HETATM   22  O   UNL     1      -9.483  11.119  68.124  1.00  0.00    -0.167 OA 
BRANCH  21  23
HETATM   23  C   UNL     1     -11.120  12.384  69.278  1.00  0.00    -0.147 C  
HETATM   24  H   UNL     1     -12.203  12.444  70.875  1.00  0.00     0.000 HD 
HETATM   25  O   UNL     1     -11.922  11.776  70.261  1.00  0.00    -0.340 OA 
BRANCH  23  26
HETATM   26  C   UNL     1     -11.910  13.565  68.637  1.00  0.00    -0.369 C  
HETATM   27  H   UNL     1     -13.247  14.849  69.206  1.00  0.00     0.000 HD 
HETATM   28  O   UNL     1     -12.766  14.129  69.597  1.00  0.00    -0.169 OA 
BRANCH  26  29
HETATM   29  C   UNL     1     -11.075  14.698  67.947  1.00  0.00    -0.291 C  
BRANCH  29  30
HETATM   30  O   UNL     1     -11.549  15.927  68.478  1.00  0.00    -0.377 OA 
BRANCH  30  31
HETATM   31  C   UNL     1     -10.622  16.994  68.483  1.00  0.00    -0.370 C  
HETATM   32  O   UNL     1     -10.775  17.777  67.311  1.00  0.00    -0.334 OA 
HETATM   33  C   UNL     1      -9.860  18.863  67.309  1.00  0.00    -0.320 C  
HETATM   34  H   UNL     1      -8.168  15.177  69.686  1.00  0.00     0.000 HD 
HETATM   35  C   UNL     1      -8.406  18.334  67.205  1.00  0.00    -0.245 C  
HETATM   36  O   UNL     1      -8.238  17.582  66.028  1.00  0.00    -0.491 OA 
HETATM   37  C   UNL     1      -8.124  17.447  68.435  1.00  0.00    -0.264 C  
HETATM   38  O   UNL     1      -9.034  15.565  69.664  1.00  0.00    -0.266 OA 
HETATM   39  H   UNL     1      -7.347  17.258  65.964  1.00  0.00     0.000 HD 
HETATM   40  O   UNL     1      -6.859  16.836  68.356  1.00  0.00    -0.150 OA 
HETATM   41  C   UNL     1      -9.209  16.360  68.517  1.00  0.00    -0.226 C  
HETATM   42  H   UNL     1      -6.686  16.290  69.113  1.00  0.00     0.000 HD 
BRANCH  33  43
HETATM   43  C   UNL     1     -10.226  19.789  66.139  1.00  0.00    -0.516 C  
HETATM   44  O   UNL     1     -10.813  19.072  65.086  1.00  0.00    -0.478 OA 
HETATM   45  H   UNL     1     -11.039  19.645  64.364  1.00  0.00     0.000 HD 
ENDBRANCH  33  43
ENDBRANCH  30  31
ENDBRANCH  29  30
BRANCH  29  46
HETATM   46  C   UNL     1     -11.078  14.694  66.377  1.00  0.00    -0.334 C  
HETATM   47  O   UNL     1     -12.169  13.958  65.876  1.00  0.00    -0.412 OA 
HETATM   48  H   UNL     1     -12.171  13.956  64.927  1.00  0.00     0.000 HD 
BRANCH  46  49
HETATM   49  C   UNL     1      -9.741  14.277  65.721  1.00  0.00    -0.234 C  
HETATM   50  H   UNL     1      -8.974  12.689  64.877  1.00  0.00     0.000 HD 
HETATM   51  O   UNL     1      -9.796  12.946  65.280  1.00  0.00    -0.210 OA 
ENDBRANCH  46  49
ENDBRANCH  29  46
ENDBRANCH  26  29
ENDBRANCH  23  26
ENDBRANCH  21  23
ENDBRANCH  20  21
ENDBRANCH  19  20
ENDBRANCH  18  19
ENDBRANCH  16  18
ENDBRANCH  13  16
ENDBRANCH  10  13
ENDBRANCH   7  10
ENDBRANCH   4   7
ENDBRANCH   2   4
TORSDOF 17
ENDMDL
MODEL      203
REMARK 921   NORMALIZED FREE ENERGY PREDICTED BY IDOCK:   -4.52 KCAL/MOL
REMARK 922        TOTAL FREE ENERGY PREDICTED BY IDOCK:  -12.44 KCAL/MOL
REMARK 923 INTER-LIGAND FREE ENERGY PREDICTED BY IDOCK:   -9.05 KCAL/MOL
REMARK 924 INTRA-LIGAND FREE ENERGY PREDICTED BY IDOCK:   -3.39 KCAL/MOL
REMARK 927      BINDING AFFINITY PREDICTED BY RF-SCORE:    0.00 PKD
ROOT
HETATM    1  O   UNL     1      -8.721   8.564  69.272  1.00  0.00    -0.131 OA 
HETATM    2  C   UNL     1      -8.416   9.932  69.310  1.00  0.00    -0.158 C  
HETATM    3  H   UNL     1      -7.971   8.061  69.567  1.00  0.00     0.000 HD 
ENDROOT
BRANCH   2   4
HETATM    4  C   UNL     1      -9.631  10.747  68.834  1.00  0.00    -0.195 C  
HETATM    5  O   UNL     1      -9.720  10.670  67.433  1.00  0.00    -0.164 OA 
HETATM    6  H   UNL     1     -10.471  11.173  67.138  1.00  0.00     0.000 HD 
BRANCH   4   7
HETATM    7  C   UNL     1     -10.949  10.226  69.465  1.00  0.00    -0.258 C  
HETATM    8  H   UNL     1     -11.553   9.639  71.217  1.00  0.00     0.000 HD 
HETATM    9  O   UNL     1     -10.746   9.958  70.831  1.00  0.00    -0.311 OA 
BRANCH   7  10
HETATM   10  C   UNL     1     -12.106  11.250  69.318  1.00  0.00    -0.303 C  
HETATM   11  H   UNL     1     -12.990  12.157  67.860  1.00  0.00     0.000 HD 
HETATM   12  O   UNL     1     -12.282  11.530  67.950  1.00  0.00    -0.586 OA 
BRANCH  10  13
HETATM   13  C   UNL     1     -11.853  12.583  70.076  1.00  0.00    -0.289 C  
HETATM   14  H   UNL     1     -11.643  14.459  69.622  1.00  0.00     0.000 HD 
HETATM   15  O   UNL     1     -11.797  13.644  69.158  1.00  0.00    -0.306 OA 
BRANCH  13  16
HETATM   16  C   UNL     1     -12.920  12.905  71.095  1.00  0.00    -0.174 C  
HETATM   17  O   UNL     1     -13.507  13.975  71.039  1.00  0.00    -0.248 OA 
BRANCH  16  18
HETATM   18  O   UNL     1     -13.232  12.036  72.076  1.00  0.00    -0.499 OA 
BRANCH  18  19
HETATM   19 CA   UNL     1     -12.867   9.670  71.715  1.00  0.00    -0.281 Ca 
BRANCH  19  20
HETATM   20  O   UNL     1     -12.504   7.306  71.353  1.00  0.00    -0.346 OA 
BRANCH  20  21
HETATM   21  C   UNL     1     -11.649   6.853  72.286  1.00  0.00    -0.270 C  
HETATM   22  O   UNL     1     -11.229   7.648  73.110  1.00  0.00    -0.391 OA 
BRANCH  21  23
HETATM   23  C   UNL     1     -11.077   5.454  72.231  1.00  0.00    -0.196 C  
HETATM   24  H   UNL     1     -11.063   3.907  73.387  1.00  0.00     0.000 HD 
HETATM   25  O   UNL     1     -11.422   4.786  73.421  1.00  0.00    -0.338 OA 
BRANCH  23  26
HETATM   26  C   UNL     1      -9.532   5.389  72.042  1.00  0.00    -0.148 C  
HETATM   27  H   UNL     1      -7.970   5.238  73.182  1.00  0.00     0.000 HD 
HETATM   28  O   UNL     1      -8.912   5.277  73.298  1.00  0.00    -0.121 OA 
BRANCH  26  29
HETATM   29  C   UNL     1      -8.970   4.288  71.078  1.00  0.00    -0.116 C  
BRANCH  29  30
HETATM   30  O   UNL     1      -9.882   4.201  69.993  1.00  0.00    -0.217 OA 
BRANCH  30  31
HETATM   31  C   UNL     1      -9.348   4.485  68.716  1.00  0.00    -0.146 C  
HETATM   32  O   UNL     1      -9.973   5.635  68.171  1.00  0.00    -0.130 OA 
HETATM   33  C   UNL     1      -9.434   5.942  66.894  1.00  0.00    -0.135 C  
HETATM   34  H   UNL     1      -9.218   1.334  67.802  1.00  0.00     0.000 HD 
HETATM   35  C   UNL     1      -9.792   4.822  65.882  1.00  0.00    -0.211 C  
HETATM   36  O   UNL     1     -11.188   4.680  65.777  1.00  0.00    -0.765 OA 
HETATM   37  C   UNL     1      -9.170   3.502  66.381  1.00  0.00    -0.168 C  
HETATM   38  O   UNL     1      -9.041   2.090  68.349  1.00  0.00    -0.121 OA 
HETATM   39  H   UNL     1     -11.407   3.994  65.158  1.00  0.00     0.000 HD 
HETATM   40  O   UNL     1      -9.546   2.413  65.574  1.00  0.00    -0.356 OA 
HETATM   41  C   UNL     1      -9.638   3.251  67.824  1.00  0.00    -0.088 C  
HETATM   42  H   UNL     1      -9.162   1.600  65.881  1.00  0.00     0.000 HD 
BRANCH  33  43
HETATM   43  C   UNL     1      -9.985   7.310  66.463  1.00  0.00    -0.112 C  
HETATM   44  O   UNL     1     -10.990   7.752  67.336  1.00  0.00    -0.523 OA 
HETATM   45  H   UNL     1     -11.330   8.598  67.071  1.00  0.00     0.000 HD 
ENDBRANCH  33  43
ENDBRANCH  30  31
ENDBRANCH  29  30
BRANCH  29  46
HETATM   46  C   UNL     1      -8.689   2.886  71.726  1.00  0.00    -0.073 C  
HETATM   47  O   UNL     1      -9.732   2.515  72.597  1.00  0.00    -0.105 OA 
HETATM   48  H   UNL     1      -9.562   1.667  72.989  1.00  0.00     0.000 HD 
BRANCH  46  49
HETATM   49  C   UNL     1      -7.297   2.736  72.383  1.00  0.00    -0.046 C  
HETATM   50  H   UNL     1      -6.378   1.473  73.559  1.00  0.00     0.000 HD 
HETATM   51  O   UNL     1      -7.234   1.565  73.155  1.00  0.00    -0.026 OA 
ENDBRANCH  46  49
ENDBRANCH  29  46
ENDBRANCH  26  29
ENDBRANCH  23  26
ENDBRANCH  21  23
ENDBRANCH  20  21
ENDBRANCH  19  20
ENDBRANCH  18  19
ENDBRANCH  16  18
ENDBRANCH  13  16
ENDBRANCH  10  13
ENDBRANCH   7  10
ENDBRANCH   4   7
ENDBRANCH   2   4
TORSDOF 17
ENDMDL
MODEL      204
REMARK 921   NORMALIZED FREE ENERGY PREDICTED BY IDOCK:   -4.49 KCAL/MOL
REMARK 922        TOTAL FREE ENERGY PREDICTED BY IDOCK:  -12.39 KCAL/MOL
REMARK 923 INTER-LIGAND FREE ENERGY PREDICTED BY IDOCK:   -8.87 KCAL/MOL
REMARK 924 INTRA-LIGAND FREE ENERGY PREDICTED BY IDOCK:   -3.52 KCAL/MOL
REMARK 927      BINDING AFFINITY PREDICTED BY RF-SCORE:    0.00 PKD
ROOT
HETATM    1  O   UNL     1      -9.798   8.841  65.833  1.00  0.00    -0.432 OA 
HETATM    2  C   UNL     1     -10.589   8.306  66.859  1.00  0.00    -0.232 C  
HETATM    3  H   UNL     1     -10.248   9.575  65.432  1.00  0.00     0.000 HD 
ENDROOT
BRANCH   2   4
HETATM    4  C   UNL     1      -9.859   7.118  67.509  1.00  0.00    -0.151 C  
HETATM    5  O   UNL     1      -8.801   6.711  66.677  1.00  0.00    -0.126 OA 
HETATM    6  H   UNL     1      -8.350   5.977  67.078  1.00  0.00     0.000 HD 
BRANCH   4   7
HETATM    7  C   UNL     1      -9.303   7.487  68.909  1.00  0.00    -0.142 C  
HETATM    8  H   UNL     1      -8.671   9.088  69.813  1.00  0.00     0.000 HD 
HETATM    9  O   UNL     1      -9.012   8.863  68.956  1.00  0.00    -0.135 OA 
BRANCH   7  10
HETATM   10  C   UNL     1     -10.308   7.145  70.041  1.00  0.00    -0.208 C  
HETATM   11  H   UNL     1     -12.009   6.238  70.171  1.00  0.00     0.000 HD 
HETATM   12  O   UNL     1     -11.393   6.448  69.478  1.00  0.00    -0.390 OA 
BRANCH  10  13
HETATM   13  C   UNL     1     -10.848   8.396  70.788  1.00  0.00    -0.224 C  
HETATM   14  H   UNL     1     -12.177   9.777  70.474  1.00  0.00     0.000 HD 
HETATM   15  O   UNL     1     -11.847   9.012  70.017  1.00  0.00     0.068 OA 
BRANCH  13  16
HETATM   16  C   UNL     1     -11.437   8.078  72.143  1.00  0.00    -0.335 C  
HETATM   17  O   UNL     1     -11.001   7.136  72.786  1.00  0.00    -0.266 OA 
BRANCH  16  18
HETATM   18  O   UNL     1     -12.447   8.811  72.652  1.00  0.00    -0.361 OA 
BRANCH  18  19
HETATM   19 CA   UNL     1     -12.555  11.177  72.153  1.00  0.00    -0.344 Ca 
BRANCH  19  20
HETATM   20  O   UNL     1     -12.663  13.542  71.654  1.00  0.00    -0.337 OA 
BRANCH  20  21
HETATM   21  C   UNL     1     -12.398  13.720  70.348  1.00  0.00    -0.353 C  
HETATM   22  O   UNL     1     -12.737  12.843  69.572  1.00  0.00     0.260 OA 
BRANCH  21  23
HETATM   23  C   UNL     1     -11.554  14.876  69.857  1.00  0.00    -0.289 C  
HETATM   24  H   UNL     1     -11.538  16.791  70.097  1.00  0.00     0.000 HD 
HETATM   25  O   UNL     1     -12.068  16.065  70.405  1.00  0.00    -0.328 OA 
BRANCH  23  26
HETATM   26  C   UNL     1     -11.486  15.018  68.306  1.00  0.00    -0.332 C  
HETATM   27  H   UNL     1     -11.213  16.449  67.026  1.00  0.00     0.000 HD 
HETATM   28  O   UNL     1     -11.255  16.362  67.972  1.00  0.00    -0.325 OA 
BRANCH  26  29
HETATM   29  C   UNL     1     -10.467  14.103  67.544  1.00  0.00    -0.249 C  
BRANCH  29  30
HETATM   30  O   UNL     1      -9.380  14.937  67.170  1.00  0.00    -0.204 OA 
BRANCH  30  31
HETATM   31  C   UNL     1      -8.093  14.451  67.491  1.00  0.00    -0.190 C  
HETATM   32  O   UNL     1      -7.984  13.084  67.131  1.00  0.00    -0.163 OA 
HETATM   33  C   UNL     1      -6.689  12.586  67.435  1.00  0.00    -0.147 C  
HETATM   34  H   UNL     1      -7.935  16.058  70.350  1.00  0.00     0.000 HD 
HETATM   35  C   UNL     1      -6.468  12.575  68.970  1.00  0.00    -0.097 C  
HETATM   36  O   UNL     1      -7.436  11.773  69.602  1.00  0.00    -0.334 OA 
HETATM   37  C   UNL     1      -6.577  14.026  69.485  1.00  0.00    -0.115 C  
HETATM   38  O   UNL     1      -8.039  15.959  69.411  1.00  0.00    -0.234 OA 
HETATM   39  H   UNL     1      -7.300  11.766  70.542  1.00  0.00     0.000 HD 
HETATM   40  O   UNL     1      -6.501  14.085  70.888  1.00  0.00    -0.428 OA 
HETATM   41  C   UNL     1      -7.922  14.612  69.023  1.00  0.00    -0.122 C  
HETATM   42  H   UNL     1      -6.568  14.978  71.205  1.00  0.00     0.000 HD 
BRANCH  33  43
HETATM   43  C   UNL     1      -6.566  11.183  66.821  1.00  0.00    -0.133 C  
HETATM   44  O   UNL     1      -7.776  10.479  66.910  1.00  0.00    -0.107 OA 
HETATM   45  H   UNL     1      -7.699   9.612  66.531  1.00  0.00     0.000 HD 
ENDBRANCH  33  43
ENDBRANCH  30  31
ENDBRANCH  29  30
BRANCH  29  46
HETATM   46  C   UNL     1     -11.043  13.303  66.323  1.00  0.00    -0.290 C  
HETATM   47  O   UNL     1     -10.662  11.948  66.382  1.00  0.00    -0.246 OA 
HETATM   48  H   UNL     1     -11.010  11.464  65.643  1.00  0.00     0.000 HD 
BRANCH  46  49
HETATM   49  C   UNL     1     -10.762  13.930  64.938  1.00  0.00    -0.410 C  
HETATM   50  H   UNL     1     -11.662  14.090  63.210  1.00  0.00     0.000 HD 
HETATM   51  O   UNL     1     -11.835  13.704  64.061  1.00  0.00    -0.420 OA 
ENDBRANCH  46  49
ENDBRANCH  29  46
ENDBRANCH  26  29
ENDBRANCH  23  26
ENDBRANCH  21  23
ENDBRANCH  20  21
ENDBRANCH  19  20
ENDBRANCH  18  19
ENDBRANCH  16  18
ENDBRANCH  13  16
ENDBRANCH  10  13
ENDBRANCH   7  10
ENDBRANCH   4   7
ENDBRANCH   2   4
TORSDOF 17
ENDMDL
MODEL      205
REMARK 921   NORMALIZED FREE ENERGY PREDICTED BY IDOCK:   -4.48 KCAL/MOL
REMARK 922        TOTAL FREE ENERGY PREDICTED BY IDOCK:  -12.38 KCAL/MOL
REMARK 923 INTER-LIGAND FREE ENERGY PREDICTED BY IDOCK:   -9.80 KCAL/MOL
REMARK 924 INTRA-LIGAND FREE ENERGY PREDICTED BY IDOCK:   -2.58 KCAL/MOL
REMARK 927      BINDING AFFINITY PREDICTED BY RF-SCORE:    0.00 PKD
ROOT
HETATM    1  O   UNL     1      -6.805  18.640  67.516  1.00  0.00    -0.202 OA 
HETATM    2  C   UNL     1      -7.525  17.793  66.663  1.00  0.00    -0.228 C  
HETATM    3  H   UNL     1      -6.429  19.354  67.015  1.00  0.00     0.000 HD 
ENDROOT
BRANCH   2   4
HETATM    4  C   UNL     1      -8.134  16.637  67.475  1.00  0.00    -0.168 C  
HETATM    5  O   UNL     1      -7.112  15.755  67.866  1.00  0.00    -0.114 OA 
HETATM    6  H   UNL     1      -7.488  15.041  68.367  1.00  0.00     0.000 HD 
BRANCH   4   7
HETATM    7  C   UNL     1      -8.880  17.155  68.733  1.00  0.00    -0.235 C  
HETATM    8  H   UNL     1     -10.180  18.539  69.148  1.00  0.00     0.000 HD 
HETATM    9  O   UNL     1      -9.725  18.222  68.377  1.00  0.00    -0.321 OA 
BRANCH   7  10
HETATM   10  C   UNL     1      -9.727  16.042  69.405  1.00  0.00    -0.248 C  
HETATM   11  H   UNL     1     -10.106  14.179  69.064  1.00  0.00     0.000 HD 
HETATM   12  O   UNL     1      -9.587  14.860  68.653  1.00  0.00    -0.208 OA 
BRANCH  10  13
HETATM   13  C   UNL     1     -11.237  16.393  69.512  1.00  0.00    -0.250 C  
HETATM   14  H   UNL     1     -12.826  16.191  68.413  1.00  0.00     0.000 HD 
HETATM   15  O   UNL     1     -11.903  15.976  68.347  1.00  0.00    -0.304 OA 
BRANCH  13  16
HETATM   16  C   UNL     1     -11.921  15.748  70.694  1.00  0.00    -0.393 C  
HETATM   17  O   UNL     1     -11.609  16.078  71.828  1.00  0.00    -0.444 OA 
BRANCH  16  18
HETATM   18  O   UNL     1     -12.866  14.802  70.521  1.00  0.00    -0.354 OA 
BRANCH  18  19
HETATM   19 CA   UNL     1     -12.438  12.975  68.992  1.00  0.00    -0.288 Ca 
BRANCH  19  20
HETATM   20  O   UNL     1     -12.011  11.148  67.464  1.00  0.00    -0.580 OA 
BRANCH  20  21
HETATM   21  C   UNL     1     -10.708  11.156  67.134  1.00  0.00    -0.259 C  
HETATM   22  O   UNL     1     -10.384  11.724  66.104  1.00  0.00    -0.218 OA 
BRANCH  21  23
HETATM   23  C   UNL     1      -9.686  10.349  67.903  1.00  0.00    -0.149 C  
HETATM   24  H   UNL     1      -7.793  10.472  68.258  1.00  0.00     0.000 HD 
HETATM   25  O   UNL     1      -8.435  10.979  67.775  1.00  0.00    -0.119 OA 
BRANCH  23  26
HETATM   26  C   UNL     1      -9.556   8.864  67.449  1.00  0.00    -0.157 C  
HETATM   27  H   UNL     1      -8.211   7.755  66.599  1.00  0.00     0.000 HD 
HETATM   28  O   UNL     1      -8.290   8.661  66.875  1.00  0.00    -0.107 OA 
BRANCH  26  29
HETATM   29  C   UNL     1      -9.830   7.756  68.524  1.00  0.00    -0.172 C  
BRANCH  29  30
HETATM   30  O   UNL     1     -10.123   8.436  69.736  1.00  0.00    -0.189 OA 
BRANCH  30  31
HETATM   31  C   UNL     1     -11.494   8.566  70.052  1.00  0.00     0.082 C  
HETATM   32  O   UNL     1     -11.713   9.752  70.798  1.00  0.00    -0.286 OA 
HETATM   33  C   UNL     1     -13.089   9.903  71.109  1.00  0.00    -0.370 C  
HETATM   34  H   UNL     1     -11.893   5.375  70.711  1.00  0.00     0.000 HD 
HETATM   35  C   UNL     1     -13.543   8.779  72.077  1.00  0.00    -0.427 C  
HETATM   36  O   UNL     1     -12.790   8.816  73.264  1.00  0.00    -0.549 OA 
HETATM   37  C   UNL     1     -13.338   7.422  71.372  1.00  0.00    -0.334 C  
HETATM   38  O   UNL     1     -11.658   6.133  70.191  1.00  0.00    -0.375 OA 
HETATM   39  H   UNL     1     -13.068   8.128  73.856  1.00  0.00     0.000 HD 
HETATM   40  O   UNL     1     -13.622   6.344  72.229  1.00  0.00    -0.476 OA 
HETATM   41  C   UNL     1     -11.877   7.328  70.901  1.00  0.00    -0.316 C  
HETATM   42  H   UNL     1     -13.496   5.508  71.795  1.00  0.00     0.000 HD 
BRANCH  33  43
HETATM   43  C   UNL     1     -13.287  11.303  71.713  1.00  0.00    -0.267 C  
HETATM   44  O   UNL     1     -12.384  12.226  71.166  1.00  0.00    -0.305 OA 
HETATM   45  H   UNL     1     -12.507  13.090  71.539  1.00  0.00     0.000 HD 
ENDBRANCH  33  43
ENDBRANCH  30  31
ENDBRANCH  29  30
BRANCH  29  46
HETATM   46  C   UNL     1      -8.699   6.683  68.708  1.00  0.00    -0.128 C  
HETATM   47  O   UNL     1      -9.203   5.381  68.522  1.00  0.00    -0.107 OA 
HETATM   48  H   UNL     1      -8.519   4.732  68.634  1.00  0.00     0.000 HD 
BRANCH  46  49
HETATM   49  C   UNL     1      -7.881   6.813  70.014  1.00  0.00    -0.111 C  
HETATM   50  H   UNL     1      -7.833   5.981  71.782  1.00  0.00     0.000 HD 
HETATM   51  O   UNL     1      -8.335   5.901  70.980  1.00  0.00    -0.120 OA 
ENDBRANCH  46  49
ENDBRANCH  29  46
ENDBRANCH  26  29
ENDBRANCH  23  26
ENDBRANCH  21  23
ENDBRANCH  20  21
ENDBRANCH  19  20
ENDBRANCH  18  19
ENDBRANCH  16  18
ENDBRANCH  13  16
ENDBRANCH  10  13
ENDBRANCH   7  10
ENDBRANCH   4   7
ENDBRANCH   2   4
TORSDOF 17
ENDMDL
MODEL      206
REMARK 921   NORMALIZED FREE ENERGY PREDICTED BY IDOCK:   -4.48 KCAL/MOL
REMARK 922        TOTAL FREE ENERGY PREDICTED BY IDOCK:  -12.37 KCAL/MOL
REMARK 923 INTER-LIGAND FREE ENERGY PREDICTED BY IDOCK:  -11.15 KCAL/MOL
REMARK 924 INTRA-LIGAND FREE ENERGY PREDICTED BY IDOCK:   -1.22 KCAL/MOL
REMARK 927      BINDING AFFINITY PREDICTED BY RF-SCORE:    0.00 PKD
ROOT
HETATM    1  O   UNL     1     -12.631   8.355  70.765  1.00  0.00    -0.498 OA 
HETATM    2  C   UNL     1     -11.237   8.245  70.670  1.00  0.00    -0.256 C  
HETATM    3  H   UNL     1     -12.963   7.704  71.373  1.00  0.00     0.000 HD 
ENDROOT
BRANCH   2   4
HETATM    4  C   UNL     1     -10.701   9.299  69.686  1.00  0.00    -0.230 C  
HETATM    5  O   UNL     1      -9.713  10.069  70.323  1.00  0.00    -0.375 OA 
HETATM    6  H   UNL     1      -9.382  10.720  69.716  1.00  0.00     0.000 HD 
BRANCH   4   7
HETATM    7  C   UNL     1     -10.103   8.640  68.415  1.00  0.00    -0.191 C  
HETATM    8  H   UNL     1     -10.529   8.559  66.519  1.00  0.00     0.000 HD 
HETATM    9  O   UNL     1     -10.895   8.962  67.297  1.00  0.00    -0.216 OA 
BRANCH   7  10
HETATM   10  C   UNL     1      -8.646   9.105  68.152  1.00  0.00    -0.129 C  
HETATM   11  H   UNL     1      -7.775  10.758  67.662  1.00  0.00     0.000 HD 
HETATM   12  O   UNL     1      -8.667  10.473  67.823  1.00  0.00    -0.122 OA 
BRANCH  10  13
HETATM   13  C   UNL     1      -7.945   8.324  67.006  1.00  0.00    -0.100 C  
HETATM   14  H   UNL     1      -8.086   6.568  66.189  1.00  0.00     0.000 HD 
HETATM   15  O   UNL     1      -8.515   7.045  66.889  1.00  0.00    -0.115 OA 
BRANCH  13  16
HETATM   16  C   UNL     1      -8.051   9.005  65.662  1.00  0.00    -0.115 C  
HETATM   17  O   UNL     1      -7.128   9.695  65.259  1.00  0.00    -0.099 OA 
BRANCH  16  18
HETATM   18  O   UNL     1      -9.156   8.874  64.901  1.00  0.00    -0.143 OA 
BRANCH  18  19
HETATM   19 CA   UNL     1     -10.535  10.818  64.482  1.00  0.00    -0.260 Ca 
BRANCH  19  20
HETATM   20  O   UNL     1     -11.914  12.762  64.064  1.00  0.00    -0.380 OA 
BRANCH  20  21
HETATM   21  C   UNL     1     -12.277  13.296  65.243  1.00  0.00    -0.448 C  
HETATM   22  O   UNL     1     -13.247  14.035  65.261  1.00  0.00    -0.782 OA 
BRANCH  21  23
HETATM   23  C   UNL     1     -11.426  13.141  66.484  1.00  0.00    -0.338 C  
HETATM   24  H   UNL     1     -11.391  11.965  68.014  1.00  0.00     0.000 HD 
HETATM   25  O   UNL     1     -11.926  12.062  67.235  1.00  0.00    -0.591 OA 
BRANCH  23  26
HETATM   26  C   UNL     1     -11.364  14.407  67.392  1.00  0.00    -0.337 C  
HETATM   27  H   UNL     1     -11.648  14.821  69.265  1.00  0.00     0.000 HD 
HETATM   28  O   UNL     1     -11.686  14.050  68.711  1.00  0.00    -0.308 OA 
BRANCH  26  29
HETATM   29  C   UNL     1     -10.033  15.236  67.381  1.00  0.00    -0.223 C  
BRANCH  29  30
HETATM   30  O   UNL     1     -10.068  16.036  66.208  1.00  0.00    -0.277 OA 
BRANCH  30  31
HETATM   31  C   UNL     1      -9.969  17.431  66.411  1.00  0.00    -0.316 C  
HETATM   32  O   UNL     1      -8.672  17.884  66.059  1.00  0.00    -0.492 OA 
HETATM   33  C   UNL     1      -8.564  19.287  66.244  1.00  0.00    -0.325 C  
HETATM   34  H   UNL     1     -11.666  17.386  69.220  1.00  0.00     0.000 HD 
HETATM   35  C   UNL     1      -8.674  19.637  67.751  1.00  0.00    -0.323 C  
HETATM   36  O   UNL     1      -7.660  18.991  68.483  1.00  0.00    -0.302 OA 
HETATM   37  C   UNL     1     -10.056  19.174  68.256  1.00  0.00    -0.416 C  
HETATM   38  O   UNL     1     -11.506  17.230  68.298  1.00  0.00     0.086 OA 
HETATM   39  H   UNL     1      -7.728  19.205  69.406  1.00  0.00     0.000 HD 
HETATM   40  O   UNL     1     -10.189  19.354  69.644  1.00  0.00    -0.505 OA 
HETATM   41  C   UNL     1     -10.230  17.684  67.917  1.00  0.00    -0.357 C  
HETATM   42  H   UNL     1     -11.040  19.069  69.955  1.00  0.00     0.000 HD 
BRANCH  33  43
HETATM   43  C   UNL     1      -7.226  19.743  65.639  1.00  0.00    -0.301 C  
HETATM   44  O   UNL     1      -6.645  18.728  64.866  1.00  0.00    -0.516 OA 
HETATM   45  H   UNL     1      -5.819  19.009  64.492  1.00  0.00     0.000 HD 
ENDBRANCH  33  43
ENDBRANCH  30  31
ENDBRANCH  29  30
BRANCH  29  46
HETATM   46  C   UNL     1      -8.706  14.405  67.490  1.00  0.00    -0.197 C  
HETATM   47  O   UNL     1      -8.740  13.541  68.602  1.00  0.00    -0.320 OA 
HETATM   48  H   UNL     1      -7.938  13.039  68.668  1.00  0.00     0.000 HD 
BRANCH  46  49
HETATM   49  C   UNL     1      -7.405  15.240  67.437  1.00  0.00    -0.210 C  
HETATM   50  H   UNL     1      -6.377  16.396  68.631  1.00  0.00     0.000 HD 
HETATM   51  O   UNL     1      -7.176  15.883  68.663  1.00  0.00    -0.127 OA 
ENDBRANCH  46  49
ENDBRANCH  29  46
ENDBRANCH  26  29
ENDBRANCH  23  26
ENDBRANCH  21  23
ENDBRANCH  20  21
ENDBRANCH  19  20
ENDBRANCH  18  19
ENDBRANCH  16  18
ENDBRANCH  13  16
ENDBRANCH  10  13
ENDBRANCH   7  10
ENDBRANCH   4   7
ENDBRANCH   2   4
TORSDOF 17
ENDMDL
MODEL      207
REMARK 921   NORMALIZED FREE ENERGY PREDICTED BY IDOCK:   -4.47 KCAL/MOL
REMARK 922        TOTAL FREE ENERGY PREDICTED BY IDOCK:  -12.35 KCAL/MOL
REMARK 923 INTER-LIGAND FREE ENERGY PREDICTED BY IDOCK:   -9.51 KCAL/MOL
REMARK 924 INTRA-LIGAND FREE ENERGY PREDICTED BY IDOCK:   -2.84 KCAL/MOL
REMARK 927      BINDING AFFINITY PREDICTED BY RF-SCORE:    0.00 PKD
ROOT
HETATM    1  O   UNL     1     -10.406   4.863  71.964  1.00  0.00    -0.198 OA 
HETATM    2  C   UNL     1     -11.469   5.353  72.736  1.00  0.00    -0.268 C  
HETATM    3  H   UNL     1     -10.017   4.111  72.397  1.00  0.00     0.000 HD 
ENDROOT
BRANCH   2   4
HETATM    4  C   UNL     1     -12.098   6.569  72.035  1.00  0.00    -0.312 C  
HETATM    5  O   UNL     1     -13.494   6.524  72.192  1.00  0.00    -0.493 OA 
HETATM    6  H   UNL     1     -13.883   7.275  71.759  1.00  0.00     0.000 HD 
BRANCH   4   7
HETATM    7  C   UNL     1     -11.556   7.903  72.613  1.00  0.00    -0.377 C  
HETATM    8  H   UNL     1     -10.121   8.462  73.799  1.00  0.00     0.000 HD 
HETATM    9  O   UNL     1     -10.452   7.645  73.446  1.00  0.00    -0.351 OA 
BRANCH   7  10
HETATM   10  C   UNL     1     -11.124   8.887  71.493  1.00  0.00    -0.326 C  
HETATM   11  H   UNL     1     -12.018  10.032  70.220  1.00  0.00     0.000 HD 
HETATM   12  O   UNL     1     -12.282   9.430  70.906  1.00  0.00    -0.286 OA 
BRANCH  10  13
HETATM   13  C   UNL     1     -10.263   8.222  70.384  1.00  0.00    -0.201 C  
HETATM   14  H   UNL     1     -10.081   8.353  68.454  1.00  0.00     0.000 HD 
HETATM   15  O   UNL     1     -10.608   8.759  69.132  1.00  0.00    -0.224 OA 
BRANCH  13  16
HETATM   16  C   UNL     1      -8.778   8.418  70.579  1.00  0.00    -0.147 C  
HETATM   17  O   UNL     1      -8.040   7.446  70.628  1.00  0.00    -0.107 OA 
BRANCH  16  18
HETATM   18  O   UNL     1      -8.249   9.651  70.713  1.00  0.00    -0.273 OA 
BRANCH  18  19
HETATM   19 CA   UNL     1      -8.676  11.308  69.001  1.00  0.00    -0.137 Ca 
BRANCH  19  20
HETATM   20  O   UNL     1      -9.102  12.963  67.288  1.00  0.00    -0.191 OA 
BRANCH  20  21
HETATM   21  C   UNL     1      -8.151  13.911  67.357  1.00  0.00    -0.178 C  
HETATM   22  O   UNL     1      -6.997  13.550  67.521  1.00  0.00    -0.163 OA 
BRANCH  21  23
HETATM   23  C   UNL     1      -8.493  15.382  67.409  1.00  0.00    -0.181 C  
HETATM   24  H   UNL     1      -7.696  17.023  66.778  1.00  0.00     0.000 HD 
HETATM   25  O   UNL     1      -7.481  16.099  66.745  1.00  0.00    -0.225 OA 
BRANCH  23  26
HETATM   26  C   UNL     1      -8.665  15.960  68.847  1.00  0.00    -0.225 C  
HETATM   27  H   UNL     1      -7.506  16.486  70.309  1.00  0.00     0.000 HD 
HETATM   28  O   UNL     1      -7.401  16.134  69.433  1.00  0.00    -0.227 OA 
BRANCH  26  29
HETATM   29  C   UNL     1      -9.501  17.278  68.998  1.00  0.00    -0.141 C  
BRANCH  29  30
HETATM   30  O   UNL     1     -10.828  16.879  69.307  1.00  0.00    -0.311 OA 
BRANCH  30  31
HETATM   31  C   UNL     1     -10.952  15.725  70.113  1.00  0.00    -0.352 C  
HETATM   32  O   UNL     1     -11.496  14.657  69.356  1.00  0.00    -0.264 OA 
HETATM   33  C   UNL     1     -11.612  13.486  70.151  1.00  0.00    -0.120 C  
HETATM   34  H   UNL     1     -11.983  17.384  72.751  1.00  0.00     0.000 HD 
HETATM   35  C   UNL     1     -12.659  13.705  71.274  1.00  0.00    -0.351 C  
HETATM   36  O   UNL     1     -13.915  14.019  70.723  1.00  0.00    -0.080 OA 
HETATM   37  C   UNL     1     -12.175  14.866  72.166  1.00  0.00    -0.348 C  
HETATM   38  O   UNL     1     -11.398  17.160  72.038  1.00  0.00     0.284 OA 
HETATM   39  H   UNL     1     -14.556  14.153  71.411  1.00  0.00     0.000 HD 
HETATM   40  O   UNL     1     -13.130  15.201  73.144  1.00  0.00    -0.456 OA 
HETATM   41  C   UNL     1     -11.907  16.092  71.277  1.00  0.00    -0.449 C  
HETATM   42  H   UNL     1     -12.832  15.916  73.694  1.00  0.00     0.000 HD 
BRANCH  33  43
HETATM   43  C   UNL     1     -11.990  12.320  69.224  1.00  0.00    -0.253 C  
HETATM   44  O   UNL     1     -10.879  11.512  68.942  1.00  0.00    -0.202 OA 
HETATM   45  H   UNL     1     -11.113  10.792  68.370  1.00  0.00     0.000 HD 
ENDBRANCH  33  43
ENDBRANCH  30  31
ENDBRANCH  29  30
BRANCH  29  46
HETATM   46  C   UNL     1      -9.450  18.266  67.780  1.00  0.00    -0.276 C  
HETATM   47  O   UNL     1      -8.324  19.108  67.859  1.00  0.00    -0.283 OA 
HETATM   48  H   UNL     1      -8.293  19.706  67.122  1.00  0.00     0.000 HD 
BRANCH  46  49
HETATM   49  C   UNL     1     -10.755  19.056  67.524  1.00  0.00    -0.446 C  
HETATM   50  H   UNL     1     -11.297  20.705  66.625  1.00  0.00     0.000 HD 
HETATM   51  O   UNL     1     -10.495  20.220  66.782  1.00  0.00    -0.374 OA 
ENDBRANCH  46  49
ENDBRANCH  29  46
ENDBRANCH  26  29
ENDBRANCH  23  26
ENDBRANCH  21  23
ENDBRANCH  20  21
ENDBRANCH  19  20
ENDBRANCH  18  19
ENDBRANCH  16  18
ENDBRANCH  13  16
ENDBRANCH  10  13
ENDBRANCH   7  10
ENDBRANCH   4   7
ENDBRANCH   2   4
TORSDOF 17
ENDMDL
MODEL      208
REMARK 921   NORMALIZED FREE ENERGY PREDICTED BY IDOCK:   -4.46 KCAL/MOL
REMARK 922        TOTAL FREE ENERGY PREDICTED BY IDOCK:  -12.33 KCAL/MOL
REMARK 923 INTER-LIGAND FREE ENERGY PREDICTED BY IDOCK:  -11.42 KCAL/MOL
REMARK 924 INTRA-LIGAND FREE ENERGY PREDICTED BY IDOCK:   -0.91 KCAL/MOL
REMARK 927      BINDING AFFINITY PREDICTED BY RF-SCORE:    0.00 PKD
ROOT
HETATM    1  O   UNL     1     -14.122   7.263  70.961  1.00  0.00    -0.589 OA 
HETATM    2  C   UNL     1     -12.937   7.220  71.709  1.00  0.00    -0.326 C  
HETATM    3  H   UNL     1     -14.847   7.507  71.524  1.00  0.00     0.000 HD 
ENDROOT
BRANCH   2   4
HETATM    4  C   UNL     1     -11.763   6.826  70.797  1.00  0.00    -0.386 C  
HETATM    5  O   UNL     1     -11.704   7.710  69.707  1.00  0.00    -0.442 OA 
HETATM    6  H   UNL     1     -10.979   7.467  69.144  1.00  0.00     0.000 HD 
BRANCH   4   7
HETATM    7  C   UNL     1     -10.413   6.856  71.561  1.00  0.00    -0.212 C  
HETATM    8  H   UNL     1      -8.530   6.634  71.133  1.00  0.00     0.000 HD 
HETATM    9  O   UNL     1      -9.356   6.615  70.665  1.00  0.00    -0.161 OA 
BRANCH   7  10
HETATM   10  C   UNL     1     -10.177   8.217  72.268  1.00  0.00    -0.305 C  
HETATM   11  H   UNL     1     -11.051   9.939  72.309  1.00  0.00     0.000 HD 
HETATM   12  O   UNL     1     -11.196   9.105  71.876  1.00  0.00    -0.364 OA 
BRANCH  10  13
HETATM   13  C   UNL     1      -8.799   8.855  71.937  1.00  0.00    -0.052 C  
HETATM   14  H   UNL     1      -6.940   8.294  71.918  1.00  0.00     0.000 HD 
HETATM   15  O   UNL     1      -7.782   7.904  72.120  1.00  0.00    -0.087 OA 
BRANCH  13  16
HETATM   16  C   UNL     1      -8.702   9.371  70.521  1.00  0.00    -0.231 C  
HETATM   17  O   UNL     1      -7.660   9.237  69.897  1.00  0.00    -0.073 OA 
BRANCH  16  18
HETATM   18  O   UNL     1      -9.744   9.991  69.932  1.00  0.00    -0.227 OA 
BRANCH  18  19
HETATM   19 CA   UNL     1      -9.948   9.923  67.521  1.00  0.00    -0.149 Ca 
BRANCH  19  20
HETATM   20  O   UNL     1     -10.153   9.855  65.111  1.00  0.00    -0.309 OA 
BRANCH  20  21
HETATM   21  C   UNL     1     -10.499  11.077  64.673  1.00  0.00    -0.329 C  
HETATM   22  O   UNL     1     -10.855  11.187  63.512  1.00  0.00    -0.352 OA 
BRANCH  21  23
HETATM   23  C   UNL     1     -10.294  12.315  65.517  1.00  0.00    -0.267 C  
HETATM   24  H   UNL     1      -9.078  12.866  66.912  1.00  0.00     0.000 HD 
HETATM   25  O   UNL     1      -9.207  12.088  66.381  1.00  0.00    -0.216 OA 
BRANCH  23  26
HETATM   26  C   UNL     1     -11.534  12.739  66.361  1.00  0.00    -0.357 C  
HETATM   27  H   UNL     1     -12.655  11.944  67.730  1.00  0.00     0.000 HD 
HETATM   28  O   UNL     1     -11.899  11.685  67.215  1.00  0.00    -0.609 OA 
BRANCH  26  29
HETATM   29  C   UNL     1     -11.423  14.069  67.185  1.00  0.00    -0.352 C  
BRANCH  29  30
HETATM   30  O   UNL     1     -10.533  14.912  66.468  1.00  0.00    -0.284 OA 
BRANCH  30  31
HETATM   31  C   UNL     1     -10.001  16.003  67.193  1.00  0.00    -0.249 C  
HETATM   32  O   UNL     1     -10.520  17.222  66.689  1.00  0.00    -0.313 OA 
HETATM   33  C   UNL     1     -10.006  18.326  67.418  1.00  0.00    -0.334 C  
HETATM   34  H   UNL     1      -6.981  14.728  67.364  1.00  0.00     0.000 HD 
HETATM   35  C   UNL     1      -8.479  18.457  67.181  1.00  0.00    -0.254 C  
HETATM   36  O   UNL     1      -8.205  18.635  65.812  1.00  0.00    -0.473 OA 
HETATM   37  C   UNL     1      -7.798  17.167  67.685  1.00  0.00    -0.176 C  
HETATM   38  O   UNL     1      -7.922  14.753  67.481  1.00  0.00    -0.157 OA 
HETATM   39  H   UNL     1      -7.270  18.715  65.667  1.00  0.00     0.000 HD 
HETATM   40  O   UNL     1      -6.421  17.161  67.400  1.00  0.00    -0.130 OA 
HETATM   41  C   UNL     1      -8.464  15.961  67.002  1.00  0.00    -0.217 C  
HETATM   42  H   UNL     1      -6.002  16.367  67.710  1.00  0.00     0.000 HD 
BRANCH  33  43
HETATM   43  C   UNL     1     -10.771  19.583  66.977  1.00  0.00    -0.477 C  
HETATM   44  O   UNL     1      -9.894  20.641  66.696  1.00  0.00    -0.616 OA 
HETATM   45  H   UNL     1     -10.367  21.418  66.423  1.00  0.00     0.000 HD 
ENDBRANCH  33  43
ENDBRANCH  30  31
ENDBRANCH  29  30
BRANCH  29  46
HETATM   46  C   UNL     1     -11.005  13.912  68.689  1.00  0.00    -0.261 C  
HETATM   47  O   UNL     1     -10.083  12.858  68.850  1.00  0.00    -0.418 OA 
HETATM   48  H   UNL     1      -9.830  12.763  69.760  1.00  0.00     0.000 HD 
BRANCH  46  49
HETATM   49  C   UNL     1     -12.180  13.818  69.689  1.00  0.00    -0.305 C  
HETATM   50  H   UNL     1     -12.862  12.547  71.009  1.00  0.00     0.000 HD 
HETATM   51  O   UNL     1     -12.140  12.605  70.394  1.00  0.00    -0.364 OA 
ENDBRANCH  46  49
ENDBRANCH  29  46
ENDBRANCH  26  29
ENDBRANCH  23  26
ENDBRANCH  21  23
ENDBRANCH  20  21
ENDBRANCH  19  20
ENDBRANCH  18  19
ENDBRANCH  16  18
ENDBRANCH  13  16
ENDBRANCH  10  13
ENDBRANCH   7  10
ENDBRANCH   4   7
ENDBRANCH   2   4
TORSDOF 17
ENDMDL
MODEL      209
REMARK 921   NORMALIZED FREE ENERGY PREDICTED BY IDOCK:   -4.46 KCAL/MOL
REMARK 922        TOTAL FREE ENERGY PREDICTED BY IDOCK:  -12.33 KCAL/MOL
REMARK 923 INTER-LIGAND FREE ENERGY PREDICTED BY IDOCK:  -10.12 KCAL/MOL
REMARK 924 INTRA-LIGAND FREE ENERGY PREDICTED BY IDOCK:   -2.21 KCAL/MOL
REMARK 927      BINDING AFFINITY PREDICTED BY RF-SCORE:    0.00 PKD
ROOT
HETATM    1  O   UNL     1      -9.060  16.052  67.388  1.00  0.00    -0.196 OA 
HETATM    2  C   UNL     1      -9.468  17.063  66.507  1.00  0.00    -0.276 C  
HETATM    3  H   UNL     1      -8.184  16.240  67.705  1.00  0.00     0.000 HD 
ENDROOT
BRANCH   2   4
HETATM    4  C   UNL     1     -10.886  16.759  65.994  1.00  0.00    -0.026 C  
HETATM    5  O   UNL     1     -11.020  17.247  64.682  1.00  0.00    -1.013 OA 
HETATM    6  H   UNL     1     -11.896  17.059  64.365  1.00  0.00     0.000 HD 
BRANCH   4   7
HETATM    7  C   UNL     1     -11.186  15.237  66.012  1.00  0.00    -0.231 C  
HETATM    8  H   UNL     1     -11.927  13.947  67.264  1.00  0.00     0.000 HD 
HETATM    9  O   UNL     1     -11.744  14.880  67.253  1.00  0.00    -0.362 OA 
BRANCH   7  10
HETATM   10  C   UNL     1     -12.164  14.824  64.881  1.00  0.00    -0.300 C  
HETATM   11  H   UNL     1     -13.983  14.183  64.772  1.00  0.00     0.000 HD 
HETATM   12  O   UNL     1     -13.384  14.435  65.465  1.00  0.00    -0.518 OA 
BRANCH  10  13
HETATM   13  C   UNL     1     -11.635  13.659  63.999  1.00  0.00    -0.317 C  
HETATM   14  H   UNL     1      -9.912  12.879  63.558  1.00  0.00     0.000 HD 
HETATM   15  O   UNL     1     -10.235  13.592  64.097  1.00  0.00    -0.344 OA 
BRANCH  13  16
HETATM   16  C   UNL     1     -12.193  12.311  64.389  1.00  0.00    -0.402 C  
HETATM   17  O   UNL     1     -13.137  11.845  63.771  1.00  0.00    -0.665 OA 
BRANCH  16  18
HETATM   18  O   UNL     1     -11.673  11.613  65.419  1.00  0.00    -0.188 OA 
BRANCH  18  19
HETATM   19 CA   UNL     1      -9.811  12.544  66.653  1.00  0.00    -0.205 Ca 
BRANCH  19  20
HETATM   20  O   UNL     1      -7.950  13.475  67.888  1.00  0.00    -0.132 OA 
BRANCH  20  21
HETATM   21  C   UNL     1      -7.362  12.491  68.589  1.00  0.00    -0.099 C  
HETATM   22  O   UNL     1      -6.479  12.797  69.373  1.00  0.00    -0.111 OA 
BRANCH  21  23
HETATM   23  C   UNL     1      -7.645  11.032  68.308  1.00  0.00    -0.106 C  
HETATM   24  H   UNL     1      -7.870   9.934  66.736  1.00  0.00     0.000 HD 
HETATM   25  O   UNL     1      -7.692  10.850  66.913  1.00  0.00    -0.122 OA 
BRANCH  23  26
HETATM   26  C   UNL     1      -8.966  10.493  68.936  1.00  0.00    -0.172 C  
HETATM   27  H   UNL     1     -10.734  11.186  69.327  1.00  0.00     0.000 HD 
HETATM   28  O   UNL     1      -9.929  11.515  68.945  1.00  0.00    -0.187 OA 
BRANCH  26  29
HETATM   29  C   UNL     1      -9.583   9.195  68.309  1.00  0.00    -0.148 C  
BRANCH  29  30
HETATM   30  O   UNL     1     -10.829   8.989  68.958  1.00  0.00    -0.179 OA 
BRANCH  30  31
HETATM   31  C   UNL     1     -10.763   8.688  70.338  1.00  0.00    -0.224 C  
HETATM   32  O   UNL     1     -10.579   7.295  70.524  1.00  0.00    -0.215 OA 
HETATM   33  C   UNL     1     -10.495   6.980  71.906  1.00  0.00    -0.200 C  
HETATM   34  H   UNL     1     -13.152  10.785  71.157  1.00  0.00     0.000 HD 
HETATM   35  C   UNL     1     -11.852   7.263  72.601  1.00  0.00    -0.096 C  
HETATM   36  O   UNL     1     -12.876   6.500  72.011  1.00  0.00    -0.499 OA 
HETATM   37  C   UNL     1     -12.169   8.765  72.451  1.00  0.00    -0.326 C  
HETATM   38  O   UNL     1     -12.326  10.512  70.776  1.00  0.00    -0.315 OA 
HETATM   39  H   UNL     1     -13.708   6.673  72.437  1.00  0.00     0.000 HD 
HETATM   40  O   UNL     1     -13.442   9.080  72.958  1.00  0.00    -0.888 OA 
HETATM   41  C   UNL     1     -12.110   9.134  70.959  1.00  0.00    -0.263 C  
HETATM   42  H   UNL     1     -13.637  10.005  72.866  1.00  0.00     0.000 HD 
BRANCH  33  43
HETATM   43  C   UNL     1     -10.074   5.507  72.032  1.00  0.00    -0.186 C  
HETATM   44  O   UNL     1     -10.521   4.755  70.936  1.00  0.00    -0.163 OA 
HETATM   45  H   UNL     1     -10.261   3.845  71.014  1.00  0.00     0.000 HD 
ENDBRANCH  33  43
ENDBRANCH  30  31
ENDBRANCH  29  30
BRANCH  29  46
HETATM   46  C   UNL     1      -8.677   7.914  68.353  1.00  0.00    -0.131 C  
HETATM   47  O   UNL     1      -7.321   8.248  68.166  1.00  0.00    -0.091 OA 
HETATM   48  H   UNL     1      -6.773   7.473  68.192  1.00  0.00     0.000 HD 
BRANCH  46  49
HETATM   49  C   UNL     1      -9.129   6.761  67.427  1.00  0.00    -0.117 C  
HETATM   50  H   UNL     1      -8.297   5.378  66.323  1.00  0.00     0.000 HD 
HETATM   51  O   UNL     1      -8.019   6.087  66.893  1.00  0.00    -0.101 OA 
ENDBRANCH  46  49
ENDBRANCH  29  46
ENDBRANCH  26  29
ENDBRANCH  23  26
ENDBRANCH  21  23
ENDBRANCH  20  21
ENDBRANCH  19  20
ENDBRANCH  18  19
ENDBRANCH  16  18
ENDBRANCH  13  16
ENDBRANCH  10  13
ENDBRANCH   7  10
ENDBRANCH   4   7
ENDBRANCH   2   4
TORSDOF 17
ENDMDL
MODEL      210
REMARK 921   NORMALIZED FREE ENERGY PREDICTED BY IDOCK:   -4.46 KCAL/MOL
REMARK 922        TOTAL FREE ENERGY PREDICTED BY IDOCK:  -12.33 KCAL/MOL
REMARK 923 INTER-LIGAND FREE ENERGY PREDICTED BY IDOCK:   -9.07 KCAL/MOL
REMARK 924 INTRA-LIGAND FREE ENERGY PREDICTED BY IDOCK:   -3.25 KCAL/MOL
REMARK 927      BINDING AFFINITY PREDICTED BY RF-SCORE:    0.00 PKD
ROOT
HETATM    1  O   UNL     1      -9.416  14.499  68.332  1.00  0.00    -0.197 OA 
HETATM    2  C   UNL     1     -10.284  15.586  68.161  1.00  0.00    -0.227 C  
HETATM    3  H   UNL     1      -8.554  14.723  68.001  1.00  0.00     0.000 HD 
ENDROOT
BRANCH   2   4
HETATM    4  C   UNL     1     -11.680  15.222  68.696  1.00  0.00    -0.346 C  
HETATM    5  O   UNL     1     -12.299  14.327  67.807  1.00  0.00    -0.596 OA 
HETATM    6  H   UNL     1     -13.162  14.102  68.137  1.00  0.00     0.000 HD 
BRANCH   4   7
HETATM    7  C   UNL     1     -11.601  14.579  70.105  1.00  0.00    -0.276 C  
HETATM    8  H   UNL     1     -10.913  15.069  71.857  1.00  0.00     0.000 HD 
HETATM    9  O   UNL     1     -10.962  15.463  70.994  1.00  0.00    -0.342 OA 
BRANCH   7  10
HETATM   10  C   UNL     1     -13.006  14.229  70.663  1.00  0.00    -0.257 C  
HETATM   11  H   UNL     1     -14.483  15.204  71.437  1.00  0.00     0.000 HD 
HETATM   12  O   UNL     1     -13.623  15.418  71.095  1.00  0.00    -0.497 OA 
BRANCH  10  13
HETATM   13  C   UNL     1     -12.969  13.224  71.847  1.00  0.00    -0.311 C  
HETATM   14  H   UNL     1     -14.097  12.766  73.360  1.00  0.00     0.000 HD 
HETATM   15  O   UNL     1     -14.120  13.381  72.636  1.00  0.00    -0.767 OA 
BRANCH  13  16
HETATM   16  C   UNL     1     -12.901  11.780  71.407  1.00  0.00    -0.335 C  
HETATM   17  O   UNL     1     -13.193  10.893  72.194  1.00  0.00    -0.474 OA 
BRANCH  16  18
HETATM   18  O   UNL     1     -12.511  11.450  70.160  1.00  0.00    -0.260 OA 
BRANCH  18  19
HETATM   19 CA   UNL     1     -10.150  11.442  69.625  1.00  0.00    -0.328 Ca 
BRANCH  19  20
HETATM   20  O   UNL     1      -7.790  11.434  69.092  1.00  0.00    -0.085 OA 
BRANCH  20  21
HETATM   21  C   UNL     1      -7.649  11.477  67.756  1.00  0.00    -0.111 C  
HETATM   22  O   UNL     1      -7.112  12.458  67.270  1.00  0.00    -0.147 OA 
BRANCH  21  23
HETATM   23  C   UNL     1      -8.284  10.442  66.854  1.00  0.00    -0.124 C  
HETATM   24  H   UNL     1      -9.940   9.452  66.818  1.00  0.00     0.000 HD 
HETATM   25  O   UNL     1      -9.542  10.102  67.384  1.00  0.00    -0.151 OA 
BRANCH  23  26
HETATM   26  C   UNL     1      -7.444   9.142  66.665  1.00  0.00    -0.086 C  
HETATM   27  H   UNL     1      -5.572   8.642  66.743  1.00  0.00     0.000 HD 
HETATM   28  O   UNL     1      -6.084   9.434  66.859  1.00  0.00    -0.061 OA 
BRANCH  26  29
HETATM   29  C   UNL     1      -7.843   7.895  67.528  1.00  0.00    -0.122 C  
BRANCH  29  30
HETATM   30  O   UNL     1      -7.349   8.139  68.837  1.00  0.00    -0.086 OA 
BRANCH  30  31
HETATM   31  C   UNL     1      -8.081   7.547  69.891  1.00  0.00    -0.129 C  
HETATM   32  O   UNL     1      -9.455   7.472  69.549  1.00  0.00    -0.156 OA 
HETATM   33  C   UNL     1     -10.200   6.864  70.593  1.00  0.00    -0.195 C  
HETATM   34  H   UNL     1      -6.418   9.111  72.250  1.00  0.00     0.000 HD 
HETATM   35  C   UNL     1     -10.189   7.769  71.853  1.00  0.00    -0.202 C  
HETATM   36  O   UNL     1     -10.741   9.029  71.560  1.00  0.00    -0.297 OA 
HETATM   37  C   UNL     1      -8.727   7.935  72.316  1.00  0.00    -0.147 C  
HETATM   38  O   UNL     1      -6.534   8.556  71.488  1.00  0.00    -0.052 OA 
HETATM   39  H   UNL     1     -10.734   9.583  72.332  1.00  0.00     0.000 HD 
HETATM   40  O   UNL     1      -8.622   8.837  73.390  1.00  0.00    -0.320 OA 
HETATM   41  C   UNL     1      -7.892   8.453  71.134  1.00  0.00    -0.106 C  
HETATM   42  H   UNL     1      -7.722   8.939  73.676  1.00  0.00     0.000 HD 
BRANCH  33  43
HETATM   43  C   UNL     1     -11.624   6.611  70.073  1.00  0.00    -0.362 C  
HETATM   44  O   UNL     1     -12.585   7.166  70.931  1.00  0.00    -0.533 OA 
HETATM   45  H   UNL     1     -13.465   7.010  70.610  1.00  0.00     0.000 HD 
ENDBRANCH  33  43
ENDBRANCH  30  31
ENDBRANCH  29  30
BRANCH  29  46
HETATM   46  C   UNL     1      -7.382   6.501  66.974  1.00  0.00    -0.079 C  
HETATM   47  O   UNL     1      -6.430   6.655  65.947  1.00  0.00    -0.043 OA 
HETATM   48  H   UNL     1      -6.151   5.812  65.612  1.00  0.00     0.000 HD 
BRANCH  46  49
HETATM   49  C   UNL     1      -8.528   5.545  66.571  1.00  0.00    -0.113 C  
HETATM   50  H   UNL     1      -9.383   4.920  64.928  1.00  0.00     0.000 HD 
HETATM   51  O   UNL     1      -8.678   5.507  65.176  1.00  0.00    -0.154 OA 
ENDBRANCH  46  49
ENDBRANCH  29  46
ENDBRANCH  26  29
ENDBRANCH  23  26
ENDBRANCH  21  23
ENDBRANCH  20  21
ENDBRANCH  19  20
ENDBRANCH  18  19
ENDBRANCH  16  18
ENDBRANCH  13  16
ENDBRANCH  10  13
ENDBRANCH   7  10
ENDBRANCH   4   7
ENDBRANCH   2   4
TORSDOF 17
ENDMDL
MODEL      211
REMARK 921   NORMALIZED FREE ENERGY PREDICTED BY IDOCK:   -4.46 KCAL/MOL
REMARK 922        TOTAL FREE ENERGY PREDICTED BY IDOCK:  -12.33 KCAL/MOL
REMARK 923 INTER-LIGAND FREE ENERGY PREDICTED BY IDOCK:   -9.69 KCAL/MOL
REMARK 924 INTRA-LIGAND FREE ENERGY PREDICTED BY IDOCK:   -2.64 KCAL/MOL
REMARK 927      BINDING AFFINITY PREDICTED BY RF-SCORE:    0.00 PKD
ROOT
HETATM    1  O   UNL     1     -11.467   4.716  64.961  1.00  0.00    -1.052 OA 
HETATM    2  C   UNL     1     -10.529   4.543  65.987  1.00  0.00    -0.198 C  
HETATM    3  H   UNL     1     -12.346   4.681  65.322  1.00  0.00     0.000 HD 
ENDROOT
BRANCH   2   4
HETATM    4  C   UNL     1      -9.107   4.600  65.403  1.00  0.00    -0.149 C  
HETATM    5  O   UNL     1      -9.184   4.756  64.008  1.00  0.00    -0.300 OA 
HETATM    6  H   UNL     1      -8.305   4.791  63.647  1.00  0.00     0.000 HD 
BRANCH   4   7
HETATM    7  C   UNL     1      -8.288   5.770  66.010  1.00  0.00    -0.126 C  
HETATM    8  H   UNL     1      -7.182   6.070  67.581  1.00  0.00     0.000 HD 
HETATM    9  O   UNL     1      -7.683   5.353  67.209  1.00  0.00    -0.094 OA 
BRANCH   7  10
HETATM   10  C   UNL     1      -7.188   6.273  65.038  1.00  0.00    -0.070 C  
HETATM   11  H   UNL     1      -5.341   5.838  64.674  1.00  0.00     0.000 HD 
HETATM   12  O   UNL     1      -6.015   5.530  65.269  1.00  0.00    -0.024 OA 
BRANCH  10  13
HETATM   13  C   UNL     1      -6.865   7.784  65.197  1.00  0.00    -0.051 C  
HETATM   14  H   UNL     1      -5.283   8.911  65.175  1.00  0.00     0.000 HD 
HETATM   15  O   UNL     1      -5.480   7.987  65.077  1.00  0.00    -0.035 OA 
BRANCH  13  16
HETATM   16  C   UNL     1      -7.552   8.656  64.172  1.00  0.00    -0.121 C  
HETATM   17  O   UNL     1      -8.145   8.139  63.238  1.00  0.00    -0.157 OA 
BRANCH  16  18
HETATM   18  O   UNL     1      -7.513  10.000  64.263  1.00  0.00    -0.134 OA 
BRANCH  18  19
HETATM   19 CA   UNL     1      -9.484  11.278  63.679  1.00  0.00    -0.186 Ca 
BRANCH  19  20
HETATM   20  O   UNL     1     -11.454  12.556  63.094  1.00  0.00    -0.414 OA 
BRANCH  20  21
HETATM   21  C   UNL     1     -12.324  12.500  64.118  1.00  0.00    -0.462 C  
HETATM   22  O   UNL     1     -13.357  11.873  63.955  1.00  0.00    -0.600 OA 
BRANCH  21  23
HETATM   23  C   UNL     1     -12.132  13.323  65.372  1.00  0.00    -0.422 C  
HETATM   24  H   UNL     1     -12.987  14.854  66.180  1.00  0.00     0.000 HD 
HETATM   25  O   UNL     1     -13.107  14.337  65.392  1.00  0.00    -0.685 OA 
BRANCH  23  26
HETATM   26  C   UNL     1     -10.722  13.971  65.516  1.00  0.00    -0.313 C  
HETATM   27  H   UNL     1      -9.918  15.703  65.177  1.00  0.00     0.000 HD 
HETATM   28  O   UNL     1     -10.778  15.308  65.089  1.00  0.00    -0.376 OA 
BRANCH  26  29
HETATM   29  C   UNL     1     -10.036  13.898  66.924  1.00  0.00    -0.260 C  
BRANCH  29  30
HETATM   30  O   UNL     1     -10.851  13.052  67.724  1.00  0.00    -0.232 OA 
BRANCH  30  31
HETATM   31  C   UNL     1     -10.167  12.072  68.477  1.00  0.00    -0.212 C  
HETATM   32  O   UNL     1      -8.971  11.694  67.815  1.00  0.00    -0.159 OA 
HETATM   33  C   UNL     1      -8.265  10.721  68.569  1.00  0.00    -0.136 C  
HETATM   34  H   UNL     1     -12.900  10.455  69.308  1.00  0.00     0.000 HD 
HETATM   35  C   UNL     1      -9.078   9.401  68.629  1.00  0.00    -0.132 C  
HETATM   36  O   UNL     1      -9.312   8.906  67.333  1.00  0.00    -0.133 OA 
HETATM   37  C   UNL     1     -10.423   9.692  69.327  1.00  0.00    -0.217 C  
HETATM   38  O   UNL     1     -12.319  11.202  69.236  1.00  0.00    -0.381 OA 
HETATM   39  H   UNL     1      -9.810   8.098  67.370  1.00  0.00     0.000 HD 
HETATM   40  O   UNL     1     -11.267   8.567  69.319  1.00  0.00    -0.433 OA 
HETATM   41  C   UNL     1     -11.116  10.853  68.594  1.00  0.00    -0.252 C  
HETATM   42  H   UNL     1     -12.095   8.746  69.749  1.00  0.00     0.000 HD 
BRANCH  33  43
HETATM   43  C   UNL     1      -6.888  10.524  67.918  1.00  0.00    -0.069 C  
HETATM   44  O   UNL     1      -6.820  11.158  66.668  1.00  0.00    -0.126 OA 
HETATM   45  H   UNL     1      -5.968  11.036  66.266  1.00  0.00     0.000 HD 
ENDBRANCH  33  43
ENDBRANCH  30  31
ENDBRANCH  29  30
BRANCH  29  46
HETATM   46  C   UNL     1      -9.752  15.274  67.622  1.00  0.00    -0.208 C  
HETATM   47  O   UNL     1      -8.632  15.187  68.473  1.00  0.00    -0.149 OA 
HETATM   48  H   UNL     1      -8.460  16.020  68.895  1.00  0.00     0.000 HD 
BRANCH  46  49
HETATM   49  C   UNL     1     -10.971  15.917  68.324  1.00  0.00    -0.329 C  
HETATM   50  H   UNL     1     -11.842  17.665  68.402  1.00  0.00     0.000 HD 
HETATM   51  O   UNL     1     -11.093  17.270  67.971  1.00  0.00    -0.289 OA 
ENDBRANCH  46  49
ENDBRANCH  29  46
ENDBRANCH  26  29
ENDBRANCH  23  26
ENDBRANCH  21  23
ENDBRANCH  20  21
ENDBRANCH  19  20
ENDBRANCH  18  19
ENDBRANCH  16  18
ENDBRANCH  13  16
ENDBRANCH  10  13
ENDBRANCH   7  10
ENDBRANCH   4   7
ENDBRANCH   2   4
TORSDOF 17
ENDMDL
MODEL      212
REMARK 921   NORMALIZED FREE ENERGY PREDICTED BY IDOCK:   -4.45 KCAL/MOL
REMARK 922        TOTAL FREE ENERGY PREDICTED BY IDOCK:  -12.31 KCAL/MOL
REMARK 923 INTER-LIGAND FREE ENERGY PREDICTED BY IDOCK:   -9.66 KCAL/MOL
REMARK 924 INTRA-LIGAND FREE ENERGY PREDICTED BY IDOCK:   -2.64 KCAL/MOL
REMARK 927      BINDING AFFINITY PREDICTED BY RF-SCORE:    0.00 PKD
ROOT
HETATM    1  O   UNL     1     -10.412  18.945  65.651  1.00  0.00    -0.569 OA 
HETATM    2  C   UNL     1     -10.957  19.515  66.810  1.00  0.00    -0.282 C  
HETATM    3  H   UNL     1     -11.020  19.046  64.928  1.00  0.00     0.000 HD 
ENDROOT
BRANCH   2   4
HETATM    4  C   UNL     1      -9.973  19.351  67.980  1.00  0.00    -0.387 C  
HETATM    5  O   UNL     1     -10.412  20.125  69.068  1.00  0.00    -0.558 OA 
HETATM    6  H   UNL     1      -9.804  20.024  69.791  1.00  0.00     0.000 HD 
BRANCH   4   7
HETATM    7  C   UNL     1      -9.849  17.868  68.417  1.00  0.00    -0.355 C  
HETATM    8  H   UNL     1     -10.829  16.213  68.133  1.00  0.00     0.000 HD 
HETATM    9  O   UNL     1     -10.905  17.121  67.864  1.00  0.00    -0.363 OA 
BRANCH   7  10
HETATM   10  C   UNL     1      -8.500  17.242  67.971  1.00  0.00    -0.229 C  
HETATM   11  H   UNL     1      -7.137  16.139  68.781  1.00  0.00     0.000 HD 
HETATM   12  O   UNL     1      -7.963  16.522  69.054  1.00  0.00    -0.237 OA 
BRANCH  10  13
HETATM   13  C   UNL     1      -7.457  18.292  67.499  1.00  0.00    -0.214 C  
HETATM   14  H   UNL     1      -5.889  19.170  68.234  1.00  0.00     0.000 HD 
HETATM   15  O   UNL     1      -6.526  18.528  68.523  1.00  0.00    -0.218 OA 
BRANCH  13  16
HETATM   16  C   UNL     1      -6.694  17.868  66.266  1.00  0.00    -0.259 C  
HETATM   17  O   UNL     1      -6.872  18.456  65.211  1.00  0.00    -0.520 OA 
BRANCH  16  18
HETATM   18  O   UNL     1      -5.824  16.839  66.306  1.00  0.00    -0.273 OA 
BRANCH  18  19
HETATM   19 CA   UNL     1      -6.210  15.029  67.866  1.00  0.00    -0.086 Ca 
BRANCH  19  20
HETATM   20  O   UNL     1      -6.596  13.219  69.425  1.00  0.00    -0.109 OA 
BRANCH  20  21
HETATM   21  C   UNL     1      -6.572  12.056  68.752  1.00  0.00    -0.082 C  
HETATM   22  O   UNL     1      -5.826  11.969  67.791  1.00  0.00    -0.056 OA 
BRANCH  21  23
HETATM   23  C   UNL     1      -7.553  10.944  69.047  1.00  0.00    -0.135 C  
HETATM   24  H   UNL     1      -7.461   9.030  69.282  1.00  0.00     0.000 HD 
HETATM   25  O   UNL     1      -6.846   9.729  69.097  1.00  0.00    -0.052 OA 
BRANCH  23  26
HETATM   26  C   UNL     1      -8.716  10.812  68.017  1.00  0.00    -0.132 C  
HETATM   27  H   UNL     1      -9.030   9.881  66.346  1.00  0.00     0.000 HD 
HETATM   28  O   UNL     1      -8.320   9.961  66.973  1.00  0.00    -0.120 OA 
BRANCH  26  29
HETATM   29  C   UNL     1     -10.114  10.358  68.565  1.00  0.00    -0.171 C  
BRANCH  29  30
HETATM   30  O   UNL     1     -10.377   9.087  67.988  1.00  0.00    -0.206 OA 
BRANCH  30  31
HETATM   31  C   UNL     1     -10.642   8.041  68.900  1.00  0.00    -0.140 C  
HETATM   32  O   UNL     1     -11.005   8.574  70.162  1.00  0.00    -0.241 OA 
HETATM   33  C   UNL     1     -11.288   7.533  71.084  1.00  0.00    -0.267 C  
HETATM   34  H   UNL     1      -8.143   6.181  67.862  1.00  0.00     0.000 HD 
HETATM   35  C   UNL     1     -10.000   6.725  71.389  1.00  0.00    -0.179 C  
HETATM   36  O   UNL     1      -9.007   7.564  71.926  1.00  0.00    -0.120 OA 
HETATM   37  C   UNL     1      -9.498   6.099  70.071  1.00  0.00    -0.154 C  
HETATM   38  O   UNL     1      -8.943   6.686  67.784  1.00  0.00    -0.115 OA 
HETATM   39  H   UNL     1      -8.218   7.069  72.112  1.00  0.00     0.000 HD 
HETATM   40  O   UNL     1      -8.266   5.442  70.245  1.00  0.00    -0.097 OA 
HETATM   41  C   UNL     1      -9.336   7.217  69.027  1.00  0.00    -0.140 C  
HETATM   42  H   UNL     1      -7.957   5.057  69.433  1.00  0.00     0.000 HD 
BRANCH  33  43
HETATM   43  C   UNL     1     -11.886   8.169  72.349  1.00  0.00    -0.388 C  
HETATM   44  O   UNL     1     -11.189   7.771  73.498  1.00  0.00    -0.518 OA 
HETATM   45  H   UNL     1     -11.558   8.165  74.279  1.00  0.00     0.000 HD 
ENDBRANCH  33  43
ENDBRANCH  30  31
ENDBRANCH  29  30
BRANCH  29  46
HETATM   46  C   UNL     1     -11.298  11.364  68.342  1.00  0.00    -0.281 C  
HETATM   47  O   UNL     1     -12.528  10.785  68.711  1.00  0.00    -0.793 OA 
HETATM   48  H   UNL     1     -13.244  11.393  68.577  1.00  0.00     0.000 HD 
BRANCH  46  49
HETATM   49  C   UNL     1     -11.353  12.010  66.939  1.00  0.00    -0.341 C  
HETATM   50  H   UNL     1     -10.948  13.740  66.123  1.00  0.00     0.000 HD 
HETATM   51  O   UNL     1     -10.914  13.342  66.985  1.00  0.00    -0.280 OA 
ENDBRANCH  46  49
ENDBRANCH  29  46
ENDBRANCH  26  29
ENDBRANCH  23  26
ENDBRANCH  21  23
ENDBRANCH  20  21
ENDBRANCH  19  20
ENDBRANCH  18  19
ENDBRANCH  16  18
ENDBRANCH  13  16
ENDBRANCH  10  13
ENDBRANCH   7  10
ENDBRANCH   4   7
ENDBRANCH   2   4
TORSDOF 17
ENDMDL
MODEL      213
REMARK 921   NORMALIZED FREE ENERGY PREDICTED BY IDOCK:   -4.44 KCAL/MOL
REMARK 922        TOTAL FREE ENERGY PREDICTED BY IDOCK:  -12.30 KCAL/MOL
REMARK 923 INTER-LIGAND FREE ENERGY PREDICTED BY IDOCK:  -11.02 KCAL/MOL
REMARK 924 INTRA-LIGAND FREE ENERGY PREDICTED BY IDOCK:   -1.28 KCAL/MOL
REMARK 927      BINDING AFFINITY PREDICTED BY RF-SCORE:    0.00 PKD
ROOT
HETATM    1  O   UNL     1     -10.017   9.695  66.082  1.00  0.00    -0.256 OA 
HETATM    2  C   UNL     1     -10.845   9.354  67.160  1.00  0.00    -0.062 C  
HETATM    3  H   UNL     1     -10.193  10.590  65.814  1.00  0.00     0.000 HD 
ENDROOT
BRANCH   2   4
HETATM    4  C   UNL     1     -10.560   7.906  67.594  1.00  0.00    -0.206 C  
HETATM    5  O   UNL     1      -9.897   7.232  66.553  1.00  0.00    -0.321 OA 
HETATM    6  H   UNL     1      -9.721   6.337  66.822  1.00  0.00     0.000 HD 
BRANCH   4   7
HETATM    7  C   UNL     1      -9.690   7.857  68.878  1.00  0.00    -0.158 C  
HETATM    8  H   UNL     1      -8.533   9.071  69.861  1.00  0.00     0.000 HD 
HETATM    9  O   UNL     1      -9.066   9.102  69.075  1.00  0.00    -0.140 OA 
BRANCH   7  10
HETATM   10  C   UNL     1     -10.531   7.509  70.135  1.00  0.00    -0.222 C  
HETATM   11  H   UNL     1     -12.247   6.693  70.485  1.00  0.00     0.000 HD 
HETATM   12  O   UNL     1     -11.732   6.907  69.715  1.00  0.00    -0.206 OA 
BRANCH  10  13
HETATM   13  C   UNL     1     -10.870   8.744  71.014  1.00  0.00    -0.260 C  
HETATM   14  H   UNL     1     -11.930  10.363  70.846  1.00  0.00     0.000 HD 
HETATM   15  O   UNL     1     -11.723   9.607  70.308  1.00  0.00    -0.240 OA 
BRANCH  13  16
HETATM   16  C   UNL     1     -11.545   8.387  72.317  1.00  0.00    -0.383 C  
HETATM   17  O   UNL     1     -10.970   7.668  73.120  1.00  0.00    -0.392 OA 
BRANCH  16  18
HETATM   18  O   UNL     1     -12.782   8.838  72.607  1.00  0.00    -0.375 OA 
BRANCH  18  19
HETATM   19 CA   UNL     1     -13.179  11.224  72.681  1.00  0.00    -0.519 Ca 
BRANCH  19  20
HETATM   20  O   UNL     1     -13.575  13.610  72.755  1.00  0.00    -0.672 OA 
BRANCH  20  21
HETATM   21  C   UNL     1     -13.264  14.137  71.558  1.00  0.00    -0.353 C  
HETATM   22  O   UNL     1     -14.149  14.219  70.724  1.00  0.00     0.111 OA 
BRANCH  21  23
HETATM   23  C   UNL     1     -11.837  14.460  71.176  1.00  0.00    -0.251 C  
HETATM   24  H   UNL     1     -10.369  15.434  71.965  1.00  0.00     0.000 HD 
HETATM   25  O   UNL     1     -11.265  15.231  72.204  1.00  0.00    -0.420 OA 
BRANCH  23  26
HETATM   26  C   UNL     1     -11.682  15.220  69.824  1.00  0.00    -0.323 C  
HETATM   27  H   UNL     1     -10.899  16.888  69.219  1.00  0.00     0.000 HD 
HETATM   28  O   UNL     1     -10.993  16.425  70.043  1.00  0.00    -0.354 OA 
BRANCH  26  29
HETATM   29  C   UNL     1     -11.019  14.444  68.634  1.00  0.00    -0.250 C  
BRANCH  29  30
HETATM   30  O   UNL     1     -12.033  13.620  68.078  1.00  0.00    -0.360 OA 
BRANCH  30  31
HETATM   31  C   UNL     1     -12.296  13.811  66.702  1.00  0.00    -0.357 C  
HETATM   32  O   UNL     1     -11.879  12.675  65.964  1.00  0.00    -0.404 OA 
HETATM   33  C   UNL     1     -12.151  12.847  64.581  1.00  0.00    -0.418 C  
HETATM   34  H   UNL     1     -11.377  16.962  66.717  1.00  0.00     0.000 HD 
HETATM   35  C   UNL     1     -11.280  13.993  64.005  1.00  0.00     0.064 C  
HETATM   36  O   UNL     1      -9.913  13.709  64.178  1.00  0.00    -0.746 OA 
HETATM   37  C   UNL     1     -11.640  15.296  64.749  1.00  0.00    -0.322 C  
HETATM   38  O   UNL     1     -11.871  16.199  66.988  1.00  0.00     0.545 OA 
HETATM   39  H   UNL     1      -9.380  14.412  63.825  1.00  0.00     0.000 HD 
HETATM   40  O   UNL     1     -10.810  16.362  64.361  1.00  0.00    -0.996 OA 
HETATM   41  C   UNL     1     -11.488  15.057  66.261  1.00  0.00    -0.214 C  
HETATM   42  H   UNL     1     -11.032  17.164  64.819  1.00  0.00     0.000 HD 
BRANCH  33  43
HETATM   43  C   UNL     1     -11.887  11.507  63.876  1.00  0.00    -0.112 C  
HETATM   44  O   UNL     1     -12.779  11.307  62.813  1.00  0.00    -0.876 OA 
HETATM   45  H   UNL     1     -12.616  10.479  62.377  1.00  0.00     0.000 HD 
ENDBRANCH  33  43
ENDBRANCH  30  31
ENDBRANCH  29  30
BRANCH  29  46
HETATM   46  C   UNL     1      -9.722  13.631  68.982  1.00  0.00     0.190 C  
HETATM   47  O   UNL     1      -8.642  14.494  69.250  1.00  0.00    -0.364 OA 
HETATM   48  H   UNL     1      -7.857  14.002  69.460  1.00  0.00     0.000 HD 
BRANCH  46  49
HETATM   49  C   UNL     1      -9.351  12.525  67.967  1.00  0.00    -0.205 C  
HETATM   50  H   UNL     1      -8.271  12.349  66.348  1.00  0.00     0.000 HD 
HETATM   51  O   UNL     1      -8.499  13.028  66.972  1.00  0.00    -0.193 OA 
ENDBRANCH  46  49
ENDBRANCH  29  46
ENDBRANCH  26  29
ENDBRANCH  23  26
ENDBRANCH  21  23
ENDBRANCH  20  21
ENDBRANCH  19  20
ENDBRANCH  18  19
ENDBRANCH  16  18
ENDBRANCH  13  16
ENDBRANCH  10  13
ENDBRANCH   7  10
ENDBRANCH   4   7
ENDBRANCH   2   4
TORSDOF 17
ENDMDL
MODEL      214
REMARK 921   NORMALIZED FREE ENERGY PREDICTED BY IDOCK:   -4.44 KCAL/MOL
REMARK 922        TOTAL FREE ENERGY PREDICTED BY IDOCK:  -12.29 KCAL/MOL
REMARK 923 INTER-LIGAND FREE ENERGY PREDICTED BY IDOCK:   -8.35 KCAL/MOL
REMARK 924 INTRA-LIGAND FREE ENERGY PREDICTED BY IDOCK:   -3.94 KCAL/MOL
REMARK 927      BINDING AFFINITY PREDICTED BY RF-SCORE:    0.00 PKD
ROOT
HETATM    1  O   UNL     1      -9.863  12.672  63.458  1.00  0.00    -0.637 OA 
HETATM    2  C   UNL     1     -11.184  12.216  63.341  1.00  0.00    -0.414 C  
HETATM    3  H   UNL     1      -9.293  12.142  62.913  1.00  0.00     0.000 HD 
ENDROOT
BRANCH   2   4
HETATM    4  C   UNL     1     -12.107  13.075  64.223  1.00  0.00    -0.414 C  
HETATM    5  O   UNL     1     -13.281  12.355  64.505  1.00  0.00    -0.834 OA 
HETATM    6  H   UNL     1     -13.851  12.885  65.050  1.00  0.00     0.000 HD 
BRANCH   4   7
HETATM    7  C   UNL     1     -11.414  13.475  65.553  1.00  0.00    -0.304 C  
HETATM    8  H   UNL     1     -11.684  14.791  66.958  1.00  0.00     0.000 HD 
HETATM    9  O   UNL     1     -12.108  14.546  66.144  1.00  0.00    -0.367 OA 
BRANCH   7  10
HETATM   10  C   UNL     1     -11.359  12.293  66.557  1.00  0.00    -0.351 C  
HETATM   11  H   UNL     1     -12.344  11.747  68.126  1.00  0.00     0.000 HD 
HETATM   12  O   UNL     1     -12.378  12.471  67.511  1.00  0.00    -0.316 OA 
BRANCH  10  13
HETATM   13  C   UNL     1      -9.996  12.170  67.294  1.00  0.00    -0.203 C  
HETATM   14  H   UNL     1      -9.039  13.133  68.682  1.00  0.00     0.000 HD 
HETATM   15  O   UNL     1      -9.872  13.208  68.232  1.00  0.00    -0.223 OA 
BRANCH  13  16
HETATM   16  C   UNL     1      -9.826  10.860  68.025  1.00  0.00    -0.171 C  
HETATM   17  O   UNL     1      -9.181  10.825  69.062  1.00  0.00    -0.180 OA 
BRANCH  16  18
HETATM   18  O   UNL     1     -10.364   9.720  67.548  1.00  0.00    -0.205 OA 
BRANCH  18  19
HETATM   19 CA   UNL     1     -10.941   7.950  69.094  1.00  0.00    -0.218 Ca 
BRANCH  19  20
HETATM   20  O   UNL     1     -11.518   6.180  70.640  1.00  0.00    -0.338 OA 
BRANCH  20  21
HETATM   21  C   UNL     1     -10.976   6.460  71.838  1.00  0.00    -0.253 C  
HETATM   22  O   UNL     1     -10.358   7.505  71.955  1.00  0.00    -0.193 OA 
BRANCH  21  23
HETATM   23  C   UNL     1     -10.967   5.450  72.964  1.00  0.00    -0.297 C  
HETATM   24  H   UNL     1     -10.580   5.473  74.855  1.00  0.00     0.000 HD 
HETATM   25  O   UNL     1     -10.585   6.107  74.147  1.00  0.00    -0.260 OA 
BRANCH  23  26
HETATM   26  C   UNL     1     -10.026   4.228  72.735  1.00  0.00    -0.153 C  
HETATM   27  H   UNL     1     -10.166   2.460  71.951  1.00  0.00     0.000 HD 
HETATM   28  O   UNL     1     -10.740   3.205  72.090  1.00  0.00     0.120 OA 
BRANCH  26  29
HETATM   29  C   UNL     1      -8.680   4.490  71.974  1.00  0.00    -0.117 C  
BRANCH  29  30
HETATM   30  O   UNL     1      -8.646   3.572  70.890  1.00  0.00    -0.068 OA 
BRANCH  30  31
HETATM   31  C   UNL     1      -8.288   4.115  69.636  1.00  0.00    -0.057 C  
HETATM   32  O   UNL     1      -8.270   5.531  69.704  1.00  0.00    -0.098 OA 
HETATM   33  C   UNL     1      -7.896   6.090  68.454  1.00  0.00    -0.106 C  
HETATM   34  H   UNL     1     -10.068   1.955  67.921  1.00  0.00     0.000 HD 
HETATM   35  C   UNL     1      -8.984   5.792  67.390  1.00  0.00    -0.108 C  
HETATM   36  O   UNL     1     -10.223   6.328  67.788  1.00  0.00    -0.139 OA 
HETATM   37  C   UNL     1      -9.105   4.262  67.236  1.00  0.00    -0.137 C  
HETATM   38  O   UNL     1      -9.411   2.242  68.543  1.00  0.00    -0.171 OA 
HETATM   39  H   UNL     1     -10.889   6.146  67.136  1.00  0.00     0.000 HD 
HETATM   40  O   UNL     1     -10.154   3.908  66.368  1.00  0.00    -0.403 OA 
HETATM   41  C   UNL     1      -9.361   3.646  68.621  1.00  0.00    -0.164 C  
HETATM   42  H   UNL     1     -10.228   2.966  66.273  1.00  0.00     0.000 HD 
BRANCH  33  43
HETATM   43  C   UNL     1      -7.678   7.598  68.655  1.00  0.00    -0.119 C  
HETATM   44  O   UNL     1      -8.598   8.128  69.571  1.00  0.00    -0.132 OA 
HETATM   45  H   UNL     1      -8.464   9.059  69.696  1.00  0.00     0.000 HD 
ENDBRANCH  33  43
ENDBRANCH  30  31
ENDBRANCH  29  30
BRANCH  29  46
HETATM   46  C   UNL     1      -7.375   4.422  72.845  1.00  0.00    -0.079 C  
HETATM   47  O   UNL     1      -7.547   3.559  73.945  1.00  0.00    -0.063 OA 
HETATM   48  H   UNL     1      -6.758   3.518  74.471  1.00  0.00     0.000 HD 
BRANCH  46  49
HETATM   49  C   UNL     1      -6.795   5.793  73.261  1.00  0.00    -0.083 C  
HETATM   50  H   UNL     1      -6.942   7.031  74.767  1.00  0.00     0.000 HD 
HETATM   51  O   UNL     1      -7.298   6.188  74.511  1.00  0.00    -0.093 OA 
ENDBRANCH  46  49
ENDBRANCH  29  46
ENDBRANCH  26  29
ENDBRANCH  23  26
ENDBRANCH  21  23
ENDBRANCH  20  21
ENDBRANCH  19  20
ENDBRANCH  18  19
ENDBRANCH  16  18
ENDBRANCH  13  16
ENDBRANCH  10  13
ENDBRANCH   7  10
ENDBRANCH   4   7
ENDBRANCH   2   4
TORSDOF 17
ENDMDL
MODEL      215
REMARK 921   NORMALIZED FREE ENERGY PREDICTED BY IDOCK:   -4.41 KCAL/MOL
REMARK 922        TOTAL FREE ENERGY PREDICTED BY IDOCK:  -12.23 KCAL/MOL
REMARK 923 INTER-LIGAND FREE ENERGY PREDICTED BY IDOCK:   -8.36 KCAL/MOL
REMARK 924 INTRA-LIGAND FREE ENERGY PREDICTED BY IDOCK:   -3.87 KCAL/MOL
REMARK 927      BINDING AFFINITY PREDICTED BY RF-SCORE:    0.00 PKD
ROOT
HETATM    1  O   UNL     1     -12.498  14.284  67.462  1.00  0.00    -0.578 OA 
HETATM    2  C   UNL     1     -11.894  13.856  68.652  1.00  0.00    -0.372 C  
HETATM    3  H   UNL     1     -12.975  15.091  67.618  1.00  0.00     0.000 HD 
ENDROOT
BRANCH   2   4
HETATM    4  C   UNL     1     -11.122  12.549  68.398  1.00  0.00    -0.258 C  
HETATM    5  O   UNL     1     -12.014  11.565  67.937  1.00  0.00    -0.618 OA 
HETATM    6  H   UNL     1     -11.537  10.758  67.780  1.00  0.00     0.000 HD 
BRANCH   4   7
HETATM    7  C   UNL     1      -9.989  12.749  67.358  1.00  0.00    -0.212 C  
HETATM    8  H   UNL     1      -9.849  12.978  65.432  1.00  0.00     0.000 HD 
HETATM    9  O   UNL     1     -10.543  12.856  66.069  1.00  0.00    -0.264 OA 
BRANCH   7  10
HETATM   10  C   UNL     1      -9.148  14.020  67.653  1.00  0.00    -0.192 C  
HETATM   11  H   UNL     1      -8.971  15.785  66.889  1.00  0.00     0.000 HD 
HETATM   12  O   UNL     1      -9.486  15.007  66.708  1.00  0.00    -0.222 OA 
BRANCH  10  13
HETATM   13  C   UNL     1      -7.615  13.774  67.597  1.00  0.00    -0.181 C  
HETATM   14  H   UNL     1      -6.032  14.771  67.074  1.00  0.00     0.000 HD 
HETATM   15  O   UNL     1      -6.970  14.922  67.108  1.00  0.00    -0.233 OA 
BRANCH  13  16
HETATM   16  C   UNL     1      -7.011  13.439  68.940  1.00  0.00    -0.102 C  
HETATM   17  O   UNL     1      -6.665  14.339  69.690  1.00  0.00    -0.135 OA 
BRANCH  16  18
HETATM   18  O   UNL     1      -6.837  12.159  69.326  1.00  0.00    -0.103 OA 
BRANCH  18  19
HETATM   19 CA   UNL     1      -8.636  10.573  68.998  1.00  0.00    -0.101 Ca 
BRANCH  19  20
HETATM   20  O   UNL     1     -10.435   8.988  68.671  1.00  0.00    -0.213 OA 
BRANCH  20  21
HETATM   21  C   UNL     1     -10.370   8.516  67.415  1.00  0.00    -0.286 C  
HETATM   22  O   UNL     1     -10.456   9.316  66.499  1.00  0.00    -0.227 OA 
BRANCH  21  23
HETATM   23  C   UNL     1     -10.371   7.033  67.120  1.00  0.00    -0.281 C  
HETATM   24  H   UNL     1     -11.399   5.499  67.683  1.00  0.00     0.000 HD 
HETATM   25  O   UNL     1     -11.399   6.431  67.868  1.00  0.00    -0.263 OA 
BRANCH  23  26
HETATM   26  C   UNL     1      -9.026   6.308  67.429  1.00  0.00    -0.109 C  
HETATM   27  H   UNL     1      -7.204   6.823  67.851  1.00  0.00     0.000 HD 
HETATM   28  O   UNL     1      -8.024   7.264  67.662  1.00  0.00    -0.111 OA 
BRANCH  26  29
HETATM   29  C   UNL     1      -9.026   5.254  68.590  1.00  0.00    -0.107 C  
BRANCH  29  30
HETATM   30  O   UNL     1      -8.142   5.751  69.584  1.00  0.00    -0.101 OA 
BRANCH  30  31
HETATM   31  C   UNL     1      -8.728   6.054  70.834  1.00  0.00    -0.135 C  
HETATM   32  O   UNL     1     -10.085   6.425  70.658  1.00  0.00    -0.183 OA 
HETATM   33  C   UNL     1     -10.691   6.717  71.908  1.00  0.00    -0.223 C  
HETATM   34  H   UNL     1      -6.080   7.631  71.966  1.00  0.00     0.000 HD 
HETATM   35  C   UNL     1     -10.047   7.984  72.529  1.00  0.00    -0.278 C  
HETATM   36  O   UNL     1     -10.198   9.087  71.669  1.00  0.00    -0.317 OA 
HETATM   37  C   UNL     1      -8.547   7.703  72.757  1.00  0.00    -0.131 C  
HETATM   38  O   UNL     1      -6.571   6.904  71.601  1.00  0.00    -0.048 OA 
HETATM   39  H   UNL     1      -9.804   9.863  72.050  1.00  0.00     0.000 HD 
HETATM   40  O   UNL     1      -7.868   8.846  73.214  1.00  0.00    -0.381 OA 
HETATM   41  C   UNL     1      -7.926   7.240  71.429  1.00  0.00    -0.097 C  
HETATM   42  H   UNL     1      -6.945   8.673  73.355  1.00  0.00     0.000 HD 
BRANCH  33  43
HETATM   43  C   UNL     1     -12.200   6.889  71.674  1.00  0.00    -0.361 C  
HETATM   44  O   UNL     1     -12.461   7.430  70.407  1.00  0.00    -0.542 OA 
HETATM   45  H   UNL     1     -13.393   7.536  70.262  1.00  0.00     0.000 HD 
ENDBRANCH  33  43
ENDBRANCH  30  31
ENDBRANCH  29  30
BRANCH  29  46
HETATM   46  C   UNL     1      -8.683   3.779  68.179  1.00  0.00    -0.103 C  
HETATM   47  O   UNL     1      -7.784   3.196  69.094  1.00  0.00    -0.048 OA 
HETATM   48  H   UNL     1      -7.577   2.304  68.845  1.00  0.00     0.000 HD 
BRANCH  46  49
HETATM   49  C   UNL     1      -8.224   3.598  66.713  1.00  0.00    -0.096 C  
HETATM   50  H   UNL     1      -8.901   2.775  65.075  1.00  0.00     0.000 HD 
HETATM   51  O   UNL     1      -9.183   2.886  65.975  1.00  0.00    -0.146 OA 
ENDBRANCH  46  49
ENDBRANCH  29  46
ENDBRANCH  26  29
ENDBRANCH  23  26
ENDBRANCH  21  23
ENDBRANCH  20  21
ENDBRANCH  19  20
ENDBRANCH  18  19
ENDBRANCH  16  18
ENDBRANCH  13  16
ENDBRANCH  10  13
ENDBRANCH   7  10
ENDBRANCH   4   7
ENDBRANCH   2   4
TORSDOF 17
ENDMDL
MODEL      216
REMARK 921   NORMALIZED FREE ENERGY PREDICTED BY IDOCK:   -4.41 KCAL/MOL
REMARK 922        TOTAL FREE ENERGY PREDICTED BY IDOCK:  -12.23 KCAL/MOL
REMARK 923 INTER-LIGAND FREE ENERGY PREDICTED BY IDOCK:  -11.18 KCAL/MOL
REMARK 924 INTRA-LIGAND FREE ENERGY PREDICTED BY IDOCK:   -1.05 KCAL/MOL
REMARK 927      BINDING AFFINITY PREDICTED BY RF-SCORE:    0.00 PKD
ROOT
HETATM    1  O   UNL     1      -7.325   5.703  69.641  1.00  0.00    -0.063 OA 
HETATM    2  C   UNL     1      -8.654   5.993  69.981  1.00  0.00    -0.131 C  
HETATM    3  H   UNL     1      -7.268   5.509  68.713  1.00  0.00     0.000 HD 
ENDROOT
BRANCH   2   4
HETATM    4  C   UNL     1      -8.746   6.308  71.484  1.00  0.00    -0.134 C  
HETATM    5  O   UNL     1      -7.530   5.972  72.105  1.00  0.00    -0.092 OA 
HETATM    6  H   UNL     1      -7.588   6.166  73.033  1.00  0.00     0.000 HD 
BRANCH   4   7
HETATM    7  C   UNL     1      -9.058   7.807  71.735  1.00  0.00    -0.137 C  
HETATM    8  H   UNL     1     -10.011   9.235  70.822  1.00  0.00     0.000 HD 
HETATM    9  O   UNL     1      -9.821   8.317  70.668  1.00  0.00    -0.179 OA 
BRANCH   7  10
HETATM   10  C   UNL     1      -9.835   8.024  73.060  1.00  0.00    -0.282 C  
HETATM   11  H   UNL     1      -9.877   7.197  74.805  1.00  0.00     0.000 HD 
HETATM   12  O   UNL     1      -9.401   7.064  73.994  1.00  0.00    -0.200 OA 
BRANCH  10  13
HETATM   13  C   UNL     1     -11.376   7.909  72.900  1.00  0.00    -0.337 C  
HETATM   14  H   UNL     1     -12.800   8.935  72.068  1.00  0.00     0.000 HD 
HETATM   15  O   UNL     1     -11.857   9.005  72.166  1.00  0.00    -0.358 OA 
BRANCH  13  16
HETATM   16  C   UNL     1     -11.814   6.648  72.193  1.00  0.00    -0.298 C  
HETATM   17  O   UNL     1     -11.744   5.575  72.771  1.00  0.00    -0.297 OA 
BRANCH  16  18
HETATM   18  O   UNL     1     -12.271   6.684  70.925  1.00  0.00    -0.368 OA 
BRANCH  18  19
HETATM   19 CA   UNL     1     -12.337   8.801  69.755  1.00  0.00    -0.439 Ca 
BRANCH  19  20
HETATM   20  O   UNL     1     -12.402  10.918  68.584  1.00  0.00    -0.501 OA 
BRANCH  20  21
HETATM   21  C   UNL     1     -11.149  11.260  68.240  1.00  0.00    -0.240 C  
HETATM   22  O   UNL     1     -10.257  11.040  69.042  1.00  0.00    -0.210 OA 
BRANCH  21  23
HETATM   23  C   UNL     1     -10.854  12.049  66.984  1.00  0.00    -0.253 C  
HETATM   24  H   UNL     1     -10.197  11.656  65.212  1.00  0.00     0.000 HD 
HETATM   25  O   UNL     1     -10.382  11.161  66.001  1.00  0.00    -0.241 OA 
BRANCH  23  26
HETATM   26  C   UNL     1      -9.819  13.201  67.167  1.00  0.00    -0.235 C  
HETATM   27  H   UNL     1      -7.955  13.511  66.734  1.00  0.00     0.000 HD 
HETATM   28  O   UNL     1      -8.585  12.809  66.622  1.00  0.00    -0.136 OA 
BRANCH  26  29
HETATM   29  C   UNL     1     -10.212  14.616  66.618  1.00  0.00    -0.274 C  
BRANCH  29  30
HETATM   30  O   UNL     1     -10.921  15.269  67.661  1.00  0.00    -0.294 OA 
BRANCH  30  31
HETATM   31  C   UNL     1     -10.506  16.587  67.955  1.00  0.00    -0.313 C  
HETATM   32  O   UNL     1     -10.633  17.407  66.805  1.00  0.00    -0.289 OA 
HETATM   33  C   UNL     1     -10.234  18.738  67.092  1.00  0.00    -0.386 C  
HETATM   34  H   UNL     1      -7.952  15.632  69.783  1.00  0.00     0.000 HD 
HETATM   35  C   UNL     1      -8.716  18.785  67.404  1.00  0.00    -0.273 C  
HETATM   36  O   UNL     1      -7.973  18.300  66.312  1.00  0.00    -0.304 OA 
HETATM   37  C   UNL     1      -8.450  17.908  68.645  1.00  0.00    -0.266 C  
HETATM   38  O   UNL     1      -8.862  15.683  69.519  1.00  0.00    -0.264 OA 
HETATM   39  H   UNL     1      -7.043  18.329  66.503  1.00  0.00     0.000 HD 
HETATM   40  O   UNL     1      -7.075  17.807  68.924  1.00  0.00    -0.257 OA 
HETATM   41  C   UNL     1      -9.020  16.503  68.386  1.00  0.00    -0.219 C  
HETATM   42  H   UNL     1      -6.911  17.267  69.689  1.00  0.00     0.000 HD 
BRANCH  33  43
HETATM   43  C   UNL     1     -10.605  19.614  65.885  1.00  0.00    -0.466 C  
HETATM   44  O   UNL     1      -9.704  20.678  65.730  1.00  0.00    -0.603 OA 
HETATM   45  H   UNL     1      -9.933  21.218  64.984  1.00  0.00     0.000 HD 
ENDBRANCH  33  43
ENDBRANCH  30  31
ENDBRANCH  29  30
BRANCH  29  46
HETATM   46  C   UNL     1     -11.007  14.630  65.265  1.00  0.00    -0.367 C  
HETATM   47  O   UNL     1     -10.549  15.662  64.421  1.00  0.00    -0.676 OA 
HETATM   48  H   UNL     1     -11.030  15.670  63.603  1.00  0.00     0.000 HD 
BRANCH  46  49
HETATM   49  C   UNL     1     -12.546  14.633  65.410  1.00  0.00    -0.117 C  
HETATM   50  H   UNL     1     -14.061  13.560  64.796  1.00  0.00     0.000 HD 
HETATM   51  O   UNL     1     -13.115  13.559  64.707  1.00  0.00    -0.680 OA 
ENDBRANCH  46  49
ENDBRANCH  29  46
ENDBRANCH  26  29
ENDBRANCH  23  26
ENDBRANCH  21  23
ENDBRANCH  20  21
ENDBRANCH  19  20
ENDBRANCH  18  19
ENDBRANCH  16  18
ENDBRANCH  13  16
ENDBRANCH  10  13
ENDBRANCH   7  10
ENDBRANCH   4   7
ENDBRANCH   2   4
TORSDOF 17
ENDMDL
MODEL      217
REMARK 921   NORMALIZED FREE ENERGY PREDICTED BY IDOCK:   -4.41 KCAL/MOL
REMARK 922        TOTAL FREE ENERGY PREDICTED BY IDOCK:  -12.23 KCAL/MOL
REMARK 923 INTER-LIGAND FREE ENERGY PREDICTED BY IDOCK:  -10.01 KCAL/MOL
REMARK 924 INTRA-LIGAND FREE ENERGY PREDICTED BY IDOCK:   -2.21 KCAL/MOL
REMARK 927      BINDING AFFINITY PREDICTED BY RF-SCORE:    0.00 PKD
ROOT
HETATM    1  O   UNL     1      -8.033  14.349  68.320  1.00  0.00    -0.124 OA 
HETATM    2  C   UNL     1      -8.520  14.541  67.020  1.00  0.00    -0.196 C  
HETATM    3  H   UNL     1      -7.682  13.470  68.404  1.00  0.00     0.000 HD 
ENDROOT
BRANCH   2   4
HETATM    4  C   UNL     1      -9.088  15.964  66.884  1.00  0.00    -0.231 C  
HETATM    5  O   UNL     1      -8.382  16.651  65.882  1.00  0.00    -0.430 OA 
HETATM    6  H   UNL     1      -8.732  17.531  65.798  1.00  0.00     0.000 HD 
BRANCH   4   7
HETATM    7  C   UNL     1     -10.598  15.944  66.531  1.00  0.00    -0.297 C  
HETATM    8  H   UNL     1     -12.120  17.139  66.721  1.00  0.00     0.000 HD 
HETATM    9  O   UNL     1     -11.195  17.151  66.937  1.00  0.00     0.181 OA 
BRANCH   7  10
HETATM   10  C   UNL     1     -10.836  15.749  65.010  1.00  0.00    -0.443 C  
HETATM   11  H   UNL     1     -11.104  16.897  63.481  1.00  0.00     0.000 HD 
HETATM   12  O   UNL     1     -10.958  17.016  64.412  1.00  0.00    -0.993 OA 
BRANCH  10  13
HETATM   13  C   UNL     1     -12.107  14.915  64.685  1.00  0.00    -0.378 C  
HETATM   14  H   UNL     1     -13.780  15.185  63.737  1.00  0.00     0.000 HD 
HETATM   15  O   UNL     1     -13.004  15.694  63.936  1.00  0.00    -0.485 OA 
BRANCH  13  16
HETATM   16  C   UNL     1     -11.815  13.659  63.898  1.00  0.00    -0.374 C  
HETATM   17  O   UNL     1     -12.634  13.246  63.092  1.00  0.00    -0.666 OA 
BRANCH  16  18
HETATM   18  O   UNL     1     -10.667  12.975  64.078  1.00  0.00    -0.400 OA 
BRANCH  18  19
HETATM   19 CA   UNL     1     -10.178  12.046  66.259  1.00  0.00    -0.205 Ca 
BRANCH  19  20
HETATM   20  O   UNL     1      -9.690  11.117  68.439  1.00  0.00    -0.177 OA 
BRANCH  20  21
HETATM   21  C   UNL     1     -10.375   9.970  68.583  1.00  0.00    -0.190 C  
HETATM   22  O   UNL     1     -10.577   9.297  67.586  1.00  0.00    -0.263 OA 
BRANCH  21  23
HETATM   23  C   UNL     1     -11.033   9.593  69.891  1.00  0.00    -0.252 C  
HETATM   24  H   UNL     1     -11.773  10.538  71.403  1.00  0.00     0.000 HD 
HETATM   25  O   UNL     1     -11.359  10.774  70.581  1.00  0.00    -0.298 OA 
BRANCH  23  26
HETATM   26  C   UNL     1     -10.168   8.685  70.817  1.00  0.00    -0.204 C  
HETATM   27  H   UNL     1      -9.453   8.772  72.618  1.00  0.00     0.000 HD 
HETATM   28  O   UNL     1      -9.981   9.325  72.053  1.00  0.00    -0.164 OA 
BRANCH  26  29
HETATM   29  C   UNL     1     -10.664   7.217  71.054  1.00  0.00    -0.231 C  
BRANCH  29  30
HETATM   30  O   UNL     1     -11.136   6.745  69.801  1.00  0.00    -0.281 OA 
BRANCH  30  31
HETATM   31  C   UNL     1     -10.769   5.423  69.463  1.00  0.00    -0.179 C  
HETATM   32  O   UNL     1      -9.889   4.896  70.443  1.00  0.00    -0.193 OA 
HETATM   33  C   UNL     1      -9.524   3.562  70.124  1.00  0.00    -0.182 C  
HETATM   34  H   UNL     1     -10.461   6.069  66.259  1.00  0.00     0.000 HD 
HETATM   35  C   UNL     1      -8.677   3.537  68.825  1.00  0.00    -0.099 C  
HETATM   36  O   UNL     1      -7.514   4.314  68.980  1.00  0.00    -0.055 OA 
HETATM   37  C   UNL     1      -9.535   4.106  67.676  1.00  0.00    -0.180 C  
HETATM   38  O   UNL     1     -10.899   6.026  67.100  1.00  0.00    -0.301 OA 
HETATM   39  H   UNL     1      -6.995   4.298  68.184  1.00  0.00     0.000 HD 
HETATM   40  O   UNL     1      -8.796   4.222  66.485  1.00  0.00    -0.112 OA 
HETATM   41  C   UNL     1     -10.053   5.493  68.090  1.00  0.00    -0.172 C  
HETATM   42  H   UNL     1      -9.324   4.573  65.778  1.00  0.00     0.000 HD 
BRANCH  33  43
HETATM   43  C   UNL     1      -8.762   2.980  71.325  1.00  0.00    -0.074 C  
HETATM   44  O   UNL     1      -8.913   3.785  72.463  1.00  0.00    -0.102 OA 
HETATM   45  H   UNL     1      -8.443   3.425  73.205  1.00  0.00     0.000 HD 
ENDBRANCH  33  43
ENDBRANCH  30  31
ENDBRANCH  29  30
BRANCH  29  46
HETATM   46  C   UNL     1     -11.727   7.028  72.194  1.00  0.00    -0.283 C  
HETATM   47  O   UNL     1     -11.382   5.948  73.031  1.00  0.00    -0.406 OA 
HETATM   48  H   UNL     1     -12.025   5.834  73.720  1.00  0.00     0.000 HD 
BRANCH  46  49
HETATM   49  C   UNL     1     -13.195   6.950  71.713  1.00  0.00    -0.217 C  
HETATM   50  H   UNL     1     -14.648   8.187  71.293  1.00  0.00     0.000 HD 
HETATM   51  O   UNL     1     -13.746   8.235  71.588  1.00  0.00    -0.358 OA 
ENDBRANCH  46  49
ENDBRANCH  29  46
ENDBRANCH  26  29
ENDBRANCH  23  26
ENDBRANCH  21  23
ENDBRANCH  20  21
ENDBRANCH  19  20
ENDBRANCH  18  19
ENDBRANCH  16  18
ENDBRANCH  13  16
ENDBRANCH  10  13
ENDBRANCH   7  10
ENDBRANCH   4   7
ENDBRANCH   2   4
TORSDOF 17
ENDMDL
MODEL      218
REMARK 921   NORMALIZED FREE ENERGY PREDICTED BY IDOCK:   -4.40 KCAL/MOL
REMARK 922        TOTAL FREE ENERGY PREDICTED BY IDOCK:  -12.21 KCAL/MOL
REMARK 923 INTER-LIGAND FREE ENERGY PREDICTED BY IDOCK:   -9.01 KCAL/MOL
REMARK 924 INTRA-LIGAND FREE ENERGY PREDICTED BY IDOCK:   -3.20 KCAL/MOL
REMARK 927      BINDING AFFINITY PREDICTED BY RF-SCORE:    0.00 PKD
ROOT
HETATM    1  O   UNL     1     -11.839  16.642  71.845  1.00  0.00    -0.654 OA 
HETATM    2  C   UNL     1     -11.868  15.251  72.016  1.00  0.00    -0.434 C  
HETATM    3  H   UNL     1     -11.313  17.037  72.530  1.00  0.00     0.000 HD 
ENDROOT
BRANCH   2   4
HETATM    4  C   UNL     1     -12.721  14.611  70.907  1.00  0.00    -0.348 C  
HETATM    5  O   UNL     1     -13.578  15.582  70.362  1.00  0.00    -0.806 OA 
HETATM    6  H   UNL     1     -14.105  15.187  69.677  1.00  0.00     0.000 HD 
BRANCH   4   7
HETATM    7  C   UNL     1     -11.836  14.011  69.782  1.00  0.00    -0.324 C  
HETATM    8  H   UNL     1     -11.614  12.286  68.914  1.00  0.00     0.000 HD 
HETATM    9  O   UNL     1     -12.155  12.653  69.603  1.00  0.00    -0.283 OA 
BRANCH   7  10
HETATM   10  C   UNL     1     -12.027  14.757  68.435  1.00  0.00    -0.235 C  
HETATM   11  H   UNL     1     -12.166  14.263  66.573  1.00  0.00     0.000 HD 
HETATM   12  O   UNL     1     -12.050  13.806  67.398  1.00  0.00    -0.386 OA 
BRANCH  10  13
HETATM   13  C   UNL     1     -10.910  15.796  68.140  1.00  0.00    -0.307 C  
HETATM   14  H   UNL     1     -10.359  17.527  68.828  1.00  0.00     0.000 HD 
HETATM   15  O   UNL     1     -11.042  16.892  69.009  1.00  0.00    -0.242 OA 
BRANCH  13  16
HETATM   16  C   UNL     1      -9.515  15.240  68.303  1.00  0.00    -0.205 C  
HETATM   17  O   UNL     1      -8.846  15.559  69.274  1.00  0.00    -0.228 OA 
BRANCH  16  18
HETATM   18  O   UNL     1      -8.987  14.403  67.388  1.00  0.00    -0.180 OA 
BRANCH  18  19
HETATM   19 CA   UNL     1      -7.677  12.511  68.137  1.00  0.00    -0.091 Ca 
BRANCH  19  20
HETATM   20  O   UNL     1      -6.368  10.619  68.887  1.00  0.00    -0.043 OA 
BRANCH  20  21
HETATM   21  C   UNL     1      -6.880  10.172  70.047  1.00  0.00    -0.137 C  
HETATM   22  O   UNL     1      -6.290  10.450  71.077  1.00  0.00    -0.331 OA 
BRANCH  21  23
HETATM   23  C   UNL     1      -8.046   9.210  70.084  1.00  0.00    -0.140 C  
HETATM   24  H   UNL     1      -9.250   8.530  71.431  1.00  0.00     0.000 HD 
HETATM   25  O   UNL     1      -8.518   9.134  71.407  1.00  0.00    -0.317 OA 
BRANCH  23  26
HETATM   26  C   UNL     1      -7.720   7.772  69.577  1.00  0.00    -0.105 C  
HETATM   27  H   UNL     1      -7.324   6.047  70.370  1.00  0.00     0.000 HD 
HETATM   28  O   UNL     1      -7.523   6.924  70.679  1.00  0.00    -0.079 OA 
BRANCH  26  29
HETATM   29  C   UNL     1      -8.735   7.113  68.581  1.00  0.00    -0.127 C  
BRANCH  29  30
HETATM   30  O   UNL     1      -9.749   8.079  68.343  1.00  0.00    -0.152 OA 
BRANCH  30  31
HETATM   31  C   UNL     1      -9.738   8.681  67.064  1.00  0.00    -0.201 C  
HETATM   32  O   UNL     1      -8.474   8.494  66.448  1.00  0.00    -0.110 OA 
HETATM   33  C   UNL     1      -8.454   9.080  65.156  1.00  0.00    -0.167 C  
HETATM   34  H   UNL     1     -11.413  11.333  68.031  1.00  0.00     0.000 HD 
HETATM   35  C   UNL     1      -8.577  10.622  65.268  1.00  0.00    -0.169 C  
HETATM   36  O   UNL     1      -7.521  11.147  66.035  1.00  0.00    -0.320 OA 
HETATM   37  C   UNL     1      -9.925  10.952  65.943  1.00  0.00    -0.243 C  
HETATM   38  O   UNL     1     -11.249  10.407  67.901  1.00  0.00    -0.305 OA 
HETATM   39  H   UNL     1      -7.597  12.092  66.104  1.00  0.00     0.000 HD 
HETATM   40  O   UNL     1     -10.061  12.331  66.185  1.00  0.00    -0.234 OA 
HETATM   41  C   UNL     1     -10.006  10.192  67.278  1.00  0.00    -0.195 C  
HETATM   42  H   UNL     1     -10.891  12.534  66.600  1.00  0.00     0.000 HD 
BRANCH  33  43
HETATM   43  C   UNL     1      -7.151   8.652  64.462  1.00  0.00    -0.081 C  
HETATM   44  O   UNL     1      -6.120   8.453  65.391  1.00  0.00    -0.045 OA 
HETATM   45  H   UNL     1      -5.316   8.188  64.963  1.00  0.00     0.000 HD 
ENDBRANCH  33  43
ENDBRANCH  30  31
ENDBRANCH  29  30
BRANCH  29  46
HETATM   46  C   UNL     1      -9.330   5.730  69.022  1.00  0.00    -0.123 C  
HETATM   47  O   UNL     1      -8.711   4.670  68.331  1.00  0.00    -0.097 OA 
HETATM   48  H   UNL     1      -9.070   3.833  68.599  1.00  0.00     0.000 HD 
BRANCH  46  49
HETATM   49  C   UNL     1     -10.873   5.636  68.975  1.00  0.00    -0.181 C  
HETATM   50  H   UNL     1     -12.401   6.419  69.908  1.00  0.00     0.000 HD 
HETATM   51  O   UNL     1     -11.453   6.477  69.937  1.00  0.00    -0.390 OA 
ENDBRANCH  46  49
ENDBRANCH  29  46
ENDBRANCH  26  29
ENDBRANCH  23  26
ENDBRANCH  21  23
ENDBRANCH  20  21
ENDBRANCH  19  20
ENDBRANCH  18  19
ENDBRANCH  16  18
ENDBRANCH  13  16
ENDBRANCH  10  13
ENDBRANCH   7  10
ENDBRANCH   4   7
ENDBRANCH   2   4
TORSDOF 17
ENDMDL
MODEL      219
REMARK 921   NORMALIZED FREE ENERGY PREDICTED BY IDOCK:   -4.39 KCAL/MOL
REMARK 922        TOTAL FREE ENERGY PREDICTED BY IDOCK:  -12.19 KCAL/MOL
REMARK 923 INTER-LIGAND FREE ENERGY PREDICTED BY IDOCK:   -9.39 KCAL/MOL
REMARK 924 INTRA-LIGAND FREE ENERGY PREDICTED BY IDOCK:   -2.80 KCAL/MOL
REMARK 927      BINDING AFFINITY PREDICTED BY RF-SCORE:    0.00 PKD
ROOT
HETATM    1  O   UNL     1     -11.863   6.523  69.215  1.00  0.00    -0.608 OA 
HETATM    2  C   UNL     1     -10.609   5.898  69.266  1.00  0.00    -0.308 C  
HETATM    3  H   UNL     1     -11.962   6.975  68.385  1.00  0.00     0.000 HD 
ENDROOT
BRANCH   2   4
HETATM    4  C   UNL     1     -10.449   5.166  70.609  1.00  0.00    -0.199 C  
HETATM    5  O   UNL     1      -9.133   4.685  70.722  1.00  0.00    -0.119 OA 
HETATM    6  H   UNL     1      -9.034   4.234  71.552  1.00  0.00     0.000 HD 
BRANCH   4   7
HETATM    7  C   UNL     1     -10.763   6.101  71.808  1.00  0.00    -0.242 C  
HETATM    8  H   UNL     1     -11.913   6.069  73.375  1.00  0.00     0.000 HD 
HETATM    9  O   UNL     1     -11.721   5.496  72.641  1.00  0.00    -0.293 OA 
BRANCH   7  10
HETATM   10  C   UNL     1      -9.494   6.417  72.644  1.00  0.00    -0.148 C  
HETATM   11  H   UNL     1      -8.735   5.811  74.313  1.00  0.00     0.000 HD 
HETATM   12  O   UNL     1      -9.512   5.617  73.801  1.00  0.00    -0.136 OA 
BRANCH  10  13
HETATM   13  C   UNL     1      -9.388   7.909  73.065  1.00  0.00    -0.265 C  
HETATM   14  H   UNL     1      -8.318   8.966  74.294  1.00  0.00     0.000 HD 
HETATM   15  O   UNL     1      -8.384   8.054  74.037  1.00  0.00    -0.232 OA 
BRANCH  13  16
HETATM   16  C   UNL     1      -9.061   8.835  71.918  1.00  0.00    -0.220 C  
HETATM   17  O   UNL     1      -7.894   9.048  71.625  1.00  0.00    -0.316 OA 
BRANCH  16  18
HETATM   18  O   UNL     1     -10.037   9.443  71.214  1.00  0.00    -0.302 OA 
BRANCH  18  19
HETATM   19 CA   UNL     1     -10.118   9.148  68.813  1.00  0.00    -0.162 Ca 
BRANCH  19  20
HETATM   20  O   UNL     1     -10.199   8.853  66.413  1.00  0.00    -0.283 OA 
BRANCH  20  21
HETATM   21  C   UNL     1      -9.689   9.949  65.826  1.00  0.00    -0.266 C  
HETATM   22  O   UNL     1     -10.247  10.373  64.828  1.00  0.00    -0.345 OA 
BRANCH  21  23
HETATM   23  C   UNL     1      -8.373  10.550  66.265  1.00  0.00    -0.152 C  
HETATM   24  H   UNL     1      -6.568   9.914  66.525  1.00  0.00     0.000 HD 
HETATM   25  O   UNL     1      -7.396   9.538  66.249  1.00  0.00    -0.092 OA 
BRANCH  23  26
HETATM   26  C   UNL     1      -8.397  11.210  67.677  1.00  0.00    -0.122 C  
HETATM   27  H   UNL     1      -7.777  10.765  69.459  1.00  0.00     0.000 HD 
HETATM   28  O   UNL     1      -7.762  10.362  68.599  1.00  0.00    -0.091 OA 
BRANCH  26  29
HETATM   29  C   UNL     1      -7.812  12.659  67.804  1.00  0.00    -0.154 C  
BRANCH  29  30
HETATM   30  O   UNL     1      -8.198  13.353  66.626  1.00  0.00     0.080 OA 
BRANCH  30  31
HETATM   31  C   UNL     1      -9.293  14.236  66.764  1.00  0.00    -0.276 C  
HETATM   32  O   UNL     1     -10.379  13.795  65.966  1.00  0.00    -0.293 OA 
HETATM   33  C   UNL     1     -11.491  14.665  66.106  1.00  0.00    -0.339 C  
HETATM   34  H   UNL     1      -7.427  16.937  66.754  1.00  0.00     0.000 HD 
HETATM   35  C   UNL     1     -11.155  16.061  65.521  1.00  0.00    -0.105 C  
HETATM   36  O   UNL     1     -10.815  15.956  64.160  1.00  0.00    -0.799 OA 
HETATM   37  C   UNL     1      -9.964  16.643  66.312  1.00  0.00    -0.320 C  
HETATM   38  O   UNL     1      -7.723  16.084  67.049  1.00  0.00    -0.183 OA 
HETATM   39  H   UNL     1     -10.608  16.811  63.801  1.00  0.00     0.000 HD 
HETATM   40  O   UNL     1      -9.525  17.862  65.765  1.00  0.00    -0.511 OA 
HETATM   41  C   UNL     1      -8.810  15.627  66.282  1.00  0.00    -0.329 C  
HETATM   42  H   UNL     1      -8.792  18.221  66.252  1.00  0.00     0.000 HD 
BRANCH  33  43
HETATM   43  C   UNL     1     -12.693  14.015  65.402  1.00  0.00    -0.471 C  
HETATM   44  O   UNL     1     -12.362  12.750  64.894  1.00  0.00    -0.441 OA 
HETATM   45  H   UNL     1     -13.105  12.349  64.459  1.00  0.00     0.000 HD 
ENDBRANCH  33  43
ENDBRANCH  30  31
ENDBRANCH  29  30
BRANCH  29  46
HETATM   46  C   UNL     1      -6.267  12.755  68.064  1.00  0.00    -0.103 C  
HETATM   47  O   UNL     1      -5.614  11.572  67.667  1.00  0.00    -0.046 OA 
HETATM   48  H   UNL     1      -4.679  11.629  67.824  1.00  0.00     0.000 HD 
BRANCH  46  49
HETATM   49  C   UNL     1      -5.870  13.190  69.494  1.00  0.00    -0.102 C  
HETATM   50  H   UNL     1      -6.522  14.418  70.868  1.00  0.00     0.000 HD 
HETATM   51  O   UNL     1      -6.765  14.151  69.989  1.00  0.00    -0.100 OA 
ENDBRANCH  46  49
ENDBRANCH  29  46
ENDBRANCH  26  29
ENDBRANCH  23  26
ENDBRANCH  21  23
ENDBRANCH  20  21
ENDBRANCH  19  20
ENDBRANCH  18  19
ENDBRANCH  16  18
ENDBRANCH  13  16
ENDBRANCH  10  13
ENDBRANCH   7  10
ENDBRANCH   4   7
ENDBRANCH   2   4
TORSDOF 17
ENDMDL
MODEL      220
REMARK 921   NORMALIZED FREE ENERGY PREDICTED BY IDOCK:   -4.38 KCAL/MOL
REMARK 922        TOTAL FREE ENERGY PREDICTED BY IDOCK:  -12.17 KCAL/MOL
REMARK 923 INTER-LIGAND FREE ENERGY PREDICTED BY IDOCK:   -9.47 KCAL/MOL
REMARK 924 INTRA-LIGAND FREE ENERGY PREDICTED BY IDOCK:   -2.70 KCAL/MOL
REMARK 927      BINDING AFFINITY PREDICTED BY RF-SCORE:    0.00 PKD
ROOT
HETATM    1  O   UNL     1     -12.170   8.067  70.373  1.00  0.00    -0.464 OA 
HETATM    2  C   UNL     1     -12.038   7.077  71.356  1.00  0.00    -0.355 C  
HETATM    3  H   UNL     1     -12.860   7.825  69.766  1.00  0.00     0.000 HD 
ENDROOT
BRANCH   2   4
HETATM    4  C   UNL     1     -10.922   7.469  72.339  1.00  0.00    -0.286 C  
HETATM    5  O   UNL     1     -11.419   7.410  73.653  1.00  0.00    -0.514 OA 
HETATM    6  H   UNL     1     -10.729   7.652  74.261  1.00  0.00     0.000 HD 
BRANCH   4   7
HETATM    7  C   UNL     1      -9.692   6.533  72.209  1.00  0.00    -0.153 C  
HETATM    8  H   UNL     1      -9.370   4.634  71.941  1.00  0.00     0.000 HD 
HETATM    9  O   UNL     1     -10.124   5.207  72.021  1.00  0.00    -0.183 OA 
BRANCH   7  10
HETATM   10  C   UNL     1      -8.777   6.939  71.023  1.00  0.00    -0.136 C  
HETATM   11  H   UNL     1      -8.187   6.126  69.373  1.00  0.00     0.000 HD 
HETATM   12  O   UNL     1      -8.748   5.878  70.099  1.00  0.00    -0.137 OA 
BRANCH  10  13
HETATM   13  C   UNL     1      -7.322   7.274  71.451  1.00  0.00    -0.077 C  
HETATM   14  H   UNL     1      -5.584   7.417  70.594  1.00  0.00     0.000 HD 
HETATM   15  O   UNL     1      -6.475   7.211  70.332  1.00  0.00    -0.044 OA 
BRANCH  13  16
HETATM   16  C   UNL     1      -7.178   8.646  72.066  1.00  0.00    -0.043 C  
HETATM   17  O   UNL     1      -6.972   8.753  73.265  1.00  0.00    -0.330 OA 
BRANCH  16  18
HETATM   18  O   UNL     1      -7.284   9.761  71.315  1.00  0.00    -0.309 OA 
BRANCH  18  19
HETATM   19 CA   UNL     1      -9.470  10.457  70.544  1.00  0.00    -0.334 Ca 
BRANCH  19  20
HETATM   20  O   UNL     1     -11.655  11.153  69.772  1.00  0.00    -0.275 OA 
BRANCH  20  21
HETATM   21  C   UNL     1     -11.671  12.494  69.673  1.00  0.00    -0.302 C  
HETATM   22  O   UNL     1     -12.205  13.126  70.569  1.00  0.00    -0.357 OA 
BRANCH  21  23
HETATM   23  C   UNL     1     -11.207  13.207  68.423  1.00  0.00    -0.271 C  
HETATM   24  H   UNL     1     -11.717  14.796  67.453  1.00  0.00     0.000 HD 
HETATM   25  O   UNL     1     -12.009  14.348  68.239  1.00  0.00    -0.329 OA 
BRANCH  23  26
HETATM   26  C   UNL     1     -11.250  12.341  67.127  1.00  0.00    -0.307 C  
HETATM   27  H   UNL     1     -12.556  11.896  65.764  1.00  0.00     0.000 HD 
HETATM   28  O   UNL     1     -12.530  12.423  66.554  1.00  0.00    -0.373 OA 
BRANCH  26  29
HETATM   29  C   UNL     1     -10.165  12.630  66.032  1.00  0.00    -0.272 C  
BRANCH  29  30
HETATM   30  O   UNL     1      -8.904  12.428  66.654  1.00  0.00    -0.208 OA 
BRANCH  30  31
HETATM   31  C   UNL     1      -8.174  11.301  66.213  1.00  0.00    -0.126 C  
HETATM   32  O   UNL     1      -8.689  10.841  64.975  1.00  0.00    -0.191 OA 
HETATM   33  C   UNL     1      -7.954   9.718  64.513  1.00  0.00    -0.144 C  
HETATM   34  H   UNL     1      -7.954   9.972  69.207  1.00  0.00     0.000 HD 
HETATM   35  C   UNL     1      -8.168   8.512  65.465  1.00  0.00    -0.137 C  
HETATM   36  O   UNL     1      -9.533   8.178  65.538  1.00  0.00    -0.416 OA 
HETATM   37  C   UNL     1      -7.651   8.903  66.865  1.00  0.00    -0.087 C  
HETATM   38  O   UNL     1      -7.852  10.643  68.543  1.00  0.00    -0.102 OA 
HETATM   39  H   UNL     1      -9.664   7.440  66.122  1.00  0.00     0.000 HD 
HETATM   40  O   UNL     1      -7.915   7.900  67.815  1.00  0.00    -0.120 OA 
HETATM   41  C   UNL     1      -8.342  10.207  67.298  1.00  0.00    -0.121 C  
HETATM   42  H   UNL     1      -7.596   8.141  68.676  1.00  0.00     0.000 HD 
BRANCH  33  43
HETATM   43  C   UNL     1      -8.410   9.411  63.078  1.00  0.00    -0.188 C  
HETATM   44  O   UNL     1      -8.485   8.029  62.851  1.00  0.00    -0.382 OA 
HETATM   45  H   UNL     1      -8.767   7.840  61.964  1.00  0.00     0.000 HD 
ENDBRANCH  33  43
ENDBRANCH  30  31
ENDBRANCH  29  30
BRANCH  29  46
HETATM   46  C   UNL     1     -10.258  14.028  65.326  1.00  0.00    -0.360 C  
HETATM   47  O   UNL     1     -10.109  15.075  66.257  1.00  0.00    -0.257 OA 
HETATM   48  H   UNL     1     -10.165  15.921  65.830  1.00  0.00     0.000 HD 
BRANCH  46  49
HETATM   49  C   UNL     1     -11.495  14.223  64.419  1.00  0.00    -0.310 C  
HETATM   50  H   UNL     1     -12.435  13.235  63.019  1.00  0.00     0.000 HD 
HETATM   51  O   UNL     1     -11.675  13.115  63.576  1.00  0.00    -0.473 OA 
ENDBRANCH  46  49
ENDBRANCH  29  46
ENDBRANCH  26  29
ENDBRANCH  23  26
ENDBRANCH  21  23
ENDBRANCH  20  21
ENDBRANCH  19  20
ENDBRANCH  18  19
ENDBRANCH  16  18
ENDBRANCH  13  16
ENDBRANCH  10  13
ENDBRANCH   7  10
ENDBRANCH   4   7
ENDBRANCH   2   4
TORSDOF 17
ENDMDL
MODEL      221
REMARK 921   NORMALIZED FREE ENERGY PREDICTED BY IDOCK:   -4.38 KCAL/MOL
REMARK 922        TOTAL FREE ENERGY PREDICTED BY IDOCK:  -12.17 KCAL/MOL
REMARK 923 INTER-LIGAND FREE ENERGY PREDICTED BY IDOCK:   -8.31 KCAL/MOL
REMARK 924 INTRA-LIGAND FREE ENERGY PREDICTED BY IDOCK:   -3.86 KCAL/MOL
REMARK 927      BINDING AFFINITY PREDICTED BY RF-SCORE:    0.00 PKD
ROOT
HETATM    1  O   UNL     1     -11.558  13.812  70.555  1.00  0.00    -0.504 OA 
HETATM    2  C   UNL     1     -12.461  12.804  70.192  1.00  0.00    -0.056 C  
HETATM    3  H   UNL     1     -11.988  14.436  71.129  1.00  0.00     0.000 HD 
ENDROOT
BRANCH   2   4
HETATM    4  C   UNL     1     -11.764  11.794  69.265  1.00  0.00    -0.335 C  
HETATM    5  O   UNL     1     -12.534  10.620  69.194  1.00  0.00    -0.752 OA 
HETATM    6  H   UNL     1     -12.104   9.996  68.621  1.00  0.00     0.000 HD 
BRANCH   4   7
HETATM    7  C   UNL     1     -11.569  12.371  67.838  1.00  0.00    -0.356 C  
HETATM    8  H   UNL     1     -12.233  13.883  66.810  1.00  0.00     0.000 HD 
HETATM    9  O   UNL     1     -12.352  13.530  67.684  1.00  0.00    -0.248 OA 
BRANCH   7  10
HETATM   10  C   UNL     1     -10.085  12.723  67.552  1.00  0.00    -0.213 C  
HETATM   11  H   UNL     1      -9.139  13.973  66.424  1.00  0.00     0.000 HD 
HETATM   12  O   UNL     1     -10.048  13.757  66.599  1.00  0.00    -0.265 OA 
BRANCH  10  13
HETATM   13  C   UNL     1      -9.255  11.521  67.022  1.00  0.00    -0.176 C  
HETATM   14  H   UNL     1      -8.121  10.134  67.772  1.00  0.00     0.000 HD 
HETATM   15  O   UNL     1      -8.629  10.869  68.097  1.00  0.00    -0.123 OA 
BRANCH  13  16
HETATM   16  C   UNL     1     -10.085  10.499  66.280  1.00  0.00    -0.232 C  
HETATM   17  O   UNL     1     -10.503  10.756  65.162  1.00  0.00    -0.285 OA 
BRANCH  16  18
HETATM   18  O   UNL     1     -10.384   9.308  66.836  1.00  0.00    -0.249 OA 
BRANCH  18  19
HETATM   19 CA   UNL     1     -10.825   9.193  69.212  1.00  0.00    -0.206 Ca 
BRANCH  19  20
HETATM   20  O   UNL     1     -11.266   9.079  71.589  1.00  0.00    -0.312 OA 
BRANCH  20  21
HETATM   21  C   UNL     1     -10.722   7.951  72.075  1.00  0.00    -0.241 C  
HETATM   22  O   UNL     1     -10.901   7.693  73.254  1.00  0.00    -0.394 OA 
BRANCH  21  23
HETATM   23  C   UNL     1      -9.771   7.107  71.256  1.00  0.00    -0.170 C  
HETATM   24  H   UNL     1      -8.413   7.432  69.924  1.00  0.00     0.000 HD 
HETATM   25  O   UNL     1      -9.010   7.962  70.438  1.00  0.00    -0.144 OA 
BRANCH  23  26
HETATM   26  C   UNL     1     -10.461   6.031  70.364  1.00  0.00    -0.246 C  
HETATM   27  H   UNL     1     -11.732   6.008  68.899  1.00  0.00     0.000 HD 
HETATM   28  O   UNL     1     -11.312   6.664  69.443  1.00  0.00    -0.310 OA 
BRANCH  26  29
HETATM   29  C   UNL     1      -9.531   5.018  69.610  1.00  0.00    -0.143 C  
BRANCH  29  30
HETATM   30  O   UNL     1      -9.904   5.074  68.241  1.00  0.00    -0.149 OA 
BRANCH  30  31
HETATM   31  C   UNL     1      -8.862   5.365  67.331  1.00  0.00    -0.105 C  
HETATM   32  O   UNL     1      -8.427   6.704  67.501  1.00  0.00    -0.120 OA 
HETATM   33  C   UNL     1      -7.369   7.005  66.603  1.00  0.00    -0.080 C  
HETATM   34  H   UNL     1     -10.252   3.736  64.843  1.00  0.00     0.000 HD 
HETATM   35  C   UNL     1      -7.886   6.975  65.141  1.00  0.00    -0.124 C  
HETATM   36  O   UNL     1      -8.926   7.907  64.966  1.00  0.00    -0.380 OA 
HETATM   37  C   UNL     1      -8.404   5.553  64.840  1.00  0.00    -0.142 C  
HETATM   38  O   UNL     1      -9.897   3.854  65.715  1.00  0.00    -0.184 OA 
HETATM   39  H   UNL     1      -9.242   7.888  64.070  1.00  0.00     0.000 HD 
HETATM   40  O   UNL     1      -8.995   5.475  63.566  1.00  0.00    -0.345 OA 
HETATM   41  C   UNL     1      -9.443   5.172  65.907  1.00  0.00    -0.156 C  
HETATM   42  H   UNL     1      -9.314   4.599  63.381  1.00  0.00     0.000 HD 
BRANCH  33  43
HETATM   43  C   UNL     1      -6.799   8.379  66.988  1.00  0.00    -0.070 C  
HETATM   44  O   UNL     1      -6.665   8.504  68.379  1.00  0.00    -0.062 OA 
HETATM   45  H   UNL     1      -6.312   9.352  68.616  1.00  0.00     0.000 HD 
ENDBRANCH  33  43
ENDBRANCH  30  31
ENDBRANCH  29  30
BRANCH  29  46
HETATM   46  C   UNL     1      -9.528   3.548  70.161  1.00  0.00    -0.182 C  
HETATM   47  O   UNL     1      -8.849   3.472  71.393  1.00  0.00    -0.082 OA 
HETATM   48  H   UNL     1      -8.847   2.583  71.726  1.00  0.00     0.000 HD 
BRANCH  46  49
HETATM   49  C   UNL     1      -9.045   2.474  69.158  1.00  0.00    -0.126 C  
HETATM   50  H   UNL     1      -7.360   1.628  68.643  1.00  0.00     0.000 HD 
HETATM   51  O   UNL     1      -7.657   2.287  69.259  1.00  0.00    -0.043 OA 
ENDBRANCH  46  49
ENDBRANCH  29  46
ENDBRANCH  26  29
ENDBRANCH  23  26
ENDBRANCH  21  23
ENDBRANCH  20  21
ENDBRANCH  19  20
ENDBRANCH  18  19
ENDBRANCH  16  18
ENDBRANCH  13  16
ENDBRANCH  10  13
ENDBRANCH   7  10
ENDBRANCH   4   7
ENDBRANCH   2   4
TORSDOF 17
ENDMDL
MODEL      222
REMARK 921   NORMALIZED FREE ENERGY PREDICTED BY IDOCK:   -4.36 KCAL/MOL
REMARK 922        TOTAL FREE ENERGY PREDICTED BY IDOCK:  -12.14 KCAL/MOL
REMARK 923 INTER-LIGAND FREE ENERGY PREDICTED BY IDOCK:   -9.36 KCAL/MOL
REMARK 924 INTRA-LIGAND FREE ENERGY PREDICTED BY IDOCK:   -2.77 KCAL/MOL
REMARK 927      BINDING AFFINITY PREDICTED BY RF-SCORE:    0.00 PKD
ROOT
HETATM    1  O   UNL     1     -11.099   8.360  71.538  1.00  0.00    -0.242 OA 
HETATM    2  C   UNL     1     -10.675   8.924  70.326  1.00  0.00    -0.221 C  
HETATM    3  H   UNL     1     -11.139   9.034  72.207  1.00  0.00     0.000 HD 
ENDROOT
BRANCH   2   4
HETATM    4  C   UNL     1     -10.609   7.833  69.243  1.00  0.00    -0.192 C  
HETATM    5  O   UNL     1     -11.611   6.877  69.486  1.00  0.00    -0.563 OA 
HETATM    6  H   UNL     1     -11.571   6.204  68.817  1.00  0.00     0.000 HD 
BRANCH   4   7
HETATM    7  C   UNL     1     -10.796   8.429  67.823  1.00  0.00     0.009 C  
HETATM    8  H   UNL     1     -10.653  10.176  66.981  1.00  0.00     0.000 HD 
HETATM    9  O   UNL     1     -10.538   9.812  67.851  1.00  0.00    -0.227 OA 
BRANCH   7  10
HETATM   10  C   UNL     1      -9.855   7.761  66.785  1.00  0.00    -0.241 C  
HETATM   11  H   UNL     1      -9.172   5.983  66.461  1.00  0.00     0.000 HD 
HETATM   12  O   UNL     1      -9.749   6.392  67.096  1.00  0.00    -0.130 OA 
BRANCH  10  13
HETATM   13  C   UNL     1      -8.431   8.381  66.753  1.00  0.00    -0.114 C  
HETATM   14  H   UNL     1      -6.611   7.781  67.069  1.00  0.00     0.000 HD 
HETATM   15  O   UNL     1      -7.482   7.402  67.089  1.00  0.00    -0.100 OA 
BRANCH  13  16
HETATM   16  C   UNL     1      -8.054   8.949  65.405  1.00  0.00    -0.119 C  
HETATM   17  O   UNL     1      -6.883   8.962  65.059  1.00  0.00    -0.072 OA 
BRANCH  16  18
HETATM   18  O   UNL     1      -8.990   9.454  64.576  1.00  0.00    -0.216 OA 
BRANCH  18  19
HETATM   19 CA   UNL     1     -10.739  10.856  65.488  1.00  0.00    -0.244 Ca 
BRANCH  19  20
HETATM   20  O   UNL     1     -12.488  12.257  66.401  1.00  0.00    -0.377 OA 
BRANCH  20  21
HETATM   21  C   UNL     1     -12.322  13.509  65.942  1.00  0.00    -0.456 C  
HETATM   22  O   UNL     1     -13.190  13.973  65.221  1.00  0.00    -0.782 OA 
BRANCH  21  23
HETATM   23  C   UNL     1     -11.032  14.271  66.152  1.00  0.00    -0.313 C  
HETATM   24  H   UNL     1      -9.782  15.231  65.038  1.00  0.00     0.000 HD 
HETATM   25  O   UNL     1     -10.592  14.752  64.906  1.00  0.00    -0.414 OA 
BRANCH  23  26
HETATM   26  C   UNL     1      -9.888  13.442  66.810  1.00  0.00    -0.265 C  
HETATM   27  H   UNL     1      -8.582  12.128  66.238  1.00  0.00     0.000 HD 
HETATM   28  O   UNL     1      -9.280  12.632  65.837  1.00  0.00    -0.085 OA 
BRANCH  26  29
HETATM   29  C   UNL     1      -8.787  14.234  67.598  1.00  0.00    -0.196 C  
BRANCH  29  30
HETATM   30  O   UNL     1      -8.230  15.165  66.682  1.00  0.00    -0.202 OA 
BRANCH  30  31
HETATM   31  C   UNL     1      -8.078  16.485  67.163  1.00  0.00    -0.183 C  
HETATM   32  O   UNL     1      -9.107  17.313  66.646  1.00  0.00    -0.245 OA 
HETATM   33  C   UNL     1      -8.976  18.640  67.133  1.00  0.00    -0.281 C  
HETATM   34  H   UNL     1      -4.810  16.480  66.856  1.00  0.00     0.000 HD 
HETATM   35  C   UNL     1      -7.679  19.286  66.579  1.00  0.00    -0.272 C  
HETATM   36  O   UNL     1      -7.699  19.306  65.173  1.00  0.00    -0.134 OA 
HETATM   37  C   UNL     1      -6.476  18.454  67.071  1.00  0.00    -0.182 C  
HETATM   38  O   UNL     1      -5.656  16.173  67.157  1.00  0.00    -0.305 OA 
HETATM   39  H   UNL     1      -6.905  19.701  64.834  1.00  0.00     0.000 HD 
HETATM   40  O   UNL     1      -5.267  18.911  66.516  1.00  0.00    -0.136 OA 
HETATM   41  C   UNL     1      -6.697  16.986  66.671  1.00  0.00    -0.238 C  
HETATM   42  H   UNL     1      -4.527  18.399  66.820  1.00  0.00     0.000 HD 
BRANCH  33  43
HETATM   43  C   UNL     1     -10.234  19.421  66.722  1.00  0.00    -0.420 C  
HETATM   44  O   UNL     1     -10.020  20.806  66.796  1.00  0.00    -0.572 OA 
HETATM   45  H   UNL     1     -10.797  21.288  66.542  1.00  0.00     0.000 HD 
ENDBRANCH  33  43
ENDBRANCH  30  31
ENDBRANCH  29  30
BRANCH  29  46
HETATM   46  C   UNL     1      -7.685  13.364  68.299  1.00  0.00    -0.141 C  
HETATM   47  O   UNL     1      -7.266  13.957  69.507  1.00  0.00    -0.312 OA 
HETATM   48  H   UNL     1      -6.600  13.431  69.931  1.00  0.00     0.000 HD 
BRANCH  46  49
HETATM   49  C   UNL     1      -6.493  12.966  67.398  1.00  0.00    -0.120 C  
HETATM   50  H   UNL     1      -5.496  11.348  66.946  1.00  0.00     0.000 HD 
HETATM   51  O   UNL     1      -6.228  11.592  67.499  1.00  0.00    -0.060 OA 
ENDBRANCH  46  49
ENDBRANCH  29  46
ENDBRANCH  26  29
ENDBRANCH  23  26
ENDBRANCH  21  23
ENDBRANCH  20  21
ENDBRANCH  19  20
ENDBRANCH  18  19
ENDBRANCH  16  18
ENDBRANCH  13  16
ENDBRANCH  10  13
ENDBRANCH   7  10
ENDBRANCH   4   7
ENDBRANCH   2   4
TORSDOF 17
ENDMDL
MODEL      223
REMARK 921   NORMALIZED FREE ENERGY PREDICTED BY IDOCK:   -4.36 KCAL/MOL
REMARK 922        TOTAL FREE ENERGY PREDICTED BY IDOCK:  -12.13 KCAL/MOL
REMARK 923 INTER-LIGAND FREE ENERGY PREDICTED BY IDOCK:   -9.88 KCAL/MOL
REMARK 924 INTRA-LIGAND FREE ENERGY PREDICTED BY IDOCK:   -2.25 KCAL/MOL
REMARK 927      BINDING AFFINITY PREDICTED BY RF-SCORE:    0.00 PKD
ROOT
HETATM    1  O   UNL     1      -8.937  18.003  66.090  1.00  0.00    -0.469 OA 
HETATM    2  C   UNL     1      -8.525  16.664  66.097  1.00  0.00    -0.273 C  
HETATM    3  H   UNL     1      -8.503  18.468  65.384  1.00  0.00     0.000 HD 
ENDROOT
BRANCH   2   4
HETATM    4  C   UNL     1      -9.229  15.912  67.240  1.00  0.00    -0.206 C  
HETATM    5  O   UNL     1      -9.130  16.666  68.422  1.00  0.00    -0.211 OA 
HETATM    6  H   UNL     1      -9.564  16.201  69.128  1.00  0.00     0.000 HD 
BRANCH   4   7
HETATM    7  C   UNL     1     -10.724  15.652  66.916  1.00  0.00    -0.307 C  
HETATM    8  H   UNL     1     -11.817  15.424  65.325  1.00  0.00     0.000 HD 
HETATM    9  O   UNL     1     -10.902  15.583  65.523  1.00  0.00    -0.337 OA 
BRANCH   7  10
HETATM   10  C   UNL     1     -11.236  14.335  67.557  1.00  0.00    -0.307 C  
HETATM   11  H   UNL     1     -10.784  13.266  69.101  1.00  0.00     0.000 HD 
HETATM   12  O   UNL     1     -10.471  14.073  68.709  1.00  0.00    -0.239 OA 
BRANCH  10  13
HETATM   13  C   UNL     1     -11.149  13.110  66.606  1.00  0.00    -0.292 C  
HETATM   14  H   UNL     1      -9.901  12.417  65.289  1.00  0.00     0.000 HD 
HETATM   15  O   UNL     1      -9.954  13.166  65.871  1.00  0.00    -0.280 OA 
BRANCH  13  16
HETATM   16  C   UNL     1     -11.187  11.784  67.330  1.00  0.00    -0.305 C  
HETATM   17  O   UNL     1     -12.215  11.426  67.883  1.00  0.00    -0.592 OA 
BRANCH  16  18
HETATM   18  O   UNL     1     -10.099  10.991  67.387  1.00  0.00    -0.179 OA 
BRANCH  18  19
HETATM   19 CA   UNL     1     -10.387   8.588  67.334  1.00  0.00    -0.165 Ca 
BRANCH  19  20
HETATM   20  O   UNL     1     -10.677   6.187  67.280  1.00  0.00    -0.258 OA 
BRANCH  20  21
HETATM   21  C   UNL     1     -10.712   5.728  68.543  1.00  0.00    -0.217 C  
HETATM   22  O   UNL     1     -11.651   6.062  69.246  1.00  0.00    -0.240 OA 
BRANCH  21  23
HETATM   23  C   UNL     1      -9.552   4.969  69.147  1.00  0.00    -0.154 C  
HETATM   24  H   UNL     1      -8.327   3.597  68.562  1.00  0.00     0.000 HD 
HETATM   25  O   UNL     1      -9.055   4.073  68.182  1.00  0.00    -0.117 OA 
BRANCH  23  26
HETATM   26  C   UNL     1      -9.898   4.177  70.445  1.00  0.00    -0.167 C  
HETATM   27  H   UNL     1      -9.082   2.777  71.510  1.00  0.00     0.000 HD 
HETATM   28  O   UNL     1      -8.871   3.259  70.719  1.00  0.00    -0.071 OA 
BRANCH  26  29
HETATM   29  C   UNL     1     -10.217   5.011  71.734  1.00  0.00    -0.207 C  
BRANCH  29  30
HETATM   30  O   UNL     1      -9.188   5.983  71.847  1.00  0.00    -0.150 OA 
BRANCH  30  31
HETATM   31  C   UNL     1      -9.618   7.324  71.961  1.00  0.00    -0.150 C  
HETATM   32  O   UNL     1     -11.028   7.396  71.834  1.00  0.00    -0.227 OA 
HETATM   33  C   UNL     1     -11.476   8.737  71.962  1.00  0.00    -0.371 C  
HETATM   34  H   UNL     1      -7.122   8.529  70.202  1.00  0.00     0.000 HD 
HETATM   35  C   UNL     1     -10.961   9.587  70.772  1.00  0.00    -0.321 C  
HETATM   36  O   UNL     1     -11.419   9.058  69.552  1.00  0.00    -0.432 OA 
HETATM   37  C   UNL     1      -9.418   9.573  70.799  1.00  0.00    -0.168 C  
HETATM   38  O   UNL     1      -7.537   8.046  70.906  1.00  0.00    -0.073 OA 
HETATM   39  H   UNL     1     -11.103   9.579  68.823  1.00  0.00     0.000 HD 
HETATM   40  O   UNL     1      -8.873  10.231  69.682  1.00  0.00    -0.289 OA 
HETATM   41  C   UNL     1      -8.940   8.112  70.812  1.00  0.00    -0.145 C  
HETATM   42  H   UNL     1      -7.923  10.223  69.699  1.00  0.00     0.000 HD 
BRANCH  33  43
HETATM   43  C   UNL     1     -13.011   8.718  72.040  1.00  0.00    -0.390 C  
HETATM   44  O   UNL     1     -13.457   8.932  73.352  1.00  0.00    -0.909 OA 
HETATM   45  H   UNL     1     -14.405   8.921  73.399  1.00  0.00     0.000 HD 
ENDBRANCH  33  43
ENDBRANCH  30  31
ENDBRANCH  29  30
BRANCH  29  46
HETATM   46  C   UNL     1     -10.398   4.187  73.057  1.00  0.00    -0.171 C  
HETATM   47  O   UNL     1     -11.126   4.921  74.013  1.00  0.00    -0.326 OA 
HETATM   48  H   UNL     1     -11.236   4.423  74.814  1.00  0.00     0.000 HD 
BRANCH  46  49
HETATM   49  C   UNL     1      -9.096   3.593  73.642  1.00  0.00    -0.094 C  
HETATM   50  H   UNL     1      -8.426   1.846  74.207  1.00  0.00     0.000 HD 
HETATM   51  O   UNL     1      -9.226   2.211  73.847  1.00  0.00    -0.074 OA 
ENDBRANCH  46  49
ENDBRANCH  29  46
ENDBRANCH  26  29
ENDBRANCH  23  26
ENDBRANCH  21  23
ENDBRANCH  20  21
ENDBRANCH  19  20
ENDBRANCH  18  19
ENDBRANCH  16  18
ENDBRANCH  13  16
ENDBRANCH  10  13
ENDBRANCH   7  10
ENDBRANCH   4   7
ENDBRANCH   2   4
TORSDOF 17
ENDMDL
MODEL      224
REMARK 921   NORMALIZED FREE ENERGY PREDICTED BY IDOCK:   -4.33 KCAL/MOL
REMARK 922        TOTAL FREE ENERGY PREDICTED BY IDOCK:  -12.08 KCAL/MOL
REMARK 923 INTER-LIGAND FREE ENERGY PREDICTED BY IDOCK:  -11.03 KCAL/MOL
REMARK 924 INTRA-LIGAND FREE ENERGY PREDICTED BY IDOCK:   -1.05 KCAL/MOL
REMARK 927      BINDING AFFINITY PREDICTED BY RF-SCORE:    0.00 PKD
ROOT
HETATM    1  O   UNL     1      -9.034   7.496  74.361  1.00  0.00    -0.373 OA 
HETATM    2  C   UNL     1      -8.709   6.540  73.390  1.00  0.00    -0.123 C  
HETATM    3  H   UNL     1      -8.242   7.919  74.671  1.00  0.00     0.000 HD 
ENDROOT
BRANCH   2   4
HETATM    4  C   UNL     1      -9.992   5.855  72.888  1.00  0.00    -0.173 C  
HETATM    5  O   UNL     1     -10.984   5.945  73.879  1.00  0.00    -0.398 OA 
HETATM    6  H   UNL     1     -11.777   5.522  73.569  1.00  0.00     0.000 HD 
BRANCH   4   7
HETATM    7  C   UNL     1     -10.510   6.506  71.578  1.00  0.00    -0.215 C  
HETATM    8  H   UNL     1     -10.797   5.959  69.734  1.00  0.00     0.000 HD 
HETATM    9  O   UNL     1     -10.480   5.560  70.536  1.00  0.00    -0.250 OA 
BRANCH   7  10
HETATM   10  C   UNL     1     -11.957   7.044  71.730  1.00  0.00    -0.326 C  
HETATM   11  H   UNL     1     -13.544   7.114  70.631  1.00  0.00     0.000 HD 
HETATM   12  O   UNL     1     -12.657   6.784  70.538  1.00  0.00    -0.211 OA 
BRANCH  10  13
HETATM   13  C   UNL     1     -12.022   8.568  72.029  1.00  0.00    -0.361 C  
HETATM   14  H   UNL     1     -11.316  10.201  71.251  1.00  0.00     0.000 HD 
HETATM   15  O   UNL     1     -11.276   9.270  71.068  1.00  0.00    -0.268 OA 
BRANCH  13  16
HETATM   16  C   UNL     1     -13.427   9.121  72.022  1.00  0.00    -0.448 C  
HETATM   17  O   UNL     1     -14.209   8.801  72.904  1.00  0.00    -0.479 OA 
BRANCH  16  18
HETATM   18  O   UNL     1     -13.841   9.958  71.049  1.00  0.00    -0.183 OA 
BRANCH  18  19
HETATM   19 CA   UNL     1     -12.463  10.251  69.081  1.00  0.00    -0.474 Ca 
BRANCH  19  20
HETATM   20  O   UNL     1     -11.085  10.544  67.114  1.00  0.00    -0.265 OA 
BRANCH  20  21
HETATM   21  C   UNL     1     -11.074  11.847  66.785  1.00  0.00    -0.308 C  
HETATM   22  O   UNL     1     -12.093  12.327  66.318  1.00  0.00    -0.626 OA 
BRANCH  21  23
HETATM   23  C   UNL     1      -9.803  12.667  66.819  1.00  0.00    -0.235 C  
HETATM   24  H   UNL     1      -7.930  12.351  66.474  1.00  0.00     0.000 HD 
HETATM   25  O   UNL     1      -8.728  11.836  66.453  1.00  0.00    -0.193 OA 
BRANCH  23  26
HETATM   26  C   UNL     1      -9.491  13.326  68.196  1.00  0.00    -0.222 C  
HETATM   27  H   UNL     1      -7.918  13.953  69.141  1.00  0.00     0.000 HD 
HETATM   28  O   UNL     1      -8.108  13.552  68.302  1.00  0.00    -0.143 OA 
BRANCH  26  29
HETATM   29  C   UNL     1     -10.267  14.639  68.559  1.00  0.00    -0.240 C  
BRANCH  29  30
HETATM   30  O   UNL     1      -9.295  15.566  69.021  1.00  0.00    -0.201 OA 
BRANCH  30  31
HETATM   31  C   UNL     1      -8.792  16.464  68.053  1.00  0.00    -0.184 C  
HETATM   32  O   UNL     1      -7.745  17.243  68.607  1.00  0.00    -0.246 OA 
HETATM   33  C   UNL     1      -7.221  18.140  67.640  1.00  0.00    -0.208 C  
HETATM   34  H   UNL     1     -11.754  17.191  66.837  1.00  0.00     0.000 HD 
HETATM   35  C   UNL     1      -8.291  19.194  67.254  1.00  0.00    -0.277 C  
HETATM   36  O   UNL     1      -8.701  19.919  68.388  1.00  0.00    -0.281 OA 
HETATM   37  C   UNL     1      -9.499  18.455  66.643  1.00  0.00    -0.313 C  
HETATM   38  O   UNL     1     -11.032  16.630  67.093  1.00  0.00    -0.183 OA 
HETATM   39  H   UNL     1      -9.356  20.564  68.151  1.00  0.00     0.000 HD 
HETATM   40  O   UNL     1     -10.562  19.335  66.370  1.00  0.00    -0.431 OA 
HETATM   41  C   UNL     1      -9.971  17.379  67.635  1.00  0.00    -0.300 C  
HETATM   42  H   UNL     1     -11.306  18.879  65.994  1.00  0.00     0.000 HD 
BRANCH  33  43
HETATM   43  C   UNL     1      -5.957  18.786  68.230  1.00  0.00    -0.210 C  
HETATM   44  O   UNL     1      -6.149  19.149  69.571  1.00  0.00    -0.249 OA 
HETATM   45  H   UNL     1      -5.368  19.547  69.936  1.00  0.00     0.000 HD 
ENDBRANCH  33  43
ENDBRANCH  30  31
ENDBRANCH  29  30
BRANCH  29  46
HETATM   46  C   UNL     1     -11.455  14.477  69.571  1.00  0.00    -0.288 C  
HETATM   47  O   UNL     1     -12.588  13.930  68.936  1.00  0.00    -0.361 OA 
HETATM   48  H   UNL     1     -13.307  13.832  69.549  1.00  0.00     0.000 HD 
BRANCH  46  49
HETATM   49  C   UNL     1     -11.797  15.744  70.388  1.00  0.00    -0.368 C  
HETATM   50  H   UNL     1     -13.035  16.262  71.809  1.00  0.00     0.000 HD 
HETATM   51  O   UNL     1     -12.825  15.483  71.307  1.00  0.00    -0.415 OA 
ENDBRANCH  46  49
ENDBRANCH  29  46
ENDBRANCH  26  29
ENDBRANCH  23  26
ENDBRANCH  21  23
ENDBRANCH  20  21
ENDBRANCH  19  20
ENDBRANCH  18  19
ENDBRANCH  16  18
ENDBRANCH  13  16
ENDBRANCH  10  13
ENDBRANCH   7  10
ENDBRANCH   4   7
ENDBRANCH   2   4
TORSDOF 17
ENDMDL
MODEL      225
REMARK 921   NORMALIZED FREE ENERGY PREDICTED BY IDOCK:   -4.33 KCAL/MOL
REMARK 922        TOTAL FREE ENERGY PREDICTED BY IDOCK:  -12.07 KCAL/MOL
REMARK 923 INTER-LIGAND FREE ENERGY PREDICTED BY IDOCK:  -10.85 KCAL/MOL
REMARK 924 INTRA-LIGAND FREE ENERGY PREDICTED BY IDOCK:   -1.22 KCAL/MOL
REMARK 927      BINDING AFFINITY PREDICTED BY RF-SCORE:    0.00 PKD
ROOT
HETATM    1  O   UNL     1     -11.155  15.656  70.790  1.00  0.00    -0.320 OA 
HETATM    2  C   UNL     1     -10.654  15.304  69.529  1.00  0.00    -0.267 C  
HETATM    3  H   UNL     1     -12.059  15.375  70.865  1.00  0.00     0.000 HD 
ENDROOT
BRANCH   2   4
HETATM    4  C   UNL     1      -9.190  15.759  69.408  1.00  0.00    -0.263 C  
HETATM    5  O   UNL     1      -8.342  14.703  69.785  1.00  0.00    -0.397 OA 
HETATM    6  H   UNL     1      -7.438  14.984  69.710  1.00  0.00     0.000 HD 
BRANCH   4   7
HETATM    7  C   UNL     1      -8.849  16.204  67.961  1.00  0.00    -0.181 C  
HETATM    8  H   UNL     1      -9.824  16.591  66.324  1.00  0.00     0.000 HD 
HETATM    9  O   UNL     1     -10.033  16.319  67.210  1.00  0.00    -0.241 OA 
BRANCH   7  10
HETATM   10  C   UNL     1      -8.100  17.563  67.934  1.00  0.00    -0.230 C  
HETATM   11  H   UNL     1      -8.028  19.141  69.046  1.00  0.00     0.000 HD 
HETATM   12  O   UNL     1      -8.487  18.308  69.062  1.00  0.00    -0.182 OA 
BRANCH  10  13
HETATM   13  C   UNL     1      -8.384  18.400  66.656  1.00  0.00    -0.265 C  
HETATM   14  H   UNL     1      -9.006  18.068  64.847  1.00  0.00     0.000 HD 
HETATM   15  O   UNL     1      -8.832  17.556  65.628  1.00  0.00    -0.416 OA 
BRANCH  13  16
HETATM   16  C   UNL     1      -9.425  19.475  66.862  1.00  0.00    -0.344 C  
HETATM   17  O   UNL     1      -9.078  20.601  67.183  1.00  0.00    -0.352 OA 
BRANCH  16  18
HETATM   18  O   UNL     1     -10.738  19.210  66.709  1.00  0.00    -0.425 OA 
BRANCH  18  19
HETATM   19 CA   UNL     1     -11.408  17.145  65.639  1.00  0.00    -0.195 Ca 
BRANCH  19  20
HETATM   20  O   UNL     1     -12.078  15.080  64.570  1.00  0.00    -0.443 OA 
BRANCH  20  21
HETATM   21  C   UNL     1     -11.122  14.158  64.776  1.00  0.00    -0.387 C  
HETATM   22  O   UNL     1      -9.996  14.403  64.377  1.00  0.00    -0.009 OA 
BRANCH  21  23
HETATM   23  C   UNL     1     -11.444  12.785  65.322  1.00  0.00    -0.325 C  
HETATM   24  H   UNL     1     -12.966  11.598  65.300  1.00  0.00     0.000 HD 
HETATM   25  O   UNL     1     -12.764  12.460  64.958  1.00  0.00    -0.631 OA 
BRANCH  23  26
HETATM   26  C   UNL     1     -11.296  12.648  66.868  1.00  0.00    -0.320 C  
HETATM   27  H   UNL     1     -12.410  12.936  68.428  1.00  0.00     0.000 HD 
HETATM   28  O   UNL     1     -12.501  13.019  67.486  1.00  0.00    -0.126 OA 
BRANCH  26  29
HETATM   29  C   UNL     1     -10.824  11.260  67.425  1.00  0.00    -0.262 C  
BRANCH  29  30
HETATM   30  O   UNL     1     -11.887  10.769  68.229  1.00  0.00    -0.504 OA 
BRANCH  30  31
HETATM   31  C   UNL     1     -11.504  10.128  69.430  1.00  0.00    -0.142 C  
HETATM   32  O   UNL     1     -11.394   8.730  69.222  1.00  0.00     0.144 OA 
HETATM   33  C   UNL     1     -10.996   8.075  70.416  1.00  0.00    -0.248 C  
HETATM   34  H   UNL     1     -13.435  11.990  71.323  1.00  0.00     0.000 HD 
HETATM   35  C   UNL     1     -12.110   8.195  71.488  1.00  0.00    -0.298 C  
HETATM   36  O   UNL     1     -13.308   7.624  71.021  1.00  0.00    -0.570 OA 
HETATM   37  C   UNL     1     -12.330   9.692  71.791  1.00  0.00    -0.392 C  
HETATM   38  O   UNL     1     -12.755  11.808  70.685  1.00  0.00    -0.217 OA 
HETATM   39  H   UNL     1     -13.990   7.698  71.678  1.00  0.00     0.000 HD 
HETATM   40  O   UNL     1     -13.408   9.890  72.673  1.00  0.00    -0.569 OA 
HETATM   41  C   UNL     1     -12.614  10.425  70.469  1.00  0.00    -0.302 C  
HETATM   42  H   UNL     1     -13.543  10.812  72.860  1.00  0.00     0.000 HD 
BRANCH  33  43
HETATM   43  C   UNL     1     -10.679   6.611  70.071  1.00  0.00    -0.240 C  
HETATM   44  O   UNL     1     -10.394   6.460  68.706  1.00  0.00    -0.166 OA 
HETATM   45  H   UNL     1     -10.198   5.556  68.493  1.00  0.00     0.000 HD 
ENDBRANCH  33  43
ENDBRANCH  30  31
ENDBRANCH  29  30
BRANCH  29  46
HETATM   46  C   UNL     1      -9.455  11.258  68.192  1.00  0.00    -0.184 C  
HETATM   47  O   UNL     1      -9.350  12.377  69.041  1.00  0.00    -0.381 OA 
HETATM   48  H   UNL     1      -8.521  12.376  69.505  1.00  0.00     0.000 HD 
BRANCH  46  49
HETATM   49  C   UNL     1      -8.205  11.083  67.298  1.00  0.00    -0.125 C  
HETATM   50  H   UNL     1      -6.306  10.676  67.526  1.00  0.00     0.000 HD 
HETATM   51  O   UNL     1      -7.075  10.784  68.075  1.00  0.00    -0.079 OA 
ENDBRANCH  46  49
ENDBRANCH  29  46
ENDBRANCH  26  29
ENDBRANCH  23  26
ENDBRANCH  21  23
ENDBRANCH  20  21
ENDBRANCH  19  20
ENDBRANCH  18  19
ENDBRANCH  16  18
ENDBRANCH  13  16
ENDBRANCH  10  13
ENDBRANCH   7  10
ENDBRANCH   4   7
ENDBRANCH   2   4
TORSDOF 17
ENDMDL
MODEL      226
REMARK 921   NORMALIZED FREE ENERGY PREDICTED BY IDOCK:   -4.32 KCAL/MOL
REMARK 922        TOTAL FREE ENERGY PREDICTED BY IDOCK:  -12.06 KCAL/MOL
REMARK 923 INTER-LIGAND FREE ENERGY PREDICTED BY IDOCK:  -10.87 KCAL/MOL
REMARK 924 INTRA-LIGAND FREE ENERGY PREDICTED BY IDOCK:   -1.19 KCAL/MOL
REMARK 927      BINDING AFFINITY PREDICTED BY RF-SCORE:    0.00 PKD
ROOT
HETATM    1  O   UNL     1      -8.356  14.722  66.461  1.00  0.00    -0.410 OA 
HETATM    2  C   UNL     1      -9.085  15.572  67.304  1.00  0.00    -0.203 C  
HETATM    3  H   UNL     1      -8.948  14.125  66.019  1.00  0.00     0.000 HD 
ENDROOT
BRANCH   2   4
HETATM    4  C   UNL     1      -8.127  16.538  68.020  1.00  0.00    -0.167 C  
HETATM    5  O   UNL     1      -7.078  15.806  68.602  1.00  0.00    -0.120 OA 
HETATM    6  H   UNL     1      -6.485  16.403  69.044  1.00  0.00     0.000 HD 
BRANCH   4   7
HETATM    7  C   UNL     1      -7.541  17.590  67.041  1.00  0.00    -0.207 C  
HETATM    8  H   UNL     1      -7.970  18.288  65.278  1.00  0.00     0.000 HD 
HETATM    9  O   UNL     1      -8.329  17.644  65.877  1.00  0.00    -0.536 OA 
BRANCH   7  10
HETATM   10  C   UNL     1      -7.483  19.005  67.677  1.00  0.00    -0.229 C  
HETATM   11  H   UNL     1      -7.330  19.728  69.461  1.00  0.00     0.000 HD 
HETATM   12  O   UNL     1      -7.366  18.862  69.072  1.00  0.00    -0.319 OA 
BRANCH  10  13
HETATM   13  C   UNL     1      -8.730  19.876  67.363  1.00  0.00    -0.336 C  
HETATM   14  H   UNL     1      -9.722  20.424  65.786  1.00  0.00     0.000 HD 
HETATM   15  O   UNL     1      -8.959  19.892  65.978  1.00  0.00    -0.369 OA 
BRANCH  13  16
HETATM   16  C   UNL     1      -9.990  19.385  68.036  1.00  0.00    -0.387 C  
HETATM   17  O   UNL     1     -10.105  19.480  69.249  1.00  0.00    -0.406 OA 
BRANCH  16  18
HETATM   18  O   UNL     1     -10.991  18.832  67.323  1.00  0.00    -0.412 OA 
BRANCH  18  19
HETATM   19 CA   UNL     1     -11.565  16.512  67.702  1.00  0.00    -0.274 Ca 
BRANCH  19  20
HETATM   20  O   UNL     1     -12.141  14.192  68.080  1.00  0.00    -0.343 OA 
BRANCH  20  21
HETATM   21  C   UNL     1     -12.071  13.533  66.910  1.00  0.00    -0.368 C  
HETATM   22  O   UNL     1     -12.470  14.104  65.909  1.00  0.00    -0.471 OA 
BRANCH  21  23
HETATM   23  C   UNL     1     -11.681  12.074  66.840  1.00  0.00    -0.266 C  
HETATM   24  H   UNL     1     -11.934  10.508  67.940  1.00  0.00     0.000 HD 
HETATM   25  O   UNL     1     -12.178  11.425  67.984  1.00  0.00    -0.607 OA 
BRANCH  23  26
HETATM   26  C   UNL     1     -10.148  11.815  66.734  1.00  0.00    -0.209 C  
HETATM   27  H   UNL     1      -8.588  12.065  67.859  1.00  0.00     0.000 HD 
HETATM   28  O   UNL     1      -9.523  12.223  67.924  1.00  0.00    -0.187 OA 
BRANCH  26  29
HETATM   29  C   UNL     1      -9.687  10.361  66.370  1.00  0.00    -0.201 C  
BRANCH  29  30
HETATM   30  O   UNL     1      -8.725   9.989  67.346  1.00  0.00    -0.125 OA 
BRANCH  30  31
HETATM   31  C   UNL     1      -8.858   8.686  67.876  1.00  0.00    -0.137 C  
HETATM   32  O   UNL     1      -8.886   7.733  66.827  1.00  0.00    -0.128 OA 
HETATM   33  C   UNL     1      -9.004   6.417  67.346  1.00  0.00    -0.109 C  
HETATM   34  H   UNL     1     -11.022   9.582  70.176  1.00  0.00     0.000 HD 
HETATM   35  C   UNL     1     -10.382   6.237  68.035  1.00  0.00    -0.192 C  
HETATM   36  O   UNL     1     -11.425   6.472  67.120  1.00  0.00    -0.768 OA 
HETATM   37  C   UNL     1     -10.475   7.243  69.201  1.00  0.00    -0.215 C  
HETATM   38  O   UNL     1     -10.203   9.601  69.698  1.00  0.00    -0.193 OA 
HETATM   39  H   UNL     1     -12.269   6.362  67.542  1.00  0.00     0.000 HD 
HETATM   40  O   UNL     1     -11.744   7.220  69.806  1.00  0.00    -0.509 OA 
HETATM   41  C   UNL     1     -10.196   8.654  68.657  1.00  0.00    -0.194 C  
HETATM   42  H   UNL     1     -11.801   7.839  70.524  1.00  0.00     0.000 HD 
BRANCH  33  43
HETATM   43  C   UNL     1      -8.802   5.430  66.186  1.00  0.00    -0.139 C  
HETATM   44  O   UNL     1      -9.158   6.007  64.958  1.00  0.00    -0.366 OA 
HETATM   45  H   UNL     1      -9.033   5.397  64.241  1.00  0.00     0.000 HD 
ENDBRANCH  33  43
ENDBRANCH  30  31
ENDBRANCH  29  30
BRANCH  29  46
HETATM   46  C   UNL     1      -9.155  10.155  64.908  1.00  0.00    -0.215 C  
HETATM   47  O   UNL     1      -7.795   9.787  64.913  1.00  0.00    -0.121 OA 
HETATM   48  H   UNL     1      -7.473   9.662  64.029  1.00  0.00     0.000 HD 
BRANCH  46  49
HETATM   49  C   UNL     1      -9.441  11.324  63.937  1.00  0.00    -0.192 C  
HETATM   50  H   UNL     1     -10.461  11.628  62.298  1.00  0.00     0.000 HD 
HETATM   51  O   UNL     1     -10.285  10.910  62.895  1.00  0.00    -0.240 OA 
ENDBRANCH  46  49
ENDBRANCH  29  46
ENDBRANCH  26  29
ENDBRANCH  23  26
ENDBRANCH  21  23
ENDBRANCH  20  21
ENDBRANCH  19  20
ENDBRANCH  18  19
ENDBRANCH  16  18
ENDBRANCH  13  16
ENDBRANCH  10  13
ENDBRANCH   7  10
ENDBRANCH   4   7
ENDBRANCH   2   4
TORSDOF 17
ENDMDL
MODEL      227
REMARK 921   NORMALIZED FREE ENERGY PREDICTED BY IDOCK:   -4.32 KCAL/MOL
REMARK 922        TOTAL FREE ENERGY PREDICTED BY IDOCK:  -12.06 KCAL/MOL
REMARK 923 INTER-LIGAND FREE ENERGY PREDICTED BY IDOCK:   -9.52 KCAL/MOL
REMARK 924 INTRA-LIGAND FREE ENERGY PREDICTED BY IDOCK:   -2.53 KCAL/MOL
REMARK 927      BINDING AFFINITY PREDICTED BY RF-SCORE:    0.00 PKD
ROOT
HETATM    1  O   UNL     1      -8.227   4.553  72.418  1.00  0.00    -0.105 OA 
HETATM    2  C   UNL     1      -9.322   3.677  72.402  1.00  0.00    -0.119 C  
HETATM    3  H   UNL     1      -7.419   4.054  72.418  1.00  0.00     0.000 HD 
ENDROOT
BRANCH   2   4
HETATM    4  C   UNL     1     -10.631   4.485  72.402  1.00  0.00    -0.135 C  
HETATM    5  O   UNL     1     -10.901   4.931  73.707  1.00  0.00    -0.275 OA 
HETATM    6  H   UNL     1     -11.710   5.431  73.707  1.00  0.00     0.000 HD 
BRANCH   4   7
HETATM    7  C   UNL     1     -10.548   5.705  71.446  1.00  0.00    -0.253 C  
HETATM    8  H   UNL     1     -10.663   6.023  69.531  1.00  0.00     0.000 HD 
HETATM    9  O   UNL     1     -10.715   5.276  70.116  1.00  0.00    -0.276 OA 
BRANCH   7  10
HETATM   10  C   UNL     1     -11.626   6.772  71.772  1.00  0.00    -0.297 C  
HETATM   11  H   UNL     1     -12.964   7.752  70.782  1.00  0.00     0.000 HD 
HETATM   12  O   UNL     1     -12.304   7.099  70.582  1.00  0.00    -0.272 OA 
BRANCH  10  13
HETATM   13  C   UNL     1     -11.044   8.072  72.392  1.00  0.00    -0.352 C  
HETATM   14  H   UNL     1     -10.004   8.558  73.959  1.00  0.00     0.000 HD 
HETATM   15  O   UNL     1     -10.361   7.763  73.580  1.00  0.00    -0.322 OA 
BRANCH  13  16
HETATM   16  C   UNL     1     -10.082   8.794  71.478  1.00  0.00    -0.301 C  
HETATM   17  O   UNL     1      -8.926   8.411  71.391  1.00  0.00    -0.153 OA 
BRANCH  16  18
HETATM   18  O   UNL     1     -10.475   9.866  70.761  1.00  0.00    -0.290 OA 
BRANCH  18  19
HETATM   19 CA   UNL     1      -8.802  11.402  69.925  1.00  0.00    -0.360 Ca 
BRANCH  19  20
HETATM   20  O   UNL     1      -7.129  12.938  69.090  1.00  0.00    -0.068 OA 
BRANCH  20  21
HETATM   21  C   UNL     1      -7.286  13.067  67.761  1.00  0.00    -0.139 C  
HETATM   22  O   UNL     1      -6.297  12.958  67.056  1.00  0.00    -0.212 OA 
BRANCH  21  23
HETATM   23  C   UNL     1      -8.599  13.505  67.153  1.00  0.00    -0.195 C  
HETATM   24  H   UNL     1      -9.718  15.076  67.235  1.00  0.00     0.000 HD 
HETATM   25  O   UNL     1      -8.893  14.801  67.617  1.00  0.00    -0.168 OA 
BRANCH  23  26
HETATM   26  C   UNL     1      -9.805  12.568  67.464  1.00  0.00    -0.198 C  
HETATM   27  H   UNL     1     -11.182  12.436  68.823  1.00  0.00     0.000 HD 
HETATM   28  O   UNL     1     -10.447  13.007  68.634  1.00  0.00    -0.249 OA 
BRANCH  26  29
HETATM   29  C   UNL     1     -10.867  12.360  66.329  1.00  0.00    -0.266 C  
BRANCH  29  30
HETATM   30  O   UNL     1     -10.167  11.814  65.220  1.00  0.00    -0.247 OA 
BRANCH  30  31
HETATM   31  C   UNL     1     -10.073  10.404  65.186  1.00  0.00    -0.308 C  
HETATM   32  O   UNL     1     -10.110   9.880  66.503  1.00  0.00    -0.214 OA 
HETATM   33  C   UNL     1     -10.032   8.463  66.482  1.00  0.00    -0.265 C  
HETATM   34  H   UNL     1      -7.819  10.371  62.799  1.00  0.00     0.000 HD 
HETATM   35  C   UNL     1      -8.646   8.013  65.952  1.00  0.00    -0.152 C  
HETATM   36  O   UNL     1      -7.617   8.524  66.764  1.00  0.00    -0.088 OA 
HETATM   37  C   UNL     1      -8.484   8.541  64.511  1.00  0.00    -0.090 C  
HETATM   38  O   UNL     1      -8.649  10.581  63.210  1.00  0.00    -0.172 OA 
HETATM   39  H   UNL     1      -6.769   8.248  66.439  1.00  0.00     0.000 HD 
HETATM   40  O   UNL     1      -7.202   8.270  64.000  1.00  0.00    -0.084 OA 
HETATM   41  C   UNL     1      -8.719  10.061  64.516  1.00  0.00    -0.195 C  
HETATM   42  H   UNL     1      -7.103   8.595  63.113  1.00  0.00     0.000 HD 
BRANCH  33  43
HETATM   43  C   UNL     1     -10.302   7.953  67.906  1.00  0.00    -0.221 C  
HETATM   44  O   UNL     1     -11.172   6.853  67.898  1.00  0.00    -0.525 OA 
HETATM   45  H   UNL     1     -11.338   6.538  68.778  1.00  0.00     0.000 HD 
ENDBRANCH  33  43
ENDBRANCH  30  31
ENDBRANCH  29  30
BRANCH  29  46
HETATM   46  C   UNL     1     -11.704  13.626  65.932  1.00  0.00    -0.354 C  
HETATM   47  O   UNL     1     -12.472  14.086  67.020  1.00  0.00    -0.530 OA 
HETATM   48  H   UNL     1     -12.978  14.852  66.780  1.00  0.00     0.000 HD 
BRANCH  46  49
HETATM   49  C   UNL     1     -12.547  13.476  64.644  1.00  0.00    -0.251 C  
HETATM   50  H   UNL     1     -13.157  14.609  63.172  1.00  0.00     0.000 HD 
HETATM   51  O   UNL     1     -12.639  14.701  63.963  1.00  0.00    -0.819 OA 
ENDBRANCH  46  49
ENDBRANCH  29  46
ENDBRANCH  26  29
ENDBRANCH  23  26
ENDBRANCH  21  23
ENDBRANCH  20  21
ENDBRANCH  19  20
ENDBRANCH  18  19
ENDBRANCH  16  18
ENDBRANCH  13  16
ENDBRANCH  10  13
ENDBRANCH   7  10
ENDBRANCH   4   7
ENDBRANCH   2   4
TORSDOF 17
ENDMDL
MODEL      228
REMARK 921   NORMALIZED FREE ENERGY PREDICTED BY IDOCK:   -4.32 KCAL/MOL
REMARK 922        TOTAL FREE ENERGY PREDICTED BY IDOCK:  -12.05 KCAL/MOL
REMARK 923 INTER-LIGAND FREE ENERGY PREDICTED BY IDOCK:   -9.38 KCAL/MOL
REMARK 924 INTRA-LIGAND FREE ENERGY PREDICTED BY IDOCK:   -2.67 KCAL/MOL
REMARK 927      BINDING AFFINITY PREDICTED BY RF-SCORE:    0.00 PKD
ROOT
HETATM    1  O   UNL     1     -11.818  16.669  71.822  1.00  0.00    -0.650 OA 
HETATM    2  C   UNL     1     -11.911  15.307  72.138  1.00  0.00    -0.420 C  
HETATM    3  H   UNL     1     -11.277  17.111  72.466  1.00  0.00     0.000 HD 
ENDROOT
BRANCH   2   4
HETATM    4  C   UNL     1     -12.787  14.592  71.095  1.00  0.00    -0.343 C  
HETATM    5  O   UNL     1     -13.474  15.550  70.330  1.00  0.00    -0.752 OA 
HETATM    6  H   UNL     1     -14.014  15.109  69.685  1.00  0.00     0.000 HD 
BRANCH   4   7
HETATM    7  C   UNL     1     -11.937  13.694  70.157  1.00  0.00    -0.337 C  
HETATM    8  H   UNL     1     -11.826  11.805  69.711  1.00  0.00     0.000 HD 
HETATM    9  O   UNL     1     -12.347  12.354  70.285  1.00  0.00    -0.275 OA 
BRANCH   7  10
HETATM   10  C   UNL     1     -12.066  14.122  68.671  1.00  0.00    -0.285 C  
HETATM   11  H   UNL     1     -12.238  13.224  66.970  1.00  0.00     0.000 HD 
HETATM   12  O   UNL     1     -12.159  12.962  67.880  1.00  0.00    -0.312 OA 
BRANCH  10  13
HETATM   13  C   UNL     1     -10.872  14.979  68.168  1.00  0.00    -0.263 C  
HETATM   14  H   UNL     1     -10.063  16.689  68.609  1.00  0.00     0.000 HD 
HETATM   15  O   UNL     1     -10.794  16.165  68.916  1.00  0.00    -0.266 OA 
BRANCH  13  16
HETATM   16  C   UNL     1      -9.540  14.274  68.274  1.00  0.00    -0.221 C  
HETATM   17  O   UNL     1      -8.699  14.685  69.059  1.00  0.00    -0.169 OA 
BRANCH  16  18
HETATM   18  O   UNL     1      -9.257  13.202  67.508  1.00  0.00    -0.189 OA 
BRANCH  18  19
HETATM   19 CA   UNL     1      -8.128  11.307  68.504  1.00  0.00    -0.098 Ca 
BRANCH  19  20
HETATM   20  O   UNL     1      -7.001   9.411  69.500  1.00  0.00    -0.049 OA 
BRANCH  20  21
HETATM   21  C   UNL     1      -7.376   9.314  70.787  1.00  0.00    -0.123 C  
HETATM   22  O   UNL     1      -6.506   9.370  71.640  1.00  0.00    -0.255 OA 
BRANCH  21  23
HETATM   23  C   UNL     1      -8.795   8.971  71.180  1.00  0.00    -0.215 C  
HETATM   24  H   UNL     1      -9.795   8.851  72.827  1.00  0.00     0.000 HD 
HETATM   25  O   UNL     1      -8.904   9.067  72.580  1.00  0.00    -0.305 OA 
BRANCH  23  26
HETATM   26  C   UNL     1      -9.271   7.557  70.729  1.00  0.00    -0.158 C  
HETATM   27  H   UNL     1      -9.487   5.809  71.541  1.00  0.00     0.000 HD 
HETATM   28  O   UNL     1      -9.196   6.671  71.816  1.00  0.00    -0.149 OA 
BRANCH  26  29
HETATM   29  C   UNL     1     -10.687   7.453  70.063  1.00  0.00    -0.246 C  
BRANCH  29  30
HETATM   30  O   UNL     1     -10.697   8.388  68.993  1.00  0.00    -0.185 OA 
BRANCH  30  31
HETATM   31  C   UNL     1     -10.469   7.852  67.706  1.00  0.00    -0.212 C  
HETATM   32  O   UNL     1     -10.155   6.473  67.800  1.00  0.00    -0.131 OA 
HETATM   33  C   UNL     1      -9.938   5.918  66.512  1.00  0.00    -0.153 C  
HETATM   34  H   UNL     1      -8.817  10.481  66.640  1.00  0.00     0.000 HD 
HETATM   35  C   UNL     1      -8.668   6.535  65.872  1.00  0.00    -0.141 C  
HETATM   36  O   UNL     1      -7.541   6.293  66.678  1.00  0.00    -0.091 OA 
HETATM   37  C   UNL     1      -8.889   8.056  65.728  1.00  0.00    -0.132 C  
HETATM   38  O   UNL     1      -9.550  10.005  67.010  1.00  0.00    -0.162 OA 
HETATM   39  H   UNL     1      -6.763   6.672  66.286  1.00  0.00     0.000 HD 
HETATM   40  O   UNL     1      -7.733   8.706  65.258  1.00  0.00    -0.085 OA 
HETATM   41  C   UNL     1      -9.272   8.629  67.103  1.00  0.00    -0.144 C  
HETATM   42  H   UNL     1      -7.870   9.642  65.170  1.00  0.00     0.000 HD 
BRANCH  33  43
HETATM   43  C   UNL     1      -9.827   4.393  66.665  1.00  0.00    -0.226 C  
HETATM   44  O   UNL     1      -8.942   3.849  65.723  1.00  0.00    -0.121 OA 
HETATM   45  H   UNL     1      -8.873   2.907  65.819  1.00  0.00     0.000 HD 
ENDBRANCH  33  43
ENDBRANCH  30  31
ENDBRANCH  29  30
BRANCH  29  46
HETATM   46  C   UNL     1     -11.913   7.643  71.024  1.00  0.00    -0.273 C  
HETATM   47  O   UNL     1     -13.053   6.983  70.524  1.00  0.00    -0.512 OA 
HETATM   48  H   UNL     1     -13.795   7.098  71.105  1.00  0.00     0.000 HD 
BRANCH  46  49
HETATM   49  C   UNL     1     -12.212   9.107  71.422  1.00  0.00    -0.335 C  
HETATM   50  H   UNL     1     -13.580  10.087  72.416  1.00  0.00     0.000 HD 
HETATM   51  O   UNL     1     -13.396   9.188  72.172  1.00  0.00    -0.396 OA 
ENDBRANCH  46  49
ENDBRANCH  29  46
ENDBRANCH  26  29
ENDBRANCH  23  26
ENDBRANCH  21  23
ENDBRANCH  20  21
ENDBRANCH  19  20
ENDBRANCH  18  19
ENDBRANCH  16  18
ENDBRANCH  13  16
ENDBRANCH  10  13
ENDBRANCH   7  10
ENDBRANCH   4   7
ENDBRANCH   2   4
TORSDOF 17
ENDMDL
MODEL      229
REMARK 921   NORMALIZED FREE ENERGY PREDICTED BY IDOCK:   -4.32 KCAL/MOL
REMARK 922        TOTAL FREE ENERGY PREDICTED BY IDOCK:  -12.05 KCAL/MOL
REMARK 923 INTER-LIGAND FREE ENERGY PREDICTED BY IDOCK:   -9.18 KCAL/MOL
REMARK 924 INTRA-LIGAND FREE ENERGY PREDICTED BY IDOCK:   -2.86 KCAL/MOL
REMARK 927      BINDING AFFINITY PREDICTED BY RF-SCORE:    0.00 PKD
ROOT
HETATM    1  O   UNL     1      -9.077   9.015  62.666  1.00  0.00    -0.451 OA 
HETATM    2  C   UNL     1      -8.071   8.425  63.444  1.00  0.00    -0.145 C  
HETATM    3  H   UNL     1      -9.564   8.339  62.208  1.00  0.00     0.000 HD 
ENDROOT
BRANCH   2   4
HETATM    4  C   UNL     1      -7.283   9.518  64.185  1.00  0.00    -0.115 C  
HETATM    5  O   UNL     1      -7.895  10.763  63.964  1.00  0.00    -0.353 OA 
HETATM    6  H   UNL     1      -7.408  11.438  64.422  1.00  0.00     0.000 HD 
BRANCH   4   7
HETATM    7  C   UNL     1      -7.216   9.238  65.710  1.00  0.00    -0.090 C  
HETATM    8  H   UNL     1      -6.659  10.192  67.310  1.00  0.00     0.000 HD 
HETATM    9  O   UNL     1      -6.700  10.364  66.376  1.00  0.00    -0.092 OA 
BRANCH   7  10
HETATM   10  C   UNL     1      -8.611   8.898  66.299  1.00  0.00    -0.133 C  
HETATM   11  H   UNL     1     -10.186   9.888  66.818  1.00  0.00     0.000 HD 
HETATM   12  O   UNL     1      -9.332  10.096  66.457  1.00  0.00    -0.156 OA 
BRANCH  10  13
HETATM   13  C   UNL     1      -8.544   8.166  67.668  1.00  0.00    -0.130 C  
HETATM   14  H   UNL     1      -9.042   8.542  69.507  1.00  0.00     0.000 HD 
HETATM   15  O   UNL     1      -9.083   8.990  68.670  1.00  0.00    -0.136 OA 
BRANCH  13  16
HETATM   16  C   UNL     1      -9.298   6.858  67.687  1.00  0.00    -0.121 C  
HETATM   17  O   UNL     1      -8.752   5.839  67.292  1.00  0.00    -0.110 OA 
BRANCH  16  18
HETATM   18  O   UNL     1     -10.572   6.794  68.123  1.00  0.00    -0.194 OA 
BRANCH  18  19
HETATM   19 CA   UNL     1     -11.613   8.789  69.014  1.00  0.00    -0.437 Ca 
BRANCH  19  20
HETATM   20  O   UNL     1     -12.655  10.782  69.907  1.00  0.00    -0.294 OA 
BRANCH  20  21
HETATM   21  C   UNL     1     -12.167  11.852  69.256  1.00  0.00    -0.109 C  
HETATM   22  O   UNL     1     -11.921  11.734  68.067  1.00  0.00    -0.553 OA 
BRANCH  21  23
HETATM   23  C   UNL     1     -11.765  13.114  69.985  1.00  0.00    -0.221 C  
HETATM   24  H   UNL     1     -12.468  14.167  71.443  1.00  0.00     0.000 HD 
HETATM   25  O   UNL     1     -12.721  13.374  70.984  1.00  0.00    -0.342 OA 
BRANCH  23  26
HETATM   26  C   UNL     1     -11.624  14.374  69.077  1.00  0.00    -0.296 C  
HETATM   27  H   UNL     1     -12.281  16.198  69.074  1.00  0.00     0.000 HD 
HETATM   28  O   UNL     1     -12.367  15.431  69.628  1.00  0.00    -0.304 OA 
BRANCH  26  29
HETATM   29  C   UNL     1     -10.171  14.866  68.751  1.00  0.00    -0.243 C  
BRANCH  29  30
HETATM   30  O   UNL     1     -10.196  16.283  68.850  1.00  0.00    -0.228 OA 
BRANCH  30  31
HETATM   31  C   UNL     1      -9.186  16.967  68.138  1.00  0.00    -0.244 C  
HETATM   32  O   UNL     1      -7.985  16.987  68.891  1.00  0.00    -0.252 OA 
HETATM   33  C   UNL     1      -6.957  17.659  68.179  1.00  0.00    -0.210 C  
HETATM   34  H   UNL     1     -11.209  19.310  67.044  1.00  0.00     0.000 HD 
HETATM   35  C   UNL     1      -7.310  19.160  68.023  1.00  0.00    -0.256 C  
HETATM   36  O   UNL     1      -7.474  19.763  69.284  1.00  0.00    -0.316 OA 
HETATM   37  C   UNL     1      -8.623  19.267  67.219  1.00  0.00    -0.292 C  
HETATM   38  O   UNL     1     -10.897  18.424  67.181  1.00  0.00    -0.373 OA 
HETATM   39  H   UNL     1      -7.691  20.683  69.187  1.00  0.00     0.000 HD 
HETATM   40  O   UNL     1      -9.071  20.598  67.132  1.00  0.00    -0.524 OA 
HETATM   41  C   UNL     1      -9.696  18.414  67.915  1.00  0.00    -0.308 C  
HETATM   42  H   UNL     1      -9.880  20.663  66.637  1.00  0.00     0.000 HD 
BRANCH  33  43
HETATM   43  C   UNL     1      -5.639  17.449  68.942  1.00  0.00    -0.161 C  
HETATM   44  O   UNL     1      -5.865  17.290  70.316  1.00  0.00    -0.232 OA 
HETATM   45  H   UNL     1      -5.051  17.160  70.787  1.00  0.00     0.000 HD 
ENDBRANCH  33  43
ENDBRANCH  30  31
ENDBRANCH  29  30
BRANCH  29  46
HETATM   46  C   UNL     1      -9.573  14.381  67.383  1.00  0.00    -0.216 C  
HETATM   47  O   UNL     1     -10.577  13.835  66.559  1.00  0.00    -0.276 OA 
HETATM   48  H   UNL     1     -10.215  13.542  65.731  1.00  0.00     0.000 HD 
BRANCH  46  49
HETATM   49  C   UNL     1      -8.342  13.454  67.499  1.00  0.00    -0.190 C  
HETATM   50  H   UNL     1      -6.421  13.546  67.152  1.00  0.00     0.000 HD 
HETATM   51  O   UNL     1      -7.177  14.116  67.080  1.00  0.00    -0.081 OA 
ENDBRANCH  46  49
ENDBRANCH  29  46
ENDBRANCH  26  29
ENDBRANCH  23  26
ENDBRANCH  21  23
ENDBRANCH  20  21
ENDBRANCH  19  20
ENDBRANCH  18  19
ENDBRANCH  16  18
ENDBRANCH  13  16
ENDBRANCH  10  13
ENDBRANCH   7  10
ENDBRANCH   4   7
ENDBRANCH   2   4
TORSDOF 17
ENDMDL
MODEL      230
REMARK 921   NORMALIZED FREE ENERGY PREDICTED BY IDOCK:   -4.32 KCAL/MOL
REMARK 922        TOTAL FREE ENERGY PREDICTED BY IDOCK:  -12.05 KCAL/MOL
REMARK 923 INTER-LIGAND FREE ENERGY PREDICTED BY IDOCK:   -9.28 KCAL/MOL
REMARK 924 INTRA-LIGAND FREE ENERGY PREDICTED BY IDOCK:   -2.77 KCAL/MOL
REMARK 927      BINDING AFFINITY PREDICTED BY RF-SCORE:    0.00 PKD
ROOT
HETATM    1  O   UNL     1     -13.151  13.932  65.803  1.00  0.00    -0.526 OA 
HETATM    2  C   UNL     1     -12.383  14.015  66.972  1.00  0.00    -0.243 C  
HETATM    3  H   UNL     1     -13.984  14.369  65.936  1.00  0.00     0.000 HD 
ENDROOT
BRANCH   2   4
HETATM    4  C   UNL     1     -11.034  13.308  66.756  1.00  0.00    -0.287 C  
HETATM    5  O   UNL     1     -11.263  11.963  66.414  1.00  0.00    -0.307 OA 
HETATM    6  H   UNL     1     -10.430  11.527  66.281  1.00  0.00     0.000 HD 
BRANCH   4   7
HETATM    7  C   UNL     1     -10.205  13.991  65.636  1.00  0.00    -0.334 C  
HETATM    8  H   UNL     1     -10.098  13.916  63.696  1.00  0.00     0.000 HD 
HETATM    9  O   UNL     1     -10.606  13.498  64.382  1.00  0.00    -0.419 OA 
BRANCH   7  10
HETATM   10  C   UNL     1     -10.373  15.534  65.650  1.00  0.00    -0.384 C  
HETATM   11  H   UNL     1     -10.787  16.904  64.354  1.00  0.00     0.000 HD 
HETATM   12  O   UNL     1     -10.684  15.960  64.345  1.00  0.00    -0.412 OA 
BRANCH  10  13
HETATM   13  C   UNL     1      -9.106  16.290  66.137  1.00  0.00    -0.341 C  
HETATM   14  H   UNL     1      -8.562  18.137  66.392  1.00  0.00     0.000 HD 
HETATM   15  O   UNL     1      -9.337  17.675  66.094  1.00  0.00    -0.445 OA 
BRANCH  13  16
HETATM   16  C   UNL     1      -8.696  15.930  67.545  1.00  0.00    -0.178 C  
HETATM   17  O   UNL     1      -9.231  16.487  68.492  1.00  0.00    -0.214 OA 
BRANCH  16  18
HETATM   18  O   UNL     1      -7.740  15.010  67.779  1.00  0.00    -0.127 OA 
BRANCH  18  19
HETATM   19 CA   UNL     1      -8.355  12.672  67.890  1.00  0.00    -0.117 Ca 
BRANCH  19  20
HETATM   20  O   UNL     1      -8.971  10.335  68.001  1.00  0.00    -0.130 OA 
BRANCH  20  21
HETATM   21  C   UNL     1      -8.721   9.765  66.810  1.00  0.00    -0.131 C  
HETATM   22  O   UNL     1      -8.137  10.430  65.971  1.00  0.00    -0.131 OA 
BRANCH  21  23
HETATM   23  C   UNL     1      -9.288   8.414  66.438  1.00  0.00    -0.214 C  
HETATM   24  H   UNL     1     -10.980   7.507  66.643  1.00  0.00     0.000 HD 
HETATM   25  O   UNL     1     -10.624   8.356  66.877  1.00  0.00    -0.305 OA 
BRANCH  23  26
HETATM   26  C   UNL     1      -8.508   7.197  67.022  1.00  0.00    -0.122 C  
HETATM   27  H   UNL     1      -7.110   6.910  68.335  1.00  0.00     0.000 HD 
HETATM   28  O   UNL     1      -7.586   7.651  67.979  1.00  0.00    -0.105 OA 
BRANCH  26  29
HETATM   29  C   UNL     1      -9.353   6.021  67.622  1.00  0.00    -0.112 C  
BRANCH  29  30
HETATM   30  O   UNL     1      -9.250   6.133  69.034  1.00  0.00    -0.126 OA 
BRANCH  30  31
HETATM   31  C   UNL     1     -10.434   6.502  69.711  1.00  0.00    -0.211 C  
HETATM   32  O   UNL     1     -10.505   7.912  69.836  1.00  0.00    -0.220 OA 
HETATM   33  C   UNL     1     -11.698   8.298  70.501  1.00  0.00    -0.066 C  
HETATM   34  H   UNL     1     -10.248   4.044  71.880  1.00  0.00     0.000 HD 
HETATM   35  C   UNL     1     -11.673   7.805  71.971  1.00  0.00    -0.304 C  
HETATM   36  O   UNL     1     -10.566   8.342  72.653  1.00  0.00    -0.332 OA 
HETATM   37  C   UNL     1     -11.583   6.265  71.964  1.00  0.00    -0.322 C  
HETATM   38  O   UNL     1     -10.286   4.445  71.020  1.00  0.00    -0.109 OA 
HETATM   39  H   UNL     1     -10.550   8.040  73.553  1.00  0.00     0.000 HD 
HETATM   40  O   UNL     1     -11.441   5.746  73.263  1.00  0.00    -0.488 OA 
HETATM   41  C   UNL     1     -10.371   5.847  71.114  1.00  0.00    -0.221 C  
HETATM   42  H   UNL     1     -11.386   4.798  73.258  1.00  0.00     0.000 HD 
BRANCH  33  43
HETATM   43  C   UNL     1     -11.821   9.827  70.404  1.00  0.00    -0.193 C  
HETATM   44  O   UNL     1     -11.908  10.248  69.069  1.00  0.00    -0.504 OA 
HETATM   45  H   UNL     1     -11.985  11.192  69.010  1.00  0.00     0.000 HD 
ENDBRANCH  33  43
ENDBRANCH  30  31
ENDBRANCH  29  30
BRANCH  29  46
HETATM   46  C   UNL     1      -8.985   4.582  67.116  1.00  0.00    -0.116 C  
HETATM   47  O   UNL     1     -10.144   3.838  66.822  1.00  0.00    -0.343 OA 
HETATM   48  H   UNL     1      -9.921   2.968  66.515  1.00  0.00     0.000 HD 
BRANCH  46  49
HETATM   49  C   UNL     1      -8.002   3.802  68.019  1.00  0.00    -0.076 C  
HETATM   50  H   UNL     1      -7.930   2.072  68.927  1.00  0.00     0.000 HD 
HETATM   51  O   UNL     1      -8.534   2.551  68.371  1.00  0.00    -0.063 OA 
ENDBRANCH  46  49
ENDBRANCH  29  46
ENDBRANCH  26  29
ENDBRANCH  23  26
ENDBRANCH  21  23
ENDBRANCH  20  21
ENDBRANCH  19  20
ENDBRANCH  18  19
ENDBRANCH  16  18
ENDBRANCH  13  16
ENDBRANCH  10  13
ENDBRANCH   7  10
ENDBRANCH   4   7
ENDBRANCH   2   4
TORSDOF 17
ENDMDL
MODEL      231
REMARK 921   NORMALIZED FREE ENERGY PREDICTED BY IDOCK:   -4.27 KCAL/MOL
REMARK 922        TOTAL FREE ENERGY PREDICTED BY IDOCK:  -11.95 KCAL/MOL
REMARK 923 INTER-LIGAND FREE ENERGY PREDICTED BY IDOCK:   -8.37 KCAL/MOL
REMARK 924 INTRA-LIGAND FREE ENERGY PREDICTED BY IDOCK:   -3.58 KCAL/MOL
REMARK 927      BINDING AFFINITY PREDICTED BY RF-SCORE:    0.00 PKD
ROOT
HETATM    1  O   UNL     1      -9.611  14.929  67.211  1.00  0.00    -0.210 OA 
HETATM    2  C   UNL     1     -10.626  15.835  67.547  1.00  0.00    -0.309 C  
HETATM    3  H   UNL     1      -8.848  15.404  66.901  1.00  0.00     0.000 HD 
ENDROOT
BRANCH   2   4
HETATM    4  C   UNL     1     -11.860  15.066  68.049  1.00  0.00    -0.241 C  
HETATM    5  O   UNL     1     -12.371  14.274  67.006  1.00  0.00    -0.579 OA 
HETATM    6  H   UNL     1     -13.133  13.799  67.316  1.00  0.00     0.000 HD 
BRANCH   4   7
HETATM    7  C   UNL     1     -11.514  14.162  69.262  1.00  0.00    -0.292 C  
HETATM    8  H   UNL     1     -10.307  14.223  70.784  1.00  0.00     0.000 HD 
HETATM    9  O   UNL     1     -10.518  14.777  70.042  1.00  0.00    -0.101 OA 
BRANCH   7  10
HETATM   10  C   UNL     1     -12.755  13.886  70.153  1.00  0.00    -0.123 C  
HETATM   11  H   UNL     1     -14.035  14.951  71.132  1.00  0.00     0.000 HD 
HETATM   12  O   UNL     1     -13.275  15.120  70.587  1.00  0.00    -0.373 OA 
BRANCH  10  13
HETATM   13  C   UNL     1     -12.442  13.008  71.395  1.00  0.00    -0.148 C  
HETATM   14  H   UNL     1     -13.270  12.620  73.108  1.00  0.00     0.000 HD 
HETATM   15  O   UNL     1     -13.462  13.158  72.349  1.00  0.00    -0.558 OA 
BRANCH  13  16
HETATM   16  C   UNL     1     -12.319  11.537  71.074  1.00  0.00    -0.329 C  
HETATM   17  O   UNL     1     -12.832  10.711  71.813  1.00  0.00    -0.437 OA 
BRANCH  16  18
HETATM   18  O   UNL     1     -11.641  11.115  69.988  1.00  0.00    -0.296 OA 
BRANCH  18  19
HETATM   19 CA   UNL     1      -9.222  11.070  70.052  1.00  0.00    -0.386 Ca 
BRANCH  19  20
HETATM   20  O   UNL     1      -6.804  11.026  70.117  1.00  0.00    -0.172 OA 
BRANCH  20  21
HETATM   21  C   UNL     1      -6.332  11.885  69.197  1.00  0.00    -0.092 C  
HETATM   22  O   UNL     1      -5.259  12.421  69.415  1.00  0.00    -0.065 OA 
BRANCH  21  23
HETATM   23  C   UNL     1      -7.164  12.321  68.011  1.00  0.00    -0.102 C  
HETATM   24  H   UNL     1      -9.007  12.805  67.705  1.00  0.00     0.000 HD 
HETATM   25  O   UNL     1      -8.484  12.532  68.449  1.00  0.00    -0.168 OA 
BRANCH  23  26
HETATM   26  C   UNL     1      -7.178  11.314  66.821  1.00  0.00    -0.142 C  
HETATM   27  H   UNL     1      -6.126   9.791  66.243  1.00  0.00     0.000 HD 
HETATM   28  O   UNL     1      -6.117  10.404  66.968  1.00  0.00    -0.050 OA 
BRANCH  26  29
HETATM   29  C   UNL     1      -8.510  10.530  66.557  1.00  0.00    -0.139 C  
BRANCH  29  30
HETATM   30  O   UNL     1      -8.270   9.187  66.950  1.00  0.00    -0.114 OA 
BRANCH  30  31
HETATM   31  C   UNL     1      -8.763   8.820  68.222  1.00  0.00    -0.135 C  
HETATM   32  O   UNL     1      -7.797   8.048  68.916  1.00  0.00    -0.109 OA 
HETATM   33  C   UNL     1      -8.275   7.686  70.203  1.00  0.00    -0.124 C  
HETATM   34  H   UNL     1     -11.798   8.201  67.134  1.00  0.00     0.000 HD 
HETATM   35  C   UNL     1      -9.482   6.722  70.072  1.00  0.00    -0.157 C  
HETATM   36  O   UNL     1      -9.113   5.561  69.369  1.00  0.00    -0.111 OA 
HETATM   37  C   UNL     1     -10.607   7.456  69.313  1.00  0.00    -0.213 C  
HETATM   38  O   UNL     1     -11.015   8.716  67.281  1.00  0.00    -0.114 OA 
HETATM   39  H   UNL     1      -9.853   4.971  69.289  1.00  0.00     0.000 HD 
HETATM   40  O   UNL     1     -11.698   6.607  69.054  1.00  0.00    -0.608 OA 
HETATM   41  C   UNL     1     -10.042   7.979  67.982  1.00  0.00    -0.194 C  
HETATM   42  H   UNL     1     -12.391   7.060  68.587  1.00  0.00     0.000 HD 
BRANCH  33  43
HETATM   43  C   UNL     1      -7.109   7.053  70.979  1.00  0.00    -0.070 C  
HETATM   44  O   UNL     1      -5.954   6.971  70.187  1.00  0.00    -0.023 OA 
HETATM   45  H   UNL     1      -5.234   6.580  70.667  1.00  0.00     0.000 HD 
ENDBRANCH  33  43
ENDBRANCH  30  31
ENDBRANCH  29  30
BRANCH  29  46
HETATM   46  C   UNL     1      -9.084  10.625  65.099  1.00  0.00    -0.201 C  
HETATM   47  O   UNL     1      -8.067  10.933  64.175  1.00  0.00    -0.364 OA 
HETATM   48  H   UNL     1      -8.414  10.990  63.293  1.00  0.00     0.000 HD 
BRANCH  46  49
HETATM   49  C   UNL     1     -10.317  11.545  64.940  1.00  0.00    -0.289 C  
HETATM   50  H   UNL     1     -11.265  12.892  65.993  1.00  0.00     0.000 HD 
HETATM   51  O   UNL     1     -10.507  12.326  66.091  1.00  0.00    -0.232 OA 
ENDBRANCH  46  49
ENDBRANCH  29  46
ENDBRANCH  26  29
ENDBRANCH  23  26
ENDBRANCH  21  23
ENDBRANCH  20  21
ENDBRANCH  19  20
ENDBRANCH  18  19
ENDBRANCH  16  18
ENDBRANCH  13  16
ENDBRANCH  10  13
ENDBRANCH   7  10
ENDBRANCH   4   7
ENDBRANCH   2   4
TORSDOF 17
ENDMDL
MODEL      232
REMARK 921   NORMALIZED FREE ENERGY PREDICTED BY IDOCK:   -4.27 KCAL/MOL
REMARK 922        TOTAL FREE ENERGY PREDICTED BY IDOCK:  -11.95 KCAL/MOL
REMARK 923 INTER-LIGAND FREE ENERGY PREDICTED BY IDOCK:  -10.03 KCAL/MOL
REMARK 924 INTRA-LIGAND FREE ENERGY PREDICTED BY IDOCK:   -1.92 KCAL/MOL
REMARK 927      BINDING AFFINITY PREDICTED BY RF-SCORE:    0.00 PKD
ROOT
HETATM    1  O   UNL     1     -11.976   6.490  69.582  1.00  0.00    -0.618 OA 
HETATM    2  C   UNL     1     -11.005   6.611  68.578  1.00  0.00    -0.244 C  
HETATM    3  H   UNL     1     -12.584   7.218  69.528  1.00  0.00     0.000 HD 
ENDROOT
BRANCH   2   4
HETATM    4  C   UNL     1     -10.020   5.433  68.666  1.00  0.00    -0.170 C  
HETATM    5  O   UNL     1      -8.843   5.759  67.969  1.00  0.00    -0.110 OA 
HETATM    6  H   UNL     1      -8.235   5.031  68.023  1.00  0.00     0.000 HD 
BRANCH   4   7
HETATM    7  C   UNL     1      -9.670   5.092  70.139  1.00  0.00    -0.210 C  
HETATM    8  H   UNL     1      -8.655   3.727  71.081  1.00  0.00     0.000 HD 
HETATM    9  O   UNL     1      -8.869   3.936  70.179  1.00  0.00    -0.071 OA 
BRANCH   7  10
HETATM   10  C   UNL     1      -8.916   6.253  70.840  1.00  0.00    -0.147 C  
HETATM   11  H   UNL     1      -7.088   6.865  70.951  1.00  0.00     0.000 HD 
HETATM   12  O   UNL     1      -7.549   6.154  70.522  1.00  0.00    -0.091 OA 
BRANCH  10  13
HETATM   13  C   UNL     1      -9.074   6.249  72.386  1.00  0.00    -0.138 C  
HETATM   14  H   UNL     1      -8.312   7.203  73.896  1.00  0.00     0.000 HD 
HETATM   15  O   UNL     1      -8.215   7.205  72.951  1.00  0.00    -0.104 OA 
BRANCH  13  16
HETATM   16  C   UNL     1     -10.479   6.556  72.847  1.00  0.00    -0.222 C  
HETATM   17  O   UNL     1     -11.232   5.642  73.146  1.00  0.00    -0.275 OA 
BRANCH  16  18
HETATM   18  O   UNL     1     -10.925   7.826  72.923  1.00  0.00    -0.361 OA 
BRANCH  18  19
HETATM   19 CA   UNL     1     -10.647   9.289  71.015  1.00  0.00    -0.187 Ca 
BRANCH  19  20
HETATM   20  O   UNL     1     -10.370  10.753  69.108  1.00  0.00    -0.205 OA 
BRANCH  20  21
HETATM   21  C   UNL     1     -11.494  11.473  68.949  1.00  0.00    -0.289 C  
HETATM   22  O   UNL     1     -12.497  11.102  69.537  1.00  0.00    -0.254 OA 
BRANCH  21  23
HETATM   23  C   UNL     1     -11.583  12.601  67.946  1.00  0.00    -0.349 C  
HETATM   24  H   UNL     1     -11.765  12.752  66.031  1.00  0.00     0.000 HD 
HETATM   25  O   UNL     1     -11.709  12.044  66.661  1.00  0.00    -0.522 OA 
BRANCH  23  26
HETATM   26  C   UNL     1     -10.370  13.580  67.960  1.00  0.00    -0.241 C  
HETATM   27  H   UNL     1      -9.239  14.451  66.647  1.00  0.00     0.000 HD 
HETATM   28  O   UNL     1      -9.978  13.854  66.639  1.00  0.00    -0.264 OA 
BRANCH  26  29
HETATM   29  C   UNL     1     -10.540  14.925  68.748  1.00  0.00    -0.247 C  
BRANCH  29  30
HETATM   30  O   UNL     1      -9.281  15.201  69.346  1.00  0.00    -0.220 OA 
BRANCH  30  31
HETATM   31  C   UNL     1      -8.637  16.380  68.908  1.00  0.00    -0.250 C  
HETATM   32  O   UNL     1      -9.549  17.197  68.193  1.00  0.00    -0.254 OA 
HETATM   33  C   UNL     1      -8.919  18.393  67.761  1.00  0.00    -0.281 C  
HETATM   34  H   UNL     1      -5.853  14.845  68.090  1.00  0.00     0.000 HD 
HETATM   35  C   UNL     1      -7.824  18.070  66.712  1.00  0.00    -0.235 C  
HETATM   36  O   UNL     1      -8.383  17.410  65.602  1.00  0.00    -0.487 OA 
HETATM   37  C   UNL     1      -6.768  17.164  67.379  1.00  0.00    -0.148 C  
HETATM   38  O   UNL     1      -6.564  15.115  68.659  1.00  0.00    -0.087 OA 
HETATM   39  H   UNL     1      -7.712  17.212  64.960  1.00  0.00     0.000 HD 
HETATM   40  O   UNL     1      -5.797  16.733  66.456  1.00  0.00    -0.319 OA 
HETATM   41  C   UNL     1      -7.478  15.939  67.979  1.00  0.00    -0.126 C  
HETATM   42  H   UNL     1      -5.147  16.175  66.867  1.00  0.00     0.000 HD 
BRANCH  33  43
HETATM   43  C   UNL     1     -10.005  19.324  67.197  1.00  0.00    -0.360 C  
HETATM   44  O   UNL     1      -9.539  20.033  66.081  1.00  0.00    -0.442 OA 
HETATM   45  H   UNL     1     -10.210  20.607  65.732  1.00  0.00     0.000 HD 
ENDBRANCH  33  43
ENDBRANCH  30  31
ENDBRANCH  29  30
BRANCH  29  46
HETATM   46  C   UNL     1     -11.711  14.966  69.791  1.00  0.00    -0.305 C  
HETATM   47  O   UNL     1     -12.870  15.535  69.228  1.00  0.00    -0.380 OA 
HETATM   48  H   UNL     1     -13.578  15.560  69.859  1.00  0.00     0.000 HD 
BRANCH  46  49
HETATM   49  C   UNL     1     -11.351  15.601  71.154  1.00  0.00    -0.393 C  
HETATM   50  H   UNL     1     -12.286  16.235  72.750  1.00  0.00     0.000 HD 
HETATM   51  O   UNL     1     -12.507  15.844  71.912  1.00  0.00    -0.425 OA 
ENDBRANCH  46  49
ENDBRANCH  29  46
ENDBRANCH  26  29
ENDBRANCH  23  26
ENDBRANCH  21  23
ENDBRANCH  20  21
ENDBRANCH  19  20
ENDBRANCH  18  19
ENDBRANCH  16  18
ENDBRANCH  13  16
ENDBRANCH  10  13
ENDBRANCH   7  10
ENDBRANCH   4   7
ENDBRANCH   2   4
TORSDOF 17
ENDMDL
MODEL      233
REMARK 921   NORMALIZED FREE ENERGY PREDICTED BY IDOCK:   -4.26 KCAL/MOL
REMARK 922        TOTAL FREE ENERGY PREDICTED BY IDOCK:  -11.93 KCAL/MOL
REMARK 923 INTER-LIGAND FREE ENERGY PREDICTED BY IDOCK:   -8.41 KCAL/MOL
REMARK 924 INTRA-LIGAND FREE ENERGY PREDICTED BY IDOCK:   -3.52 KCAL/MOL
REMARK 927      BINDING AFFINITY PREDICTED BY RF-SCORE:    0.00 PKD
ROOT
HETATM    1  O   UNL     1      -9.100  15.846  66.652  1.00  0.00    -0.215 OA 
HETATM    2  C   UNL     1      -9.633  16.936  65.950  1.00  0.00    -0.138 C  
HETATM    3  H   UNL     1      -8.235  16.068  66.977  1.00  0.00     0.000 HD 
ENDROOT
BRANCH   2   4
HETATM    4  C   UNL     1     -11.034  16.577  65.424  1.00  0.00    -0.131 C  
HETATM    5  O   UNL     1     -11.103  16.871  64.051  1.00  0.00    -1.127 OA 
HETATM    6  H   UNL     1     -11.968  16.649  63.726  1.00  0.00     0.000 HD 
BRANCH   4   7
HETATM    7  C   UNL     1     -11.359  15.077  65.648  1.00  0.00    -0.297 C  
HETATM    8  H   UNL     1     -12.209  13.994  67.022  1.00  0.00     0.000 HD 
HETATM    9  O   UNL     1     -12.010  14.913  66.885  1.00  0.00    -0.279 OA 
BRANCH   7  10
HETATM   10  C   UNL     1     -12.262  14.505  64.523  1.00  0.00    -0.465 C  
HETATM   11  H   UNL     1     -14.003  13.673  64.417  1.00  0.00     0.000 HD 
HETATM   12  O   UNL     1     -13.450  14.024  65.106  1.00  0.00    -0.520 OA 
BRANCH  10  13
HETATM   13  C   UNL     1     -11.595  13.355  63.719  1.00  0.00    -0.313 C  
HETATM   14  H   UNL     1      -9.837  12.538  63.596  1.00  0.00     0.000 HD 
HETATM   15  O   UNL     1     -10.245  13.242  64.088  1.00  0.00    -0.371 OA 
BRANCH  13  16
HETATM   16  C   UNL     1     -12.251  12.012  63.936  1.00  0.00    -0.453 C  
HETATM   17  O   UNL     1     -13.203  11.684  63.246  1.00  0.00    -0.487 OA 
BRANCH  16  18
HETATM   18  O   UNL     1     -11.809  11.168  64.891  1.00  0.00     0.301 OA 
BRANCH  18  19
HETATM   19 CA   UNL     1     -10.254  11.982  66.556  1.00  0.00    -0.196 Ca 
BRANCH  19  20
HETATM   20  O   UNL     1      -8.698  12.795  68.222  1.00  0.00    -0.183 OA 
BRANCH  20  21
HETATM   21  C   UNL     1      -7.649  11.957  68.279  1.00  0.00    -0.116 C  
HETATM   22  O   UNL     1      -6.777  12.189  69.099  1.00  0.00    -0.099 OA 
BRANCH  21  23
HETATM   23  C   UNL     1      -7.448  10.861  67.256  1.00  0.00    -0.104 C  
HETATM   24  H   UNL     1      -8.084  10.485  65.473  1.00  0.00     0.000 HD 
HETATM   25  O   UNL     1      -8.210  11.173  66.115  1.00  0.00    -0.169 OA 
BRANCH  23  26
HETATM   26  C   UNL     1      -7.832   9.433  67.749  1.00  0.00    -0.095 C  
HETATM   27  H   UNL     1      -6.902   7.863  68.405  1.00  0.00     0.000 HD 
HETATM   28  O   UNL     1      -6.667   8.733  68.104  1.00  0.00    -0.063 OA 
BRANCH  26  29
HETATM   29  C   UNL     1      -8.882   9.330  68.910  1.00  0.00    -0.135 C  
BRANCH  29  30
HETATM   30  O   UNL     1      -8.578   8.139  69.622  1.00  0.00    -0.128 OA 
BRANCH  30  31
HETATM   31  C   UNL     1      -9.603   7.168  69.664  1.00  0.00    -0.154 C  
HETATM   32  O   UNL     1      -9.992   6.928  71.006  1.00  0.00    -0.188 OA 
HETATM   33  C   UNL     1     -11.034   5.965  71.062  1.00  0.00    -0.266 C  
HETATM   34  H   UNL     1      -8.258   5.295  67.327  1.00  0.00     0.000 HD 
HETATM   35  C   UNL     1     -10.511   4.585  70.583  1.00  0.00     0.187 C  
HETATM   36  O   UNL     1      -9.438   4.158  71.387  1.00  0.00    -0.138 OA 
HETATM   37  C   UNL     1     -10.042   4.727  69.120  1.00  0.00    -0.125 C  
HETATM   38  O   UNL     1      -8.614   6.088  67.710  1.00  0.00    -0.108 OA 
HETATM   39  H   UNL     1      -9.118   3.313  71.094  1.00  0.00     0.000 HD 
HETATM   40  O   UNL     1      -9.447   3.542  68.649  1.00  0.00    -0.167 OA 
HETATM   41  C   UNL     1      -9.022   5.875  69.039  1.00  0.00    -0.122 C  
HETATM   42  H   UNL     1      -9.158   3.629  67.748  1.00  0.00     0.000 HD 
BRANCH  33  43
HETATM   43  C   UNL     1     -11.558   5.917  72.505  1.00  0.00    -0.277 C  
HETATM   44  O   UNL     1     -11.384   4.645  73.069  1.00  0.00    -0.249 OA 
HETATM   45  H   UNL     1     -11.708   4.615  73.961  1.00  0.00     0.000 HD 
ENDBRANCH  33  43
ENDBRANCH  30  31
ENDBRANCH  29  30
BRANCH  29  46
HETATM   46  C   UNL     1     -10.390   9.391  68.479  1.00  0.00    -0.209 C  
HETATM   47  O   UNL     1     -10.511   9.502  67.080  1.00  0.00    -0.249 OA 
HETATM   48  H   UNL     1     -11.423   9.538  66.819  1.00  0.00     0.000 HD 
BRANCH  46  49
HETATM   49  C   UNL     1     -11.242  10.443  69.225  1.00  0.00    -0.248 C  
HETATM   50  H   UNL     1     -11.822  10.803  71.057  1.00  0.00     0.000 HD 
HETATM   51  O   UNL     1     -11.299  10.156  70.598  1.00  0.00    -0.307 OA 
ENDBRANCH  46  49
ENDBRANCH  29  46
ENDBRANCH  26  29
ENDBRANCH  23  26
ENDBRANCH  21  23
ENDBRANCH  20  21
ENDBRANCH  19  20
ENDBRANCH  18  19
ENDBRANCH  16  18
ENDBRANCH  13  16
ENDBRANCH  10  13
ENDBRANCH   7  10
ENDBRANCH   4   7
ENDBRANCH   2   4
TORSDOF 17
ENDMDL
MODEL      234
REMARK 921   NORMALIZED FREE ENERGY PREDICTED BY IDOCK:   -4.25 KCAL/MOL
REMARK 922        TOTAL FREE ENERGY PREDICTED BY IDOCK:  -11.91 KCAL/MOL
REMARK 923 INTER-LIGAND FREE ENERGY PREDICTED BY IDOCK:  -10.33 KCAL/MOL
REMARK 924 INTRA-LIGAND FREE ENERGY PREDICTED BY IDOCK:   -1.58 KCAL/MOL
REMARK 927      BINDING AFFINITY PREDICTED BY RF-SCORE:    0.00 PKD
ROOT
HETATM    1  O   UNL     1      -9.323   5.435  64.585  1.00  0.00    -0.357 OA 
HETATM    2  C   UNL     1      -9.684   5.581  65.932  1.00  0.00    -0.030 C  
HETATM    3  H   UNL     1      -9.908   4.816  64.163  1.00  0.00     0.000 HD 
ENDROOT
BRANCH   2   4
HETATM    4  C   UNL     1      -8.738   6.583  66.615  1.00  0.00    -0.128 C  
HETATM    5  O   UNL     1      -9.316   7.864  66.582  1.00  0.00    -0.170 OA 
HETATM    6  H   UNL     1      -8.732   8.483  67.004  1.00  0.00     0.000 HD 
BRANCH   4   7
HETATM    7  C   UNL     1      -8.452   6.184  68.087  1.00  0.00    -0.116 C  
HETATM    8  H   UNL     1      -7.068   5.224  69.058  1.00  0.00     0.000 HD 
HETATM    9  O   UNL     1      -7.243   5.468  68.156  1.00  0.00    -0.069 OA 
BRANCH   7  10
HETATM   10  C   UNL     1      -8.358   7.424  69.016  1.00  0.00    -0.126 C  
HETATM   11  H   UNL     1      -7.513   7.845  70.701  1.00  0.00     0.000 HD 
HETATM   12  O   UNL     1      -7.570   7.086  70.132  1.00  0.00    -0.090 OA 
BRANCH  10  13
HETATM   13  C   UNL     1      -9.741   7.931  69.512  1.00  0.00    -0.173 C  
HETATM   14  H   UNL     1     -11.363   7.152  70.244  1.00  0.00     0.000 HD 
HETATM   15  O   UNL     1     -10.517   6.842  69.940  1.00  0.00    -0.196 OA 
BRANCH  13  16
HETATM   16  C   UNL     1      -9.645   8.911  70.657  1.00  0.00    -0.215 C  
HETATM   17  O   UNL     1      -8.785   9.778  70.642  1.00  0.00    -0.164 OA 
BRANCH  16  18
HETATM   18  O   UNL     1     -10.488   8.841  71.707  1.00  0.00    -0.290 OA 
BRANCH  18  19
HETATM   19 CA   UNL     1     -12.191  10.541  71.967  1.00  0.00    -0.350 Ca 
BRANCH  19  20
HETATM   20  O   UNL     1     -13.893  12.240  72.227  1.00  0.00    -0.298 OA 
BRANCH  20  21
HETATM   21  C   UNL     1     -13.392  13.419  71.820  1.00  0.00    -0.394 C  
HETATM   22  O   UNL     1     -13.665  14.412  72.475  1.00  0.00    -0.451 OA 
BRANCH  21  23
HETATM   23  C   UNL     1     -12.660  13.563  70.505  1.00  0.00    -0.241 C  
HETATM   24  H   UNL     1     -11.270  12.604  69.571  1.00  0.00     0.000 HD 
HETATM   25  O   UNL     1     -11.730  12.514  70.397  1.00  0.00    -0.222 OA 
BRANCH  23  26
HETATM   26  C   UNL     1     -11.918  14.922  70.319  1.00  0.00    -0.312 C  
HETATM   27  H   UNL     1     -10.493  15.891  71.208  1.00  0.00     0.000 HD 
HETATM   28  O   UNL     1     -10.946  15.063  71.322  1.00  0.00    -0.222 OA 
BRANCH  26  29
HETATM   29  C   UNL     1     -11.274  15.203  68.918  1.00  0.00    -0.283 C  
BRANCH  29  30
HETATM   30  O   UNL     1     -10.389  14.123  68.658  1.00  0.00    -0.236 OA 
BRANCH  30  31
HETATM   31  C   UNL     1     -10.210  13.788  67.297  1.00  0.00    -0.253 C  
HETATM   32  O   UNL     1     -11.244  14.359  66.514  1.00  0.00    -0.324 OA 
HETATM   33  C   UNL     1     -11.068  14.043  65.141  1.00  0.00    -0.341 C  
HETATM   34  H   UNL     1      -9.291  10.700  67.928  1.00  0.00     0.000 HD 
HETATM   35  C   UNL     1     -11.244  12.518  64.918  1.00  0.00    -0.305 C  
HETATM   36  O   UNL     1     -12.523  12.104  65.330  1.00  0.00    -0.523 OA 
HETATM   37  C   UNL     1     -10.167  11.781  65.741  1.00  0.00    -0.239 C  
HETATM   38  O   UNL     1      -9.257  11.647  67.985  1.00  0.00    -0.165 OA 
HETATM   39  H   UNL     1     -12.631  11.170  65.193  1.00  0.00     0.000 HD 
HETATM   40  O   UNL     1     -10.332  10.385  65.681  1.00  0.00    -0.255 OA 
HETATM   41  C   UNL     1     -10.265  12.242  67.205  1.00  0.00    -0.211 C  
HETATM   42  H   UNL     1      -9.669   9.932  66.187  1.00  0.00     0.000 HD 
BRANCH  33  43
HETATM   43  C   UNL     1     -12.080  14.868  64.331  1.00  0.00    -0.401 C  
HETATM   44  O   UNL     1     -12.459  14.200  63.158  1.00  0.00    -1.126 OA 
HETATM   45  H   UNL     1     -13.085  14.709  62.658  1.00  0.00     0.000 HD 
ENDBRANCH  33  43
ENDBRANCH  30  31
ENDBRANCH  29  30
BRANCH  29  46
HETATM   46  C   UNL     1     -10.568  16.595  68.754  1.00  0.00    -0.340 C  
HETATM   47  O   UNL     1     -10.769  17.400  69.892  1.00  0.00    -0.263 OA 
HETATM   48  H   UNL     1     -10.342  18.243  69.794  1.00  0.00     0.000 HD 
BRANCH  46  49
HETATM   49  C   UNL     1     -10.896  17.345  67.442  1.00  0.00    -0.165 C  
HETATM   50  H   UNL     1      -9.920  18.211  65.986  1.00  0.00     0.000 HD 
HETATM   51  O   UNL     1      -9.719  17.750  66.792  1.00  0.00    -0.283 OA 
ENDBRANCH  46  49
ENDBRANCH  29  46
ENDBRANCH  26  29
ENDBRANCH  23  26
ENDBRANCH  21  23
ENDBRANCH  20  21
ENDBRANCH  19  20
ENDBRANCH  18  19
ENDBRANCH  16  18
ENDBRANCH  13  16
ENDBRANCH  10  13
ENDBRANCH   7  10
ENDBRANCH   4   7
ENDBRANCH   2   4
TORSDOF 17
ENDMDL
MODEL      235
REMARK 921   NORMALIZED FREE ENERGY PREDICTED BY IDOCK:   -4.25 KCAL/MOL
REMARK 922        TOTAL FREE ENERGY PREDICTED BY IDOCK:  -11.91 KCAL/MOL
REMARK 923 INTER-LIGAND FREE ENERGY PREDICTED BY IDOCK:  -10.78 KCAL/MOL
REMARK 924 INTRA-LIGAND FREE ENERGY PREDICTED BY IDOCK:   -1.13 KCAL/MOL
REMARK 927      BINDING AFFINITY PREDICTED BY RF-SCORE:    0.00 PKD
ROOT
HETATM    1  O   UNL     1      -7.563  15.304  66.517  1.00  0.00    -0.234 OA 
HETATM    2  C   UNL     1      -8.612  15.697  67.359  1.00  0.00    -0.175 C  
HETATM    3  H   UNL     1      -7.772  14.470  66.114  1.00  0.00     0.000 HD 
ENDROOT
BRANCH   2   4
HETATM    4  C   UNL     1      -8.274  17.048  68.012  1.00  0.00    -0.206 C  
HETATM    5  O   UNL     1      -7.440  16.832  69.123  1.00  0.00    -0.239 OA 
HETATM    6  H   UNL     1      -7.231  17.666  69.526  1.00  0.00     0.000 HD 
BRANCH   4   7
HETATM    7  C   UNL     1      -7.566  18.002  67.013  1.00  0.00    -0.217 C  
HETATM    8  H   UNL     1      -7.769  18.518  65.149  1.00  0.00     0.000 HD 
HETATM    9  O   UNL     1      -8.203  17.934  65.761  1.00  0.00    -0.530 OA 
BRANCH   7  10
HETATM   10  C   UNL     1      -7.580  19.473  67.507  1.00  0.00    -0.255 C  
HETATM   11  H   UNL     1      -7.447  20.375  69.210  1.00  0.00     0.000 HD 
HETATM   12  O   UNL     1      -7.439  19.474  68.907  1.00  0.00    -0.353 OA 
BRANCH  10  13
HETATM   13  C   UNL     1      -8.878  20.240  67.132  1.00  0.00    -0.346 C  
HETATM   14  H   UNL     1      -9.885  20.627  65.517  1.00  0.00     0.000 HD 
HETATM   15  O   UNL     1      -9.091  20.158  65.746  1.00  0.00    -0.215 OA 
BRANCH  13  16
HETATM   16  C   UNL     1     -10.111  19.707  67.823  1.00  0.00    -0.413 C  
HETATM   17  O   UNL     1     -10.276  19.919  69.015  1.00  0.00    -0.432 OA 
BRANCH  16  18
HETATM   18  O   UNL     1     -11.031  18.988  67.150  1.00  0.00    -0.433 OA 
BRANCH  18  19
HETATM   19 CA   UNL     1     -11.410  16.680  67.773  1.00  0.00    -0.318 Ca 
BRANCH  19  20
HETATM   20  O   UNL     1     -11.791  14.373  68.395  1.00  0.00    -0.316 OA 
BRANCH  20  21
HETATM   21  C   UNL     1     -11.782  13.619  67.283  1.00  0.00    -0.380 C  
HETATM   22  O   UNL     1     -12.042  14.162  66.223  1.00  0.00    -0.412 OA 
BRANCH  21  23
HETATM   23  C   UNL     1     -11.633  12.115  67.341  1.00  0.00    -0.340 C  
HETATM   24  H   UNL     1     -12.102  10.714  68.583  1.00  0.00     0.000 HD 
HETATM   25  O   UNL     1     -12.196  11.659  68.547  1.00  0.00    -0.485 OA 
BRANCH  23  26
HETATM   26  C   UNL     1     -10.164  11.603  67.240  1.00  0.00    -0.201 C  
HETATM   27  H   UNL     1      -8.566  11.658  68.338  1.00  0.00     0.000 HD 
HETATM   28  O   UNL     1      -9.462  11.971  68.400  1.00  0.00    -0.201 OA 
BRANCH  26  29
HETATM   29  C   UNL     1      -9.952  10.075  66.959  1.00  0.00    -0.205 C  
BRANCH  29  30
HETATM   30  O   UNL     1      -9.581   9.487  68.197  1.00  0.00    -0.137 OA 
BRANCH  30  31
HETATM   31  C   UNL     1     -10.558   8.669  68.808  1.00  0.00    -0.140 C  
HETATM   32  O   UNL     1     -10.870   9.164  70.099  1.00  0.00    -0.228 OA 
HETATM   33  C   UNL     1     -11.863   8.360  70.718  1.00  0.00    -0.163 C  
HETATM   34  H   UNL     1      -9.244   5.866  67.714  1.00  0.00     0.000 HD 
HETATM   35  C   UNL     1     -11.302   6.942  70.999  1.00  0.00    -0.299 C  
HETATM   36  O   UNL     1     -10.173   7.015  71.836  1.00  0.00    -0.188 OA 
HETATM   37  C   UNL     1     -10.911   6.300  69.652  1.00  0.00    -0.374 C  
HETATM   38  O   UNL     1      -9.617   6.737  67.648  1.00  0.00    -0.125 OA 
HETATM   39  H   UNL     1      -9.830   6.146  72.008  1.00  0.00     0.000 HD 
HETATM   40  O   UNL     1     -10.287   5.053  69.833  1.00  0.00    -0.279 OA 
HETATM   41  C   UNL     1      -9.950   7.248  68.916  1.00  0.00    -0.166 C  
HETATM   42  H   UNL     1     -10.046   4.658  69.003  1.00  0.00     0.000 HD 
BRANCH  33  43
HETATM   43  C   UNL     1     -12.314   9.071  72.004  1.00  0.00    -0.384 C  
HETATM   44  O   UNL     1     -12.781   8.153  72.956  1.00  0.00    -0.601 OA 
HETATM   45  H   UNL     1     -13.059   8.592  73.751  1.00  0.00     0.000 HD 
ENDBRANCH  33  43
ENDBRANCH  30  31
ENDBRANCH  29  30
BRANCH  29  46
HETATM   46  C   UNL     1      -8.941   9.722  65.811  1.00  0.00    -0.160 C  
HETATM   47  O   UNL     1      -9.327   8.543  65.144  1.00  0.00    -0.421 OA 
HETATM   48  H   UNL     1      -8.715   8.329  64.450  1.00  0.00     0.000 HD 
BRANCH  46  49
HETATM   49  C   UNL     1      -7.454   9.696  66.234  1.00  0.00    -0.098 C  
HETATM   50  H   UNL     1      -6.143  10.929  66.995  1.00  0.00     0.000 HD 
HETATM   51  O   UNL     1      -7.057  10.945  66.736  1.00  0.00    -0.113 OA 
ENDBRANCH  46  49
ENDBRANCH  29  46
ENDBRANCH  26  29
ENDBRANCH  23  26
ENDBRANCH  21  23
ENDBRANCH  20  21
ENDBRANCH  19  20
ENDBRANCH  18  19
ENDBRANCH  16  18
ENDBRANCH  13  16
ENDBRANCH  10  13
ENDBRANCH   7  10
ENDBRANCH   4   7
ENDBRANCH   2   4
TORSDOF 17
ENDMDL
MODEL      236
REMARK 921   NORMALIZED FREE ENERGY PREDICTED BY IDOCK:   -4.23 KCAL/MOL
REMARK 922        TOTAL FREE ENERGY PREDICTED BY IDOCK:  -11.88 KCAL/MOL
REMARK 923 INTER-LIGAND FREE ENERGY PREDICTED BY IDOCK:   -8.18 KCAL/MOL
REMARK 924 INTRA-LIGAND FREE ENERGY PREDICTED BY IDOCK:   -3.69 KCAL/MOL
REMARK 927      BINDING AFFINITY PREDICTED BY RF-SCORE:    0.00 PKD
ROOT
HETATM    1  O   UNL     1     -11.598   6.731  71.602  1.00  0.00    -0.264 OA 
HETATM    2  C   UNL     1     -10.586   5.762  71.563  1.00  0.00    -0.246 C  
HETATM    3  H   UNL     1     -12.253   6.536  70.942  1.00  0.00     0.000 HD 
ENDROOT
BRANCH   2   4
HETATM    4  C   UNL     1      -9.526   6.078  72.632  1.00  0.00    -0.146 C  
HETATM    5  O   UNL     1      -9.869   5.431  73.832  1.00  0.00    -0.153 OA 
HETATM    6  H   UNL     1      -9.214   5.626  74.492  1.00  0.00     0.000 HD 
BRANCH   4   7
HETATM    7  C   UNL     1      -8.112   5.621  72.185  1.00  0.00    -0.108 C  
HETATM    8  H   UNL     1      -7.153   3.940  71.994  1.00  0.00     0.000 HD 
HETATM    9  O   UNL     1      -8.019   4.220  72.268  1.00  0.00    -0.087 OA 
BRANCH   7  10
HETATM   10  C   UNL     1      -7.792   6.063  70.732  1.00  0.00    -0.103 C  
HETATM   11  H   UNL     1      -7.079   5.228  69.143  1.00  0.00     0.000 HD 
HETATM   12  O   UNL     1      -7.275   4.957  70.033  1.00  0.00    -0.052 OA 
BRANCH  10  13
HETATM   13  C   UNL     1      -6.771   7.231  70.652  1.00  0.00    -0.048 C  
HETATM   14  H   UNL     1      -5.434   7.867  69.394  1.00  0.00     0.000 HD 
HETATM   15  O   UNL     1      -6.059   7.153  69.444  1.00  0.00    -0.028 OA 
BRANCH  13  16
HETATM   16  C   UNL     1      -7.413   8.596  70.725  1.00  0.00    -0.080 C  
HETATM   17  O   UNL     1      -7.747   9.051  71.808  1.00  0.00    -0.327 OA 
BRANCH  16  18
HETATM   18  O   UNL     1      -7.636   9.322  69.611  1.00  0.00    -0.073 OA 
BRANCH  18  19
HETATM   19 CA   UNL     1      -9.720  10.532  69.390  1.00  0.00    -0.163 Ca 
BRANCH  19  20
HETATM   20  O   UNL     1     -11.804  11.742  69.170  1.00  0.00    -0.299 OA 
BRANCH  20  21
HETATM   21  C   UNL     1     -11.530  13.050  69.024  1.00  0.00    -0.303 C  
HETATM   22  O   UNL     1     -12.400  13.852  69.321  1.00  0.00    -0.323 OA 
BRANCH  21  23
HETATM   23  C   UNL     1     -10.263  13.529  68.351  1.00  0.00    -0.245 C  
HETATM   24  H   UNL     1      -9.019  14.984  68.596  1.00  0.00     0.000 HD 
HETATM   25  O   UNL     1      -9.814  14.683  69.018  1.00  0.00    -0.221 OA 
BRANCH  23  26
HETATM   26  C   UNL     1     -10.414  13.847  66.832  1.00  0.00    -0.276 C  
HETATM   27  H   UNL     1      -9.461  14.888  65.502  1.00  0.00     0.000 HD 
HETATM   28  O   UNL     1      -9.369  14.694  66.428  1.00  0.00    -0.279 OA 
BRANCH  26  29
HETATM   29  C   UNL     1     -10.514  12.629  65.849  1.00  0.00    -0.274 C  
BRANCH  29  30
HETATM   30  O   UNL     1      -9.392  11.802  66.119  1.00  0.00    -0.221 OA 
BRANCH  30  31
HETATM   31  C   UNL     1      -9.545  10.434  65.798  1.00  0.00    -0.216 C  
HETATM   32  O   UNL     1      -9.810   9.684  66.972  1.00  0.00    -0.174 OA 
HETATM   33  C   UNL     1      -9.981   8.310  66.663  1.00  0.00    -0.278 C  
HETATM   34  H   UNL     1      -7.095  10.423  63.613  1.00  0.00     0.000 HD 
HETATM   35  C   UNL     1      -8.649   7.710  66.144  1.00  0.00    -0.148 C  
HETATM   36  O   UNL     1      -7.636   7.847  67.111  1.00  0.00    -0.096 OA 
HETATM   37  C   UNL     1      -8.247   8.463  64.859  1.00  0.00    -0.153 C  
HETATM   38  O   UNL     1      -7.913  10.708  64.002  1.00  0.00    -0.051 OA 
HETATM   39  H   UNL     1      -6.820   7.479  66.793  1.00  0.00     0.000 HD 
HETATM   40  O   UNL     1      -6.986   8.053  64.389  1.00  0.00    -0.069 OA 
HETATM   41  C   UNL     1      -8.209   9.970  65.163  1.00  0.00    -0.146 C  
HETATM   42  H   UNL     1      -6.739   8.516  63.598  1.00  0.00     0.000 HD 
BRANCH  33  43
HETATM   43  C   UNL     1     -10.484   7.598  67.928  1.00  0.00    -0.207 C  
HETATM   44  O   UNL     1     -10.282   8.387  69.071  1.00  0.00    -0.199 OA 
HETATM   45  H   UNL     1     -10.593   7.947  69.852  1.00  0.00     0.000 HD 
ENDBRANCH  33  43
ENDBRANCH  30  31
ENDBRANCH  29  30
BRANCH  29  46
HETATM   46  C   UNL     1     -10.630  12.986  64.325  1.00  0.00    -0.412 C  
HETATM   47  O   UNL     1     -11.060  14.316  64.149  1.00  0.00    -0.594 OA 
HETATM   48  H   UNL     1     -11.130  14.532  63.227  1.00  0.00     0.000 HD 
BRANCH  46  49
HETATM   49  C   UNL     1     -11.455  11.988  63.480  1.00  0.00    -0.446 C  
HETATM   50  H   UNL     1     -13.245  11.883  62.701  1.00  0.00     0.000 HD 
HETATM   51  O   UNL     1     -12.737  12.496  63.219  1.00  0.00    -0.678 OA 
ENDBRANCH  46  49
ENDBRANCH  29  46
ENDBRANCH  26  29
ENDBRANCH  23  26
ENDBRANCH  21  23
ENDBRANCH  20  21
ENDBRANCH  19  20
ENDBRANCH  18  19
ENDBRANCH  16  18
ENDBRANCH  13  16
ENDBRANCH  10  13
ENDBRANCH   7  10
ENDBRANCH   4   7
ENDBRANCH   2   4
TORSDOF 17
ENDMDL
MODEL      237
REMARK 921   NORMALIZED FREE ENERGY PREDICTED BY IDOCK:   -4.23 KCAL/MOL
REMARK 922        TOTAL FREE ENERGY PREDICTED BY IDOCK:  -11.87 KCAL/MOL
REMARK 923 INTER-LIGAND FREE ENERGY PREDICTED BY IDOCK:  -10.59 KCAL/MOL
REMARK 924 INTRA-LIGAND FREE ENERGY PREDICTED BY IDOCK:   -1.28 KCAL/MOL
REMARK 927      BINDING AFFINITY PREDICTED BY RF-SCORE:    0.00 PKD
ROOT
HETATM    1  O   UNL     1      -9.050   6.496  68.148  1.00  0.00    -0.117 OA 
HETATM    2  C   UNL     1     -10.162   6.093  68.900  1.00  0.00    -0.188 C  
HETATM    3  H   UNL     1      -9.321   6.694  67.259  1.00  0.00     0.000 HD 
ENDROOT
BRANCH   2   4
HETATM    4  C   UNL     1      -9.724   5.773  70.340  1.00  0.00    -0.176 C  
HETATM    5  O   UNL     1      -8.823   4.694  70.322  1.00  0.00    -0.080 OA 
HETATM    6  H   UNL     1      -8.553   4.497  71.211  1.00  0.00     0.000 HD 
BRANCH   4   7
HETATM    7  C   UNL     1      -9.053   6.997  71.016  1.00  0.00    -0.151 C  
HETATM    8  H   UNL     1      -8.954   8.915  70.713  1.00  0.00     0.000 HD 
HETATM    9  O   UNL     1      -9.365   8.166  70.298  1.00  0.00    -0.154 OA 
BRANCH   7  10
HETATM   10  C   UNL     1      -9.513   7.170  72.488  1.00  0.00    -0.142 C  
HETATM   11  H   UNL     1      -9.785   6.014  74.012  1.00  0.00     0.000 HD 
HETATM   12  O   UNL     1      -9.503   5.908  73.110  1.00  0.00    -0.143 OA 
BRANCH  10  13
HETATM   13  C   UNL     1     -10.932   7.787  72.625  1.00  0.00    -0.364 C  
HETATM   14  H   UNL     1     -11.880   9.339  71.943  1.00  0.00     0.000 HD 
HETATM   15  O   UNL     1     -11.012   8.962  71.859  1.00  0.00    -0.336 OA 
BRANCH  13  16
HETATM   16  C   UNL     1     -12.035   6.861  72.169  1.00  0.00    -0.267 C  
HETATM   17  O   UNL     1     -12.043   5.699  72.545  1.00  0.00    -0.221 OA 
BRANCH  16  18
HETATM   18  O   UNL     1     -13.010   7.292  71.344  1.00  0.00    -0.371 OA 
BRANCH  18  19
HETATM   19 CA   UNL     1     -12.520   9.057  69.762  1.00  0.00    -0.430 Ca 
BRANCH  19  20
HETATM   20  O   UNL     1     -12.031  10.821  68.180  1.00  0.00    -0.527 OA 
BRANCH  20  21
HETATM   21  C   UNL     1     -10.772  11.246  68.383  1.00  0.00    -0.203 C  
HETATM   22  O   UNL     1     -10.252  10.999  69.458  1.00  0.00    -0.139 OA 
BRANCH  21  23
HETATM   23  C   UNL     1     -10.067  12.150  67.397  1.00  0.00    -0.199 C  
HETATM   24  H   UNL     1      -8.329  12.215  66.560  1.00  0.00     0.000 HD 
HETATM   25  O   UNL     1      -8.771  11.647  67.179  1.00  0.00    -0.153 OA 
BRANCH  23  26
HETATM   26  C   UNL     1      -9.965  13.641  67.839  1.00  0.00    -0.244 C  
HETATM   27  H   UNL     1      -8.570  14.978  68.003  1.00  0.00     0.000 HD 
HETATM   28  O   UNL     1      -8.632  14.069  67.733  1.00  0.00    -0.160 OA 
BRANCH  26  29
HETATM   29  C   UNL     1     -10.907  14.670  67.123  1.00  0.00    -0.303 C  
BRANCH  29  30
HETATM   30  O   UNL     1     -11.961  14.951  68.033  1.00  0.00    -0.306 OA 
BRANCH  30  31
HETATM   31  C   UNL     1     -11.686  14.687  69.394  1.00  0.00    -0.316 C  
HETATM   32  O   UNL     1     -12.645  13.784  69.919  1.00  0.00    -0.253 OA 
HETATM   33  C   UNL     1     -12.372  13.498  71.282  1.00  0.00    -0.235 C  
HETATM   34  H   UNL     1     -10.886  17.794  70.086  1.00  0.00     0.000 HD 
HETATM   35  C   UNL     1     -12.564  14.773  72.143  1.00  0.00    -0.334 C  
HETATM   36  O   UNL     1     -13.880  15.256  72.024  1.00  0.00    -0.427 OA 
HETATM   37  C   UNL     1     -11.570  15.845  71.651  1.00  0.00    -0.461 C  
HETATM   38  O   UNL     1     -10.835  16.964  69.629  1.00  0.00    -0.302 OA 
HETATM   39  H   UNL     1     -13.998  16.037  72.552  1.00  0.00     0.000 HD 
HETATM   40  O   UNL     1     -11.761  17.072  72.310  1.00  0.00    -0.416 OA 
HETATM   41  C   UNL     1     -11.769  16.043  70.139  1.00  0.00    -0.281 C  
HETATM   42  H   UNL     1     -11.148  17.732  72.007  1.00  0.00     0.000 HD 
BRANCH  33  43
HETATM   43  C   UNL     1     -13.301  12.356  71.721  1.00  0.00    -0.270 C  
HETATM   44  O   UNL     1     -12.965  11.152  71.085  1.00  0.00    -0.361 OA 
HETATM   45  H   UNL     1     -13.539  10.446  71.357  1.00  0.00     0.000 HD 
ENDBRANCH  33  43
ENDBRANCH  30  31
ENDBRANCH  29  30
BRANCH  29  46
HETATM   46  C   UNL     1     -11.444  14.243  65.712  1.00  0.00    -0.335 C  
HETATM   47  O   UNL     1     -12.482  13.298  65.832  1.00  0.00    -0.426 OA 
HETATM   48  H   UNL     1     -12.807  13.039  64.978  1.00  0.00     0.000 HD 
BRANCH  46  49
HETATM   49  C   UNL     1     -10.358  13.795  64.707  1.00  0.00    -0.398 C  
HETATM   50  H   UNL     1     -10.224  12.633  63.140  1.00  0.00     0.000 HD 
HETATM   51  O   UNL     1     -10.891  12.908  63.758  1.00  0.00    -0.401 OA 
ENDBRANCH  46  49
ENDBRANCH  29  46
ENDBRANCH  26  29
ENDBRANCH  23  26
ENDBRANCH  21  23
ENDBRANCH  20  21
ENDBRANCH  19  20
ENDBRANCH  18  19
ENDBRANCH  16  18
ENDBRANCH  13  16
ENDBRANCH  10  13
ENDBRANCH   7  10
ENDBRANCH   4   7
ENDBRANCH   2   4
TORSDOF 17
ENDMDL
MODEL      238
REMARK 921   NORMALIZED FREE ENERGY PREDICTED BY IDOCK:   -4.22 KCAL/MOL
REMARK 922        TOTAL FREE ENERGY PREDICTED BY IDOCK:  -11.86 KCAL/MOL
REMARK 923 INTER-LIGAND FREE ENERGY PREDICTED BY IDOCK:   -8.45 KCAL/MOL
REMARK 924 INTRA-LIGAND FREE ENERGY PREDICTED BY IDOCK:   -3.41 KCAL/MOL
REMARK 927      BINDING AFFINITY PREDICTED BY RF-SCORE:    0.00 PKD
ROOT
HETATM    1  O   UNL     1      -9.572  17.106  68.894  1.00  0.00    -0.268 OA 
HETATM    2  C   UNL     1      -9.136  16.993  67.566  1.00  0.00    -0.223 C  
HETATM    3  H   UNL     1      -8.862  17.426  69.438  1.00  0.00     0.000 HD 
ENDROOT
BRANCH   2   4
HETATM    4  C   UNL     1     -10.285  16.474  66.686  1.00  0.00    -0.300 C  
HETATM    5  O   UNL     1     -10.056  16.854  65.352  1.00  0.00    -0.586 OA 
HETATM    6  H   UNL     1     -10.766  16.533  64.808  1.00  0.00     0.000 HD 
BRANCH   4   7
HETATM    7  C   UNL     1     -10.415  14.930  66.769  1.00  0.00    -0.284 C  
HETATM    8  H   UNL     1     -10.373  13.571  68.158  1.00  0.00     0.000 HD 
HETATM    9  O   UNL     1     -10.294  14.516  68.108  1.00  0.00    -0.226 OA 
BRANCH   7  10
HETATM   10  C   UNL     1     -11.773  14.431  66.206  1.00  0.00    -0.385 C  
HETATM   11  H   UNL     1     -13.114  13.145  66.733  1.00  0.00     0.000 HD 
HETATM   12  O   UNL     1     -12.283  13.451  67.078  1.00  0.00    -0.353 OA 
BRANCH  10  13
HETATM   13  C   UNL     1     -11.667  13.829  64.778  1.00  0.00    -0.381 C  
HETATM   14  H   UNL     1     -10.270  13.518  63.465  1.00  0.00     0.000 HD 
HETATM   15  O   UNL     1     -10.334  13.887  64.339  1.00  0.00    -0.384 OA 
BRANCH  13  16
HETATM   16  C   UNL     1     -12.119  12.390  64.699  1.00  0.00    -0.415 C  
HETATM   17  O   UNL     1     -13.181  12.118  64.159  1.00  0.00    -0.740 OA 
BRANCH  16  18
HETATM   18  O   UNL     1     -11.376  11.396  65.225  1.00  0.00    -0.148 OA 
BRANCH  18  19
HETATM   19 CA   UNL     1      -9.280  11.938  66.307  1.00  0.00    -0.181 Ca 
BRANCH  19  20
HETATM   20  O   UNL     1      -7.184  12.479  67.388  1.00  0.00    -0.138 OA 
BRANCH  20  21
HETATM   21  C   UNL     1      -6.763  11.403  68.076  1.00  0.00    -0.059 C  
HETATM   22  O   UNL     1      -5.944  10.671  67.546  1.00  0.00    -0.047 OA 
BRANCH  21  23
HETATM   23  C   UNL     1      -7.397  10.998  69.388  1.00  0.00    -0.092 C  
HETATM   24  H   UNL     1      -6.854  10.939  71.239  1.00  0.00     0.000 HD 
HETATM   25  O   UNL     1      -6.456  11.194  70.415  1.00  0.00    -0.269 OA 
BRANCH  23  26
HETATM   26  C   UNL     1      -7.905   9.525  69.437  1.00  0.00    -0.097 C  
HETATM   27  H   UNL     1      -7.878   8.060  70.707  1.00  0.00     0.000 HD 
HETATM   28  O   UNL     1      -7.568   8.958  70.678  1.00  0.00    -0.074 OA 
BRANCH  26  29
HETATM   29  C   UNL     1      -9.424   9.278  69.140  1.00  0.00    -0.157 C  
BRANCH  29  30
HETATM   30  O   UNL     1      -9.639   9.671  67.793  1.00  0.00    -0.137 OA 
BRANCH  30  31
HETATM   31  C   UNL     1      -9.662   8.625  66.843  1.00  0.00    -0.214 C  
HETATM   32  O   UNL     1      -9.627   7.369  67.500  1.00  0.00    -0.134 OA 
HETATM   33  C   UNL     1      -9.665   6.308  66.557  1.00  0.00    -0.137 C  
HETATM   34  H   UNL     1      -7.631  10.146  64.760  1.00  0.00     0.000 HD 
HETATM   35  C   UNL     1      -8.371   6.306  65.704  1.00  0.00    -0.147 C  
HETATM   36  O   UNL     1      -7.238   6.159  66.525  1.00  0.00    -0.070 OA 
HETATM   37  C   UNL     1      -8.291   7.646  64.942  1.00  0.00    -0.046 C  
HETATM   38  O   UNL     1      -8.403  10.042  65.303  1.00  0.00    -0.140 OA 
HETATM   39  H   UNL     1      -6.445   6.158  66.002  1.00  0.00     0.000 HD 
HETATM   40  O   UNL     1      -7.083   7.768  64.231  1.00  0.00    -0.068 OA 
HETATM   41  C   UNL     1      -8.402   8.796  65.957  1.00  0.00    -0.126 C  
HETATM   42  H   UNL     1      -7.035   8.593  63.762  1.00  0.00     0.000 HD 
BRANCH  33  43
HETATM   43  C   UNL     1      -9.852   4.994  67.331  1.00  0.00    -0.176 C  
HETATM   44  O   UNL     1      -8.969   4.912  68.417  1.00  0.00    -0.104 OA 
HETATM   45  H   UNL     1      -9.084   4.101  68.896  1.00  0.00     0.000 HD 
ENDBRANCH  33  43
ENDBRANCH  30  31
ENDBRANCH  29  30
BRANCH  29  46
HETATM   46  C   UNL     1     -10.437   9.964  70.124  1.00  0.00    -0.285 C  
HETATM   47  O   UNL     1     -10.791   9.094  71.173  1.00  0.00    -0.257 OA 
HETATM   48  H   UNL     1     -11.403   9.509  71.768  1.00  0.00     0.000 HD 
BRANCH  46  49
HETATM   49  C   UNL     1     -11.674  10.602  69.450  1.00  0.00    -0.273 C  
HETATM   50  H   UNL     1     -13.448  11.230  69.977  1.00  0.00     0.000 HD 
HETATM   51  O   UNL     1     -12.688  10.838  70.391  1.00  0.00    -0.327 OA 
ENDBRANCH  46  49
ENDBRANCH  29  46
ENDBRANCH  26  29
ENDBRANCH  23  26
ENDBRANCH  21  23
ENDBRANCH  20  21
ENDBRANCH  19  20
ENDBRANCH  18  19
ENDBRANCH  16  18
ENDBRANCH  13  16
ENDBRANCH  10  13
ENDBRANCH   7  10
ENDBRANCH   4   7
ENDBRANCH   2   4
TORSDOF 17
ENDMDL
MODEL      239
REMARK 921   NORMALIZED FREE ENERGY PREDICTED BY IDOCK:   -4.22 KCAL/MOL
REMARK 922        TOTAL FREE ENERGY PREDICTED BY IDOCK:  -11.86 KCAL/MOL
REMARK 923 INTER-LIGAND FREE ENERGY PREDICTED BY IDOCK:  -10.12 KCAL/MOL
REMARK 924 INTRA-LIGAND FREE ENERGY PREDICTED BY IDOCK:   -1.74 KCAL/MOL
REMARK 927      BINDING AFFINITY PREDICTED BY RF-SCORE:    0.00 PKD
ROOT
HETATM    1  O   UNL     1      -9.791  15.161  67.181  1.00  0.00    -0.225 OA 
HETATM    2  C   UNL     1     -10.763  16.109  67.532  1.00  0.00    -0.304 C  
HETATM    3  H   UNL     1      -9.075  15.590  66.727  1.00  0.00     0.000 HD 
ENDROOT
BRANCH   2   4
HETATM    4  C   UNL     1     -11.921  15.414  68.268  1.00  0.00    -0.086 C  
HETATM    5  O   UNL     1     -12.301  14.264  67.555  1.00  0.00    -0.600 OA 
HETATM    6  H   UNL     1     -13.016  13.835  68.010  1.00  0.00     0.000 HD 
BRANCH   4   7
HETATM    7  C   UNL     1     -11.520  15.016  69.714  1.00  0.00    -0.295 C  
HETATM    8  H   UNL     1     -10.404  15.740  71.132  1.00  0.00     0.000 HD 
HETATM    9  O   UNL     1     -10.649  15.984  70.247  1.00  0.00    -0.286 OA 
BRANCH   7  10
HETATM   10  C   UNL     1     -12.757  14.885  70.642  1.00  0.00    -0.367 C  
HETATM   11  H   UNL     1     -13.805  16.071  71.748  1.00  0.00     0.000 HD 
HETATM   12  O   UNL     1     -13.048  16.152  71.179  1.00  0.00    -0.207 OA 
BRANCH  10  13
HETATM   13  C   UNL     1     -12.550  13.880  71.809  1.00  0.00    -0.254 C  
HETATM   14  H   UNL     1     -13.312  13.566  73.568  1.00  0.00     0.000 HD 
HETATM   15  O   UNL     1     -13.439  14.180  72.854  1.00  0.00    -0.628 OA 
BRANCH  13  16
HETATM   16  C   UNL     1     -12.773  12.441  71.409  1.00  0.00    -0.243 C  
HETATM   17  O   UNL     1     -13.285  11.665  72.201  1.00  0.00    -0.504 OA 
BRANCH  16  18
HETATM   18  O   UNL     1     -12.405  11.991  70.193  1.00  0.00    -0.240 OA 
BRANCH  18  19
HETATM   19 CA   UNL     1     -10.137  11.214  69.859  1.00  0.00    -0.351 Ca 
BRANCH  19  20
HETATM   20  O   UNL     1      -7.870  10.437  69.527  1.00  0.00    -0.151 OA 
BRANCH  20  21
HETATM   21  C   UNL     1      -7.239  11.288  68.699  1.00  0.00    -0.098 C  
HETATM   22  O   UNL     1      -6.034  11.422  68.829  1.00  0.00    -0.043 OA 
BRANCH  21  23
HETATM   23  C   UNL     1      -7.999  12.188  67.751  1.00  0.00    -0.151 C  
HETATM   24  H   UNL     1      -9.710  13.081  67.746  1.00  0.00     0.000 HD 
HETATM   25  O   UNL     1      -9.233  12.515  68.342  1.00  0.00    -0.196 OA 
BRANCH  23  26
HETATM   26  C   UNL     1      -8.257  11.577  66.340  1.00  0.00    -0.092 C  
HETATM   27  H   UNL     1      -7.412  10.264  65.190  1.00  0.00     0.000 HD 
HETATM   28  O   UNL     1      -7.255  10.636  66.050  1.00  0.00    -0.132 OA 
BRANCH  26  29
HETATM   29  C   UNL     1      -9.666  10.943  66.077  1.00  0.00    -0.224 C  
BRANCH  29  30
HETATM   30  O   UNL     1      -9.434   9.716  65.400  1.00  0.00    -0.242 OA 
BRANCH  30  31
HETATM   31  C   UNL     1      -9.148   8.603  66.223  1.00  0.00    -0.186 C  
HETATM   32  O   UNL     1      -8.924   7.452  65.427  1.00  0.00     0.014 OA 
HETATM   33  C   UNL     1      -8.620   6.330  66.241  1.00  0.00    -0.138 C  
HETATM   34  H   UNL     1     -11.398   9.389  68.481  1.00  0.00     0.000 HD 
HETATM   35  C   UNL     1      -9.854   5.943  67.097  1.00  0.00    -0.143 C  
HETATM   36  O   UNL     1     -10.951   5.636  66.271  1.00  0.00    -0.682 OA 
HETATM   37  C   UNL     1     -10.205   7.137  68.008  1.00  0.00    -0.185 C  
HETATM   38  O   UNL     1     -10.641   9.522  67.924  1.00  0.00    -0.231 OA 
HETATM   39  H   UNL     1     -11.706   5.399  66.796  1.00  0.00     0.000 HD 
HETATM   40  O   UNL     1     -11.385   6.906  68.736  1.00  0.00    -0.514 OA 
HETATM   41  C   UNL     1     -10.385   8.388  67.131  1.00  0.00    -0.311 C  
HETATM   42  H   UNL     1     -11.601   7.641  69.297  1.00  0.00     0.000 HD 
BRANCH  33  43
HETATM   43  C   UNL     1      -8.171   5.185  65.319  1.00  0.00    -0.126 C  
HETATM   44  O   UNL     1      -7.552   4.158  66.047  1.00  0.00    -0.087 OA 
HETATM   45  H   UNL     1      -7.276   3.450  65.478  1.00  0.00     0.000 HD 
ENDBRANCH  33  43
ENDBRANCH  30  31
ENDBRANCH  29  30
BRANCH  29  46
HETATM   46  C   UNL     1     -10.696  11.851  65.317  1.00  0.00    -0.283 C  
HETATM   47  O   UNL     1     -11.923  11.908  66.007  1.00  0.00    -0.511 OA 
HETATM   48  H   UNL     1     -12.547  12.457  65.547  1.00  0.00     0.000 HD 
BRANCH  46  49
HETATM   49  C   UNL     1     -10.882  11.516  63.819  1.00  0.00    -0.416 C  
HETATM   50  H   UNL     1     -11.472  12.428  62.193  1.00  0.00     0.000 HD 
HETATM   51  O   UNL     1     -11.357  12.634  63.114  1.00  0.00    -0.397 OA 
ENDBRANCH  46  49
ENDBRANCH  29  46
ENDBRANCH  26  29
ENDBRANCH  23  26
ENDBRANCH  21  23
ENDBRANCH  20  21
ENDBRANCH  19  20
ENDBRANCH  18  19
ENDBRANCH  16  18
ENDBRANCH  13  16
ENDBRANCH  10  13
ENDBRANCH   7  10
ENDBRANCH   4   7
ENDBRANCH   2   4
TORSDOF 17
ENDMDL
MODEL      240
REMARK 921   NORMALIZED FREE ENERGY PREDICTED BY IDOCK:   -4.22 KCAL/MOL
REMARK 922        TOTAL FREE ENERGY PREDICTED BY IDOCK:  -11.85 KCAL/MOL
REMARK 923 INTER-LIGAND FREE ENERGY PREDICTED BY IDOCK:  -10.41 KCAL/MOL
REMARK 924 INTRA-LIGAND FREE ENERGY PREDICTED BY IDOCK:   -1.44 KCAL/MOL
REMARK 927      BINDING AFFINITY PREDICTED BY RF-SCORE:    0.00 PKD
ROOT
HETATM    1  O   UNL     1     -13.367   7.375  70.895  1.00  0.00    -0.609 OA 
HETATM    2  C   UNL     1     -12.294   6.625  71.396  1.00  0.00    -0.294 C  
HETATM    3  H   UNL     1     -14.183   6.921  71.069  1.00  0.00     0.000 HD 
ENDROOT
BRANCH   2   4
HETATM    4  C   UNL     1     -10.973   7.360  71.113  1.00  0.00    -0.246 C  
HETATM    5  O   UNL     1     -11.169   8.287  70.075  1.00  0.00    -0.402 OA 
HETATM    6  H   UNL     1     -10.353   8.741  69.901  1.00  0.00     0.000 HD 
BRANCH   4   7
HETATM    7  C   UNL     1     -10.451   8.100  72.374  1.00  0.00    -0.319 C  
HETATM    8  H   UNL     1     -10.242   7.711  74.267  1.00  0.00     0.000 HD 
HETATM    9  O   UNL     1     -10.561   7.258  73.496  1.00  0.00    -0.368 OA 
BRANCH   7  10
HETATM   10  C   UNL     1      -8.972   8.542  72.217  1.00  0.00    -0.229 C  
HETATM   11  H   UNL     1      -7.901   9.368  70.838  1.00  0.00     0.000 HD 
HETATM   12  O   UNL     1      -8.807   9.097  70.934  1.00  0.00    -0.216 OA 
BRANCH  10  13
HETATM   13  C   UNL     1      -7.956   7.379  72.396  1.00  0.00    -0.100 C  
HETATM   14  H   UNL     1      -7.281   6.294  73.858  1.00  0.00     0.000 HD 
HETATM   15  O   UNL     1      -7.902   7.004  73.748  1.00  0.00    -0.102 OA 
BRANCH  13  16
HETATM   16  C   UNL     1      -8.302   6.151  71.587  1.00  0.00    -0.126 C  
HETATM   17  O   UNL     1      -8.841   5.200  72.132  1.00  0.00    -0.128 OA 
BRANCH  16  18
HETATM   18  O   UNL     1      -8.014   6.079  70.272  1.00  0.00    -0.102 OA 
BRANCH  18  19
HETATM   19 CA   UNL     1      -8.298   8.049  68.895  1.00  0.00    -0.110 Ca 
BRANCH  19  20
HETATM   20  O   UNL     1      -8.582  10.018  67.517  1.00  0.00    -0.122 OA 
BRANCH  20  21
HETATM   21  C   UNL     1      -9.891  10.176  67.254  1.00  0.00    -0.183 C  
HETATM   22  O   UNL     1     -10.637   9.239  67.487  1.00  0.00    -0.268 OA 
BRANCH  21  23
HETATM   23  C   UNL     1     -10.417  11.395  66.531  1.00  0.00    -0.249 C  
HETATM   24  H   UNL     1     -10.239  12.154  64.765  1.00  0.00     0.000 HD 
HETATM   25  O   UNL     1      -9.908  11.388  65.219  1.00  0.00    -0.229 OA 
BRANCH  23  26
HETATM   26  C   UNL     1     -10.063  12.755  67.206  1.00  0.00    -0.226 C  
HETATM   27  H   UNL     1      -8.558  13.977  67.225  1.00  0.00     0.000 HD 
HETATM   28  O   UNL     1      -8.773  13.149  66.813  1.00  0.00    -0.182 OA 
BRANCH  26  29
HETATM   29  C   UNL     1     -11.063  13.944  66.997  1.00  0.00    -0.301 C  
BRANCH  29  30
HETATM   30  O   UNL     1     -12.168  13.695  67.853  1.00  0.00    -0.320 OA 
BRANCH  30  31
HETATM   31  C   UNL     1     -11.889  13.709  69.238  1.00  0.00    -0.346 C  
HETATM   32  O   UNL     1     -12.637  12.699  69.896  1.00  0.00     0.013 OA 
HETATM   33  C   UNL     1     -12.354  12.692  71.287  1.00  0.00    -0.053 C  
HETATM   34  H   UNL     1     -11.840  16.985  69.442  1.00  0.00     0.000 HD 
HETATM   35  C   UNL     1     -12.861  14.003  71.942  1.00  0.00    -0.335 C  
HETATM   36  O   UNL     1     -14.247  14.147  71.749  1.00  0.00    -0.436 OA 
HETATM   37  C   UNL     1     -12.119  15.188  71.290  1.00  0.00    -0.342 C  
HETATM   38  O   UNL     1     -11.586  16.129  69.119  1.00  0.00    -0.342 OA 
HETATM   39  H   UNL     1     -14.557  14.950  72.150  1.00  0.00     0.000 HD 
HETATM   40  O   UNL     1     -12.606  16.424  71.752  1.00  0.00    -0.485 OA 
HETATM   41  C   UNL     1     -12.304  15.105  69.766  1.00  0.00    -0.242 C  
HETATM   42  H   UNL     1     -12.149  17.153  71.350  1.00  0.00     0.000 HD 
BRANCH  33  43
HETATM   43  C   UNL     1     -13.015  11.446  71.898  1.00  0.00    -0.361 C  
HETATM   44  O   UNL     1     -13.217  10.450  70.930  1.00  0.00    -0.377 OA 
HETATM   45  H   UNL     1     -13.625   9.681  71.308  1.00  0.00     0.000 HD 
ENDBRANCH  33  43
ENDBRANCH  30  31
ENDBRANCH  29  30
BRANCH  29  46
HETATM   46  C   UNL     1     -11.511  14.211  65.517  1.00  0.00    -0.324 C  
HETATM   47  O   UNL     1     -11.006  15.441  65.050  1.00  0.00    -0.391 OA 
HETATM   48  H   UNL     1     -11.277  15.603  64.155  1.00  0.00     0.000 HD 
BRANCH  46  49
HETATM   49  C   UNL     1     -13.029  14.066  65.256  1.00  0.00    -0.278 C  
HETATM   50  H   UNL     1     -14.299  12.634  64.858  1.00  0.00     0.000 HD 
HETATM   51  O   UNL     1     -13.367  12.724  65.019  1.00  0.00    -0.678 OA 
ENDBRANCH  46  49
ENDBRANCH  29  46
ENDBRANCH  26  29
ENDBRANCH  23  26
ENDBRANCH  21  23
ENDBRANCH  20  21
ENDBRANCH  19  20
ENDBRANCH  18  19
ENDBRANCH  16  18
ENDBRANCH  13  16
ENDBRANCH  10  13
ENDBRANCH   7  10
ENDBRANCH   4   7
ENDBRANCH   2   4
TORSDOF 17
ENDMDL
MODEL      241
REMARK 921   NORMALIZED FREE ENERGY PREDICTED BY IDOCK:   -4.21 KCAL/MOL
REMARK 922        TOTAL FREE ENERGY PREDICTED BY IDOCK:  -11.84 KCAL/MOL
REMARK 923 INTER-LIGAND FREE ENERGY PREDICTED BY IDOCK:   -9.38 KCAL/MOL
REMARK 924 INTRA-LIGAND FREE ENERGY PREDICTED BY IDOCK:   -2.47 KCAL/MOL
REMARK 927      BINDING AFFINITY PREDICTED BY RF-SCORE:    0.00 PKD
ROOT
HETATM    1  O   UNL     1     -12.968   8.552  72.925  1.00  0.00    -0.667 OA 
HETATM    2  C   UNL     1     -11.681   8.117  72.583  1.00  0.00    -0.355 C  
HETATM    3  H   UNL     1     -13.153   8.325  73.829  1.00  0.00     0.000 HD 
ENDROOT
BRANCH   2   4
HETATM    4  C   UNL     1     -11.382   8.484  71.119  1.00  0.00    -0.270 C  
HETATM    5  O   UNL     1     -11.254   9.880  71.008  1.00  0.00    -0.340 OA 
HETATM    6  H   UNL     1     -11.069  10.106  70.104  1.00  0.00     0.000 HD 
BRANCH   4   7
HETATM    7  C   UNL     1     -10.082   7.804  70.615  1.00  0.00    -0.191 C  
HETATM    8  H   UNL     1      -8.781   6.533  71.302  1.00  0.00     0.000 HD 
HETATM    9  O   UNL     1      -9.577   6.949  71.612  1.00  0.00    -0.162 OA 
BRANCH   7  10
HETATM   10  C   UNL     1     -10.322   6.983  69.320  1.00  0.00    -0.200 C  
HETATM   11  H   UNL     1     -11.340   5.417  68.828  1.00  0.00     0.000 HD 
HETATM   12  O   UNL     1     -11.193   5.919  69.621  1.00  0.00    -0.395 OA 
BRANCH  10  13
HETATM   13  C   UNL     1      -9.018   6.406  68.702  1.00  0.00    -0.125 C  
HETATM   14  H   UNL     1      -8.158   4.670  68.563  1.00  0.00     0.000 HD 
HETATM   15  O   UNL     1      -8.955   5.023  68.940  1.00  0.00    -0.098 OA 
BRANCH  13  16
HETATM   16  C   UNL     1      -8.912   6.626  67.212  1.00  0.00    -0.115 C  
HETATM   17  O   UNL     1      -7.844   6.442  66.648  1.00  0.00    -0.101 OA 
BRANCH  16  18
HETATM   18  O   UNL     1      -9.974   7.033  66.490  1.00  0.00    -0.174 OA 
BRANCH  18  19
HETATM   19 CA   UNL     1      -9.679   8.780  64.841  1.00  0.00    -0.410 Ca 
BRANCH  19  20
HETATM   20  O   UNL     1      -9.385  10.527  63.192  1.00  0.00    -0.258 OA 
BRANCH  20  21
HETATM   21  C   UNL     1     -10.191  11.556  63.506  1.00  0.00    -0.420 C  
HETATM   22  O   UNL     1      -9.865  12.670  63.132  1.00  0.00    -0.043 OA 
BRANCH  21  23
HETATM   23  C   UNL     1     -11.370  11.391  64.438  1.00  0.00    -0.141 C  
HETATM   24  H   UNL     1     -13.293  11.392  64.267  1.00  0.00     0.000 HD 
HETATM   25  O   UNL     1     -12.552  11.496  63.682  1.00  0.00    -0.278 OA 
BRANCH  23  26
HETATM   26  C   UNL     1     -11.423  12.418  65.609  1.00  0.00    -0.367 C  
HETATM   27  H   UNL     1     -12.745  13.596  66.401  1.00  0.00     0.000 HD 
HETATM   28  O   UNL     1     -12.712  12.970  65.687  1.00  0.00    -0.506 OA 
BRANCH  26  29
HETATM   29  C   UNL     1     -10.979  11.917  67.027  1.00  0.00    -0.278 C  
BRANCH  29  30
HETATM   30  O   UNL     1     -10.251  12.983  67.619  1.00  0.00    -0.212 OA 
BRANCH  30  31
HETATM   31  C   UNL     1     -11.019  14.085  68.057  1.00  0.00    -0.251 C  
HETATM   32  O   UNL     1     -10.314  15.293  67.826  1.00  0.00    -0.239 OA 
HETATM   33  C   UNL     1     -11.082  16.411  68.247  1.00  0.00    -0.337 C  
HETATM   34  H   UNL     1     -12.092  12.572  70.765  1.00  0.00     0.000 HD 
HETATM   35  C   UNL     1     -11.262  16.384  69.787  1.00  0.00    -0.249 C  
HETATM   36  O   UNL     1     -10.011  16.410  70.431  1.00  0.00     0.472 OA 
HETATM   37  C   UNL     1     -12.016  15.092  70.164  1.00  0.00    -0.334 C  
HETATM   38  O   UNL     1     -11.945  12.690  69.835  1.00  0.00    -0.321 OA 
HETATM   39  H   UNL     1     -10.122  16.393  71.374  1.00  0.00     0.000 HD 
HETATM   40  O   UNL     1     -12.118  14.939  71.559  1.00  0.00    -0.313 OA 
HETATM   41  C   UNL     1     -11.258  13.891  69.575  1.00  0.00    -0.184 C  
HETATM   42  H   UNL     1     -12.583  14.144  71.791  1.00  0.00     0.000 HD 
BRANCH  33  43
HETATM   43  C   UNL     1     -10.366  17.684  67.769  1.00  0.00    -0.365 C  
HETATM   44  O   UNL     1      -8.994  17.459  67.585  1.00  0.00    -0.229 OA 
HETATM   45  H   UNL     1      -8.552  18.245  67.289  1.00  0.00     0.000 HD 
ENDBRANCH  33  43
ENDBRANCH  30  31
ENDBRANCH  29  30
BRANCH  29  46
HETATM   46  C   UNL     1     -10.180  10.567  67.058  1.00  0.00    -0.226 C  
HETATM   47  O   UNL     1     -11.013   9.495  67.434  1.00  0.00    -0.391 OA 
HETATM   48  H   UNL     1     -10.530   8.678  67.453  1.00  0.00     0.000 HD 
BRANCH  46  49
HETATM   49  C   UNL     1      -8.868  10.602  67.875  1.00  0.00    -0.131 C  
HETATM   50  H   UNL     1      -8.332  10.733  69.751  1.00  0.00     0.000 HD 
HETATM   51  O   UNL     1      -9.138  10.711  69.248  1.00  0.00    -0.175 OA 
ENDBRANCH  46  49
ENDBRANCH  29  46
ENDBRANCH  26  29
ENDBRANCH  23  26
ENDBRANCH  21  23
ENDBRANCH  20  21
ENDBRANCH  19  20
ENDBRANCH  18  19
ENDBRANCH  16  18
ENDBRANCH  13  16
ENDBRANCH  10  13
ENDBRANCH   7  10
ENDBRANCH   4   7
ENDBRANCH   2   4
TORSDOF 17
ENDMDL
MODEL      242
REMARK 921   NORMALIZED FREE ENERGY PREDICTED BY IDOCK:   -4.21 KCAL/MOL
REMARK 922        TOTAL FREE ENERGY PREDICTED BY IDOCK:  -11.83 KCAL/MOL
REMARK 923 INTER-LIGAND FREE ENERGY PREDICTED BY IDOCK:  -10.66 KCAL/MOL
REMARK 924 INTRA-LIGAND FREE ENERGY PREDICTED BY IDOCK:   -1.17 KCAL/MOL
REMARK 927      BINDING AFFINITY PREDICTED BY RF-SCORE:    0.00 PKD
ROOT
HETATM    1  O   UNL     1     -10.683  18.673  65.427  1.00  0.00    -0.572 OA 
HETATM    2  C   UNL     1      -9.582  18.128  66.102  1.00  0.00    -0.170 C  
HETATM    3  H   UNL     1     -10.554  19.606  65.307  1.00  0.00     0.000 HD 
ENDROOT
BRANCH   2   4
HETATM    4  C   UNL     1      -9.790  16.616  66.297  1.00  0.00    -0.310 C  
HETATM    5  O   UNL     1      -9.974  16.345  67.664  1.00  0.00    -0.244 OA 
HETATM    6  H   UNL     1     -10.103  15.411  67.784  1.00  0.00     0.000 HD 
BRANCH   4   7
HETATM    7  C   UNL     1     -11.017  16.103  65.498  1.00  0.00    -0.177 C  
HETATM    8  H   UNL     1     -11.671  16.207  63.670  1.00  0.00     0.000 HD 
HETATM    9  O   UNL     1     -10.920  16.521  64.159  1.00  0.00    -0.770 OA 
BRANCH   7  10
HETATM   10  C   UNL     1     -11.128  14.555  65.537  1.00  0.00    -0.339 C  
HETATM   11  H   UNL     1     -11.274  13.133  64.238  1.00  0.00     0.000 HD 
HETATM   12  O   UNL     1     -11.207  14.081  64.214  1.00  0.00    -0.335 OA 
BRANCH  10  13
HETATM   13  C   UNL     1     -12.363  14.043  66.329  1.00  0.00    -0.448 C  
HETATM   14  H   UNL     1     -14.067  13.205  65.921  1.00  0.00     0.000 HD 
HETATM   15  O   UNL     1     -13.312  13.519  65.437  1.00  0.00    -0.548 OA 
BRANCH  13  16
HETATM   16  C   UNL     1     -12.026  12.966  67.334  1.00  0.00    -0.300 C  
HETATM   17  O   UNL     1     -12.064  11.793  66.999  1.00  0.00    -0.575 OA 
BRANCH  16  18
HETATM   18  O   UNL     1     -11.695  13.278  68.603  1.00  0.00    -0.299 OA 
BRANCH  18  19
HETATM   19 CA   UNL     1     -12.143  11.679  70.364  1.00  0.00    -0.242 Ca 
BRANCH  19  20
HETATM   20  O   UNL     1     -12.592  10.082  72.126  1.00  0.00    -0.337 OA 
BRANCH  20  21
HETATM   21  C   UNL     1     -12.819   8.879  71.570  1.00  0.00    -0.334 C  
HETATM   22  O   UNL     1     -13.978   8.540  71.398  1.00  0.00    -0.347 OA 
BRANCH  21  23
HETATM   23  C   UNL     1     -11.701   7.892  71.322  1.00  0.00    -0.287 C  
HETATM   24  H   UNL     1     -10.661   6.665  72.389  1.00  0.00     0.000 HD 
HETATM   25  O   UNL     1     -11.363   7.285  72.545  1.00  0.00    -0.278 OA 
BRANCH  23  26
HETATM   26  C   UNL     1     -10.417   8.510  70.689  1.00  0.00    -0.201 C  
HETATM   27  H   UNL     1      -8.895   9.545  71.300  1.00  0.00     0.000 HD 
HETATM   28  O   UNL     1      -9.678   9.169  71.685  1.00  0.00    -0.292 OA 
BRANCH  26  29
HETATM   29  C   UNL     1      -9.475   7.547  69.887  1.00  0.00    -0.160 C  
BRANCH  29  30
HETATM   30  O   UNL     1      -8.509   8.369  69.249  1.00  0.00    -0.122 OA 
BRANCH  30  31
HETATM   31  C   UNL     1      -8.857   8.845  67.965  1.00  0.00    -0.133 C  
HETATM   32  O   UNL     1      -8.088   8.182  66.975  1.00  0.00    -0.106 OA 
HETATM   33  C   UNL     1      -8.438   8.640  65.677  1.00  0.00    -0.156 C  
HETATM   34  H   UNL     1      -9.097  11.975  68.924  1.00  0.00     0.000 HD 
HETATM   35  C   UNL     1      -8.038  10.129  65.511  1.00  0.00    -0.147 C  
HETATM   36  O   UNL     1      -6.654  10.292  65.704  1.00  0.00    -0.107 OA 
HETATM   37  C   UNL     1      -8.811  10.958  66.557  1.00  0.00    -0.163 C  
HETATM   38  O   UNL     1      -9.287  11.045  68.934  1.00  0.00    -0.190 OA 
HETATM   39  H   UNL     1      -6.409  11.205  65.602  1.00  0.00     0.000 HD 
HETATM   40  O   UNL     1      -8.416  12.308  66.545  1.00  0.00    -0.366 OA 
HETATM   41  C   UNL     1      -8.547  10.363  67.950  1.00  0.00    -0.118 C  
HETATM   42  H   UNL     1      -8.893  12.818  67.189  1.00  0.00     0.000 HD 
BRANCH  33  43
HETATM   43  C   UNL     1      -7.741   7.734  64.651  1.00  0.00    -0.121 C  
HETATM   44  O   UNL     1      -8.606   7.392  63.602  1.00  0.00    -0.343 OA 
HETATM   45  H   UNL     1      -8.175   6.833  62.967  1.00  0.00     0.000 HD 
ENDBRANCH  33  43
ENDBRANCH  30  31
ENDBRANCH  29  30
BRANCH  29  46
HETATM   46  C   UNL     1     -10.185   6.578  68.876  1.00  0.00    -0.181 C  
HETATM   47  O   UNL     1     -11.585   6.633  69.022  1.00  0.00    -0.611 OA 
HETATM   48  H   UNL     1     -12.014   6.047  68.410  1.00  0.00     0.000 HD 
BRANCH  46  49
HETATM   49  C   UNL     1      -9.652   5.126  68.877  1.00  0.00    -0.144 C  
HETATM   50  H   UNL     1      -7.922   4.218  68.884  1.00  0.00     0.000 HD 
HETATM   51  O   UNL     1      -8.249   5.110  68.883  1.00  0.00    -0.088 OA 
ENDBRANCH  46  49
ENDBRANCH  29  46
ENDBRANCH  26  29
ENDBRANCH  23  26
ENDBRANCH  21  23
ENDBRANCH  20  21
ENDBRANCH  19  20
ENDBRANCH  18  19
ENDBRANCH  16  18
ENDBRANCH  13  16
ENDBRANCH  10  13
ENDBRANCH   7  10
ENDBRANCH   4   7
ENDBRANCH   2   4
TORSDOF 17
ENDMDL
MODEL      243
REMARK 921   NORMALIZED FREE ENERGY PREDICTED BY IDOCK:   -4.20 KCAL/MOL
REMARK 922        TOTAL FREE ENERGY PREDICTED BY IDOCK:  -11.81 KCAL/MOL
REMARK 923 INTER-LIGAND FREE ENERGY PREDICTED BY IDOCK:  -10.31 KCAL/MOL
REMARK 924 INTRA-LIGAND FREE ENERGY PREDICTED BY IDOCK:   -1.50 KCAL/MOL
REMARK 927      BINDING AFFINITY PREDICTED BY RF-SCORE:    0.00 PKD
ROOT
HETATM    1  O   UNL     1     -13.611   9.406  70.739  1.00  0.00    -0.591 OA 
HETATM    2  C   UNL     1     -13.150   8.963  71.986  1.00  0.00    -0.402 C  
HETATM    3  H   UNL     1     -13.965  10.283  70.822  1.00  0.00     0.000 HD 
ENDROOT
BRANCH   2   4
HETATM    4  C   UNL     1     -12.576   7.543  71.851  1.00  0.00    -0.294 C  
HETATM    5  O   UNL     1     -12.743   7.098  70.529  1.00  0.00    -0.611 OA 
HETATM    6  H   UNL     1     -12.388   6.220  70.446  1.00  0.00     0.000 HD 
BRANCH   4   7
HETATM    7  C   UNL     1     -11.071   7.498  72.226  1.00  0.00    -0.273 C  
HETATM    8  H   UNL     1     -10.005   7.555  73.851  1.00  0.00     0.000 HD 
HETATM    9  O   UNL     1     -10.927   7.582  73.623  1.00  0.00    -0.322 OA 
BRANCH   7  10
HETATM   10  C   UNL     1     -10.387   6.198  71.724  1.00  0.00    -0.210 C  
HETATM   11  H   UNL     1     -10.657   4.300  71.956  1.00  0.00     0.000 HD 
HETATM   12  O   UNL     1     -11.076   5.096  72.263  1.00  0.00    -0.198 OA 
BRANCH  10  13
HETATM   13  C   UNL     1      -8.887   6.096  72.120  1.00  0.00    -0.138 C  
HETATM   14  H   UNL     1      -7.534   4.706  72.219  1.00  0.00     0.000 HD 
HETATM   15  O   UNL     1      -8.451   4.769  71.977  1.00  0.00    -0.115 OA 
BRANCH  13  16
HETATM   16  C   UNL     1      -7.985   6.973  71.284  1.00  0.00    -0.103 C  
HETATM   17  O   UNL     1      -7.639   8.064  71.710  1.00  0.00    -0.073 OA 
BRANCH  16  18
HETATM   18  O   UNL     1      -7.562   6.578  70.067  1.00  0.00    -0.095 OA 
BRANCH  18  19
HETATM   19 CA   UNL     1      -7.913   8.036  68.167  1.00  0.00    -0.104 Ca 
BRANCH  19  20
HETATM   20  O   UNL     1      -8.264   9.493  66.267  1.00  0.00    -0.113 OA 
BRANCH  20  21
HETATM   21  C   UNL     1      -9.571   9.484  65.952  1.00  0.00    -0.261 C  
HETATM   22  O   UNL     1     -10.221   8.495  66.244  1.00  0.00    -0.237 OA 
BRANCH  21  23
HETATM   23  C   UNL     1     -10.195  10.574  65.109  1.00  0.00    -0.288 C  
HETATM   24  H   UNL     1      -9.606  11.761  63.706  1.00  0.00     0.000 HD 
HETATM   25  O   UNL     1      -9.214  11.076  64.235  1.00  0.00    -0.200 OA 
BRANCH  23  26
HETATM   26  C   UNL     1     -10.805  11.755  65.923  1.00  0.00    -0.291 C  
HETATM   27  H   UNL     1     -12.366  12.899  65.803  1.00  0.00     0.000 HD 
HETATM   28  O   UNL     1     -11.995  12.179  65.307  1.00  0.00    -0.362 OA 
BRANCH  26  29
HETATM   29  C   UNL     1     -11.059  11.521  67.452  1.00  0.00    -0.282 C  
BRANCH  29  30
HETATM   30  O   UNL     1     -12.191  12.306  67.796  1.00  0.00    -0.425 OA 
BRANCH  30  31
HETATM   31  C   UNL     1     -11.929  13.658  68.115  1.00  0.00    -0.355 C  
HETATM   32  O   UNL     1     -10.786  14.113  67.409  1.00  0.00    -0.280 OA 
HETATM   33  C   UNL     1     -10.521  15.475  67.708  1.00  0.00    -0.273 C  
HETATM   34  H   UNL     1     -12.623  13.293  71.303  1.00  0.00     0.000 HD 
HETATM   35  C   UNL     1     -10.110  15.623  69.196  1.00  0.00    -0.237 C  
HETATM   36  O   UNL     1      -8.965  14.854  69.472  1.00  0.00    -0.415 OA 
HETATM   37  C   UNL     1     -11.285  15.141  70.073  1.00  0.00    -0.277 C  
HETATM   38  O   UNL     1     -12.782  13.257  70.367  1.00  0.00    -0.169 OA 
HETATM   39  H   UNL     1      -8.714  14.945  70.383  1.00  0.00     0.000 HD 
HETATM   40  O   UNL     1     -10.946  15.138  71.438  1.00  0.00    -0.541 OA 
HETATM   41  C   UNL     1     -11.668  13.716  69.641  1.00  0.00    -0.320 C  
HETATM   42  H   UNL     1     -11.670  14.842  71.978  1.00  0.00     0.000 HD 
BRANCH  33  43
HETATM   43  C   UNL     1      -9.422  15.964  66.752  1.00  0.00    -0.235 C  
HETATM   44  O   UNL     1      -8.556  14.920  66.394  1.00  0.00    -0.446 OA 
HETATM   45  H   UNL     1      -7.877  15.222  65.803  1.00  0.00     0.000 HD 
ENDBRANCH  33  43
ENDBRANCH  30  31
ENDBRANCH  29  30
BRANCH  29  46
HETATM   46  C   UNL     1      -9.839  11.798  68.400  1.00  0.00    -0.199 C  
HETATM   47  O   UNL     1      -8.736  12.289  67.674  1.00  0.00    -0.158 OA 
HETATM   48  H   UNL     1      -7.998  12.456  68.248  1.00  0.00     0.000 HD 
BRANCH  46  49
HETATM   49  C   UNL     1      -9.453  10.624  69.329  1.00  0.00    -0.133 C  
HETATM   50  H   UNL     1     -10.311   9.502  70.680  1.00  0.00     0.000 HD 
HETATM   51  O   UNL     1     -10.548  10.224  70.109  1.00  0.00    -0.280 OA 
ENDBRANCH  46  49
ENDBRANCH  29  46
ENDBRANCH  26  29
ENDBRANCH  23  26
ENDBRANCH  21  23
ENDBRANCH  20  21
ENDBRANCH  19  20
ENDBRANCH  18  19
ENDBRANCH  16  18
ENDBRANCH  13  16
ENDBRANCH  10  13
ENDBRANCH   7  10
ENDBRANCH   4   7
ENDBRANCH   2   4
TORSDOF 17
ENDMDL
MODEL      244
REMARK 921   NORMALIZED FREE ENERGY PREDICTED BY IDOCK:   -4.19 KCAL/MOL
REMARK 922        TOTAL FREE ENERGY PREDICTED BY IDOCK:  -11.80 KCAL/MOL
REMARK 923 INTER-LIGAND FREE ENERGY PREDICTED BY IDOCK:  -10.09 KCAL/MOL
REMARK 924 INTRA-LIGAND FREE ENERGY PREDICTED BY IDOCK:   -1.71 KCAL/MOL
REMARK 927      BINDING AFFINITY PREDICTED BY RF-SCORE:    0.00 PKD
ROOT
HETATM    1  O   UNL     1      -5.460  21.379  68.113  1.00  0.00    -0.397 OA 
HETATM    2  C   UNL     1      -5.665  20.379  67.153  1.00  0.00    -0.168 C  
HETATM    3  H   UNL     1      -4.770  21.965  67.823  1.00  0.00     0.000 HD 
ENDROOT
BRANCH   2   4
HETATM    4  C   UNL     1      -6.781  19.431  67.623  1.00  0.00    -0.215 C  
HETATM    5  O   UNL     1      -7.263  19.864  68.870  1.00  0.00    -0.319 OA 
HETATM    6  H   UNL     1      -7.953  19.278  69.161  1.00  0.00     0.000 HD 
BRANCH   4   7
HETATM    7  C   UNL     1      -7.952  19.380  66.606  1.00  0.00    -0.286 C  
HETATM    8  H   UNL     1      -8.158  19.242  64.677  1.00  0.00     0.000 HD 
HETATM    9  O   UNL     1      -7.440  19.273  65.300  1.00  0.00    -0.378 OA 
BRANCH   7  10
HETATM   10  C   UNL     1      -8.903  18.184  66.875  1.00  0.00    -0.267 C  
HETATM   11  H   UNL     1     -10.247  17.217  65.880  1.00  0.00     0.000 HD 
HETATM   12  O   UNL     1      -9.664  17.949  65.715  1.00  0.00    -0.527 OA 
BRANCH  10  13
HETATM   13  C   UNL     1      -9.868  18.418  68.071  1.00  0.00    -0.338 C  
HETATM   14  H   UNL     1     -11.585  19.277  68.366  1.00  0.00     0.000 HD 
HETATM   15  O   UNL     1     -10.995  19.134  67.635  1.00  0.00    -0.419 OA 
BRANCH  13  16
HETATM   16  C   UNL     1     -10.350  17.138  68.712  1.00  0.00    -0.353 C  
HETATM   17  O   UNL     1      -9.674  16.125  68.624  1.00  0.00    -0.212 OA 
BRANCH  16  18
HETATM   18  O   UNL     1     -11.525  17.090  69.372  1.00  0.00     0.296 OA 
BRANCH  18  19
HETATM   19 CA   UNL     1     -12.222  15.005  70.385  1.00  0.00    -0.245 Ca 
BRANCH  19  20
HETATM   20  O   UNL     1     -12.920  12.921  71.397  1.00  0.00    -0.354 OA 
BRANCH  20  21
HETATM   21  C   UNL     1     -12.322  11.906  70.751  1.00  0.00    -0.320 C  
HETATM   22  O   UNL     1     -12.383  10.795  71.252  1.00  0.00    -0.361 OA 
BRANCH  21  23
HETATM   23  C   UNL     1     -11.450  12.137  69.537  1.00  0.00    -0.265 C  
HETATM   24  H   UNL     1     -11.523  13.244  67.958  1.00  0.00     0.000 HD 
HETATM   25  O   UNL     1     -12.071  13.099  68.720  1.00  0.00    -0.310 OA 
BRANCH  23  26
HETATM   26  C   UNL     1     -11.162  10.860  68.691  1.00  0.00    -0.267 C  
HETATM   27  H   UNL     1     -11.783  10.101  67.018  1.00  0.00     0.000 HD 
HETATM   28  O   UNL     1     -11.958  10.879  67.534  1.00  0.00    -0.442 OA 
BRANCH  26  29
HETATM   29  C   UNL     1      -9.671  10.577  68.298  1.00  0.00    -0.154 C  
BRANCH  29  30
HETATM   30  O   UNL     1      -9.061   9.986  69.436  1.00  0.00    -0.189 OA 
BRANCH  30  31
HETATM   31  C   UNL     1      -9.016   8.573  69.446  1.00  0.00    -0.149 C  
HETATM   32  O   UNL     1      -9.498   8.062  68.215  1.00  0.00    -0.140 OA 
HETATM   33  C   UNL     1      -9.444   6.643  68.205  1.00  0.00    -0.115 C  
HETATM   34  H   UNL     1     -10.035   8.321  72.556  1.00  0.00     0.000 HD 
HETATM   35  C   UNL     1     -10.433   6.065  69.250  1.00  0.00    -0.264 C  
HETATM   36  O   UNL     1     -11.747   6.482  68.970  1.00  0.00    -0.595 OA 
HETATM   37  C   UNL     1     -10.012   6.569  70.646  1.00  0.00    -0.184 C  
HETATM   38  O   UNL     1      -9.478   8.609  71.844  1.00  0.00    -0.252 OA 
HETATM   39  H   UNL     1     -12.352   6.128  69.610  1.00  0.00     0.000 HD 
HETATM   40  O   UNL     1     -10.930   6.178  71.637  1.00  0.00    -0.248 OA 
HETATM   41  C   UNL     1      -9.926   8.104  70.609  1.00  0.00    -0.189 C  
HETATM   42  H   UNL     1     -10.670   6.489  72.497  1.00  0.00     0.000 HD 
BRANCH  33  43
HETATM   43  C   UNL     1      -9.762   6.167  66.779  1.00  0.00    -0.158 C  
HETATM   44  O   UNL     1     -11.141   5.980  66.600  1.00  0.00    -0.656 OA 
HETATM   45  H   UNL     1     -11.338   5.687  65.719  1.00  0.00     0.000 HD 
ENDBRANCH  33  43
ENDBRANCH  30  31
ENDBRANCH  29  30
BRANCH  29  46
HETATM   46  C   UNL     1      -8.856  11.809  67.766  1.00  0.00    -0.163 C  
HETATM   47  O   UNL     1      -9.499  12.400  66.660  1.00  0.00    -0.221 OA 
HETATM   48  H   UNL     1      -9.007  13.145  66.338  1.00  0.00     0.000 HD 
BRANCH  46  49
HETATM   49  C   UNL     1      -7.359  11.535  67.493  1.00  0.00    -0.112 C  
HETATM   50  H   UNL     1      -5.721  12.569  67.232  1.00  0.00     0.000 HD 
HETATM   51  O   UNL     1      -6.641  12.737  67.399  1.00  0.00    -0.153 OA 
ENDBRANCH  46  49
ENDBRANCH  29  46
ENDBRANCH  26  29
ENDBRANCH  23  26
ENDBRANCH  21  23
ENDBRANCH  20  21
ENDBRANCH  19  20
ENDBRANCH  18  19
ENDBRANCH  16  18
ENDBRANCH  13  16
ENDBRANCH  10  13
ENDBRANCH   7  10
ENDBRANCH   4   7
ENDBRANCH   2   4
TORSDOF 17
ENDMDL
MODEL      245
REMARK 921   NORMALIZED FREE ENERGY PREDICTED BY IDOCK:   -4.19 KCAL/MOL
REMARK 922        TOTAL FREE ENERGY PREDICTED BY IDOCK:  -11.79 KCAL/MOL
REMARK 923 INTER-LIGAND FREE ENERGY PREDICTED BY IDOCK:  -10.24 KCAL/MOL
REMARK 924 INTRA-LIGAND FREE ENERGY PREDICTED BY IDOCK:   -1.56 KCAL/MOL
REMARK 927      BINDING AFFINITY PREDICTED BY RF-SCORE:    0.00 PKD
ROOT
HETATM    1  O   UNL     1      -9.731   6.650  66.212  1.00  0.00    -0.346 OA 
HETATM    2  C   UNL     1     -10.701   6.949  67.180  1.00  0.00    -0.366 C  
HETATM    3  H   UNL     1      -9.687   7.354  65.576  1.00  0.00     0.000 HD 
ENDROOT
BRANCH   2   4
HETATM    4  C   UNL     1     -10.773   5.809  68.209  1.00  0.00    -0.208 C  
HETATM    5  O   UNL     1     -10.149   4.665  67.681  1.00  0.00    -0.134 OA 
HETATM    6  H   UNL     1     -10.194   3.961  68.317  1.00  0.00     0.000 HD 
BRANCH   4   7
HETATM    7  C   UNL     1     -10.087   6.202  69.544  1.00  0.00    -0.185 C  
HETATM    8  H   UNL     1      -8.803   7.532  70.148  1.00  0.00     0.000 HD 
HETATM    9  O   UNL     1      -9.223   7.292  69.330  1.00  0.00    -0.149 OA 
BRANCH   7  10
HETATM   10  C   UNL     1     -11.121   6.584  70.637  1.00  0.00    -0.309 C  
HETATM   11  H   UNL     1     -13.044   6.719  70.753  1.00  0.00     0.000 HD 
HETATM   12  O   UNL     1     -12.411   6.485  70.084  1.00  0.00    -0.114 OA 
BRANCH  10  13
HETATM   13  C   UNL     1     -10.923   8.018  71.201  1.00  0.00    -0.243 C  
HETATM   14  H   UNL     1     -11.299   9.835  70.629  1.00  0.00     0.000 HD 
HETATM   15  O   UNL     1     -11.420   8.958  70.284  1.00  0.00    -0.221 OA 
BRANCH  13  16
HETATM   16  C   UNL     1     -11.621   8.245  72.522  1.00  0.00    -0.385 C  
HETATM   17  O   UNL     1     -11.053   7.955  73.564  1.00  0.00    -0.214 OA 
BRANCH  16  18
HETATM   18  O   UNL     1     -12.869   8.752  72.572  1.00  0.00    -0.399 OA 
BRANCH  18  19
HETATM   19 CA   UNL     1     -13.161  11.143  72.807  1.00  0.00    -0.519 Ca 
BRANCH  19  20
HETATM   20  O   UNL     1     -13.452  13.533  73.042  1.00  0.00    -0.552 OA 
BRANCH  20  21
HETATM   21  C   UNL     1     -13.272  14.111  71.841  1.00  0.00    -0.387 C  
HETATM   22  O   UNL     1     -14.238  14.208  71.104  1.00  0.00    -0.145 OA 
BRANCH  21  23
HETATM   23  C   UNL     1     -11.895  14.474  71.331  1.00  0.00    -0.249 C  
HETATM   24  H   UNL     1     -10.432  15.580  71.933  1.00  0.00     0.000 HD 
HETATM   25  O   UNL     1     -11.297  15.352  72.253  1.00  0.00    -0.440 OA 
BRANCH  23  26
HETATM   26  C   UNL     1     -11.879  15.133  69.918  1.00  0.00    -0.330 C  
HETATM   27  H   UNL     1     -11.277  16.805  69.143  1.00  0.00     0.000 HD 
HETATM   28  O   UNL     1     -11.287  16.404  70.004  1.00  0.00    -0.312 OA 
BRANCH  26  29
HETATM   29  C   UNL     1     -11.214  14.321  68.753  1.00  0.00    -0.262 C  
BRANCH  29  30
HETATM   30  O   UNL     1     -11.443  12.949  69.039  1.00  0.00    -0.270 OA 
BRANCH  30  31
HETATM   31  C   UNL     1     -11.400  12.074  67.930  1.00  0.00    -0.305 C  
HETATM   32  O   UNL     1     -10.105  11.513  67.801  1.00  0.00    -0.177 OA 
HETATM   33  C   UNL     1     -10.052  10.619  66.699  1.00  0.00    -0.220 C  
HETATM   34  H   UNL     1     -13.223  14.022  66.016  1.00  0.00     0.000 HD 
HETATM   35  C   UNL     1     -10.243  11.398  65.372  1.00  0.00    -0.270 C  
HETATM   36  O   UNL     1      -9.243  12.377  65.225  1.00  0.00    -0.421 OA 
HETATM   37  C   UNL     1     -11.631  12.071  65.401  1.00  0.00    -0.286 C  
HETATM   38  O   UNL     1     -13.015  13.503  66.784  1.00  0.00     0.189 OA 
HETATM   39  H   UNL     1      -9.361  12.854  64.412  1.00  0.00     0.000 HD 
HETATM   40  O   UNL     1     -11.834  12.892  64.277  1.00  0.00    -0.348 OA 
HETATM   41  C   UNL     1     -11.739  12.921  66.677  1.00  0.00    -0.390 C  
HETATM   42  H   UNL     1     -12.688  13.306  64.294  1.00  0.00     0.000 HD 
BRANCH  33  43
HETATM   43  C   UNL     1      -8.704   9.883  66.750  1.00  0.00    -0.128 C  
HETATM   44  O   UNL     1      -8.187   9.676  65.463  1.00  0.00    -0.119 OA 
HETATM   45  H   UNL     1      -7.354   9.221  65.495  1.00  0.00     0.000 HD 
ENDBRANCH  33  43
ENDBRANCH  30  31
ENDBRANCH  29  30
BRANCH  29  46
HETATM   46  C   UNL     1      -9.698  14.623  68.484  1.00  0.00    -0.225 C  
HETATM   47  O   UNL     1      -9.016  14.896  69.687  1.00  0.00    -0.433 OA 
HETATM   48  H   UNL     1      -8.099  15.078  69.524  1.00  0.00     0.000 HD 
BRANCH  46  49
HETATM   49  C   UNL     1      -9.425  15.692  67.401  1.00  0.00    -0.215 C  
HETATM   50  H   UNL     1      -7.887  16.641  66.657  1.00  0.00     0.000 HD 
HETATM   51  O   UNL     1      -8.054  15.983  67.322  1.00  0.00    -0.151 OA 
ENDBRANCH  46  49
ENDBRANCH  29  46
ENDBRANCH  26  29
ENDBRANCH  23  26
ENDBRANCH  21  23
ENDBRANCH  20  21
ENDBRANCH  19  20
ENDBRANCH  18  19
ENDBRANCH  16  18
ENDBRANCH  13  16
ENDBRANCH  10  13
ENDBRANCH   7  10
ENDBRANCH   4   7
ENDBRANCH   2   4
TORSDOF 17
ENDMDL
MODEL      246
REMARK 921   NORMALIZED FREE ENERGY PREDICTED BY IDOCK:   -4.19 KCAL/MOL
REMARK 922        TOTAL FREE ENERGY PREDICTED BY IDOCK:  -11.79 KCAL/MOL
REMARK 923 INTER-LIGAND FREE ENERGY PREDICTED BY IDOCK:   -9.28 KCAL/MOL
REMARK 924 INTRA-LIGAND FREE ENERGY PREDICTED BY IDOCK:   -2.51 KCAL/MOL
REMARK 927      BINDING AFFINITY PREDICTED BY RF-SCORE:    0.00 PKD
ROOT
HETATM    1  O   UNL     1      -9.973  12.775  63.420  1.00  0.00    -0.642 OA 
HETATM    2  C   UNL     1     -11.293  12.345  63.230  1.00  0.00    -0.327 C  
HETATM    3  H   UNL     1      -9.417  12.410  62.742  1.00  0.00     0.000 HD 
ENDROOT
BRANCH   2   4
HETATM    4  C   UNL     1     -12.193  12.937  64.329  1.00  0.00    -0.410 C  
HETATM    5  O   UNL     1     -13.372  12.178  64.422  1.00  0.00    -0.740 OA 
HETATM    6  H   UNL     1     -13.928  12.544  65.100  1.00  0.00     0.000 HD 
BRANCH   4   7
HETATM    7  C   UNL     1     -11.477  12.952  65.705  1.00  0.00    -0.337 C  
HETATM    8  H   UNL     1     -11.827  13.654  67.484  1.00  0.00     0.000 HD 
HETATM    9  O   UNL     1     -12.266  13.645  66.642  1.00  0.00    -0.415 OA 
BRANCH   7  10
HETATM   10  C   UNL     1     -11.209  11.518  66.235  1.00  0.00    -0.222 C  
HETATM   11  H   UNL     1     -11.541  10.549  67.872  1.00  0.00     0.000 HD 
HETATM   12  O   UNL     1     -11.706  11.427  67.548  1.00  0.00    -0.568 OA 
BRANCH  10  13
HETATM   13  C   UNL     1      -9.704  11.132  66.239  1.00  0.00    -0.211 C  
HETATM   14  H   UNL     1      -8.070  11.785  67.062  1.00  0.00     0.000 HD 
HETATM   15  O   UNL     1      -8.990  12.021  67.059  1.00  0.00    -0.184 OA 
BRANCH  13  16
HETATM   16  C   UNL     1      -9.445   9.730  66.739  1.00  0.00    -0.163 C  
HETATM   17  O   UNL     1      -8.379   9.465  67.272  1.00  0.00    -0.123 OA 
BRANCH  16  18
HETATM   18  O   UNL     1     -10.369   8.759  66.598  1.00  0.00    -0.279 OA 
BRANCH  18  19
HETATM   19 CA   UNL     1     -11.201   7.628  68.569  1.00  0.00    -0.352 Ca 
BRANCH  19  20
HETATM   20  O   UNL     1     -12.033   6.496  70.539  1.00  0.00    -0.388 OA 
BRANCH  20  21
HETATM   21  C   UNL     1     -11.594   7.148  71.629  1.00  0.00    -0.276 C  
HETATM   22  O   UNL     1     -11.587   8.367  71.602  1.00  0.00    -0.260 OA 
BRANCH  21  23
HETATM   23  C   UNL     1     -10.960   6.418  72.793  1.00  0.00    -0.257 C  
HETATM   24  H   UNL     1     -10.204   6.907  74.500  1.00  0.00     0.000 HD 
HETATM   25  O   UNL     1     -10.601   7.365  73.769  1.00  0.00    -0.349 OA 
BRANCH  23  26
HETATM   26  C   UNL     1      -9.706   5.569  72.423  1.00  0.00    -0.154 C  
HETATM   27  H   UNL     1      -9.318   3.707  72.045  1.00  0.00     0.000 HD 
HETATM   28  O   UNL     1     -10.082   4.224  72.271  1.00  0.00    -0.172 OA 
BRANCH  26  29
HETATM   29  C   UNL     1      -8.870   6.025  71.178  1.00  0.00    -0.139 C  
BRANCH  29  30
HETATM   30  O   UNL     1      -8.674   4.867  70.379  1.00  0.00    -0.097 OA 
BRANCH  30  31
HETATM   31  C   UNL     1      -8.348   5.102  69.025  1.00  0.00    -0.087 C  
HETATM   32  O   UNL     1      -9.473   4.848  68.201  1.00  0.00    -0.124 OA 
HETATM   33  C   UNL     1      -9.163   5.095  66.838  1.00  0.00    -0.118 C  
HETATM   34  H   UNL     1      -5.365   3.751  69.259  1.00  0.00     0.000 HD 
HETATM   35  C   UNL     1      -8.111   4.073  66.336  1.00  0.00    -0.098 C  
HETATM   36  O   UNL     1      -8.594   2.759  66.473  1.00  0.00    -0.098 OA 
HETATM   37  C   UNL     1      -6.829   4.247  67.178  1.00  0.00    -0.052 C  
HETATM   38  O   UNL     1      -6.070   4.348  69.479  1.00  0.00    -0.024 OA 
HETATM   39  H   UNL     1      -7.949   2.133  66.167  1.00  0.00     0.000 HD 
HETATM   40  O   UNL     1      -5.863   3.276  66.858  1.00  0.00    -0.022 OA 
HETATM   41  C   UNL     1      -7.197   4.128  68.666  1.00  0.00    -0.055 C  
HETATM   42  H   UNL     1      -5.073   3.383  67.376  1.00  0.00     0.000 HD 
BRANCH  33  43
HETATM   43  C   UNL     1     -10.471   5.022  66.034  1.00  0.00    -0.242 C  
HETATM   44  O   UNL     1     -11.348   6.056  66.391  1.00  0.00    -0.732 OA 
HETATM   45  H   UNL     1     -12.155   6.011  65.894  1.00  0.00     0.000 HD 
ENDBRANCH  33  43
ENDBRANCH  30  31
ENDBRANCH  29  30
BRANCH  29  46
HETATM   46  C   UNL     1      -7.519   6.761  71.490  1.00  0.00    -0.087 C  
HETATM   47  O   UNL     1      -6.596   5.886  72.095  1.00  0.00    -0.059 OA 
HETATM   48  H   UNL     1      -5.779   6.331  72.284  1.00  0.00     0.000 HD 
BRANCH  46  49
HETATM   49  C   UNL     1      -7.663   8.089  72.269  1.00  0.00    -0.112 C  
HETATM   50  H   UNL     1      -8.553   9.814  72.039  1.00  0.00     0.000 HD 
HETATM   51  O   UNL     1      -8.465   8.998  71.561  1.00  0.00    -0.308 OA 
ENDBRANCH  46  49
ENDBRANCH  29  46
ENDBRANCH  26  29
ENDBRANCH  23  26
ENDBRANCH  21  23
ENDBRANCH  20  21
ENDBRANCH  19  20
ENDBRANCH  18  19
ENDBRANCH  16  18
ENDBRANCH  13  16
ENDBRANCH  10  13
ENDBRANCH   7  10
ENDBRANCH   4   7
ENDBRANCH   2   4
TORSDOF 17
ENDMDL
MODEL      247
REMARK 921   NORMALIZED FREE ENERGY PREDICTED BY IDOCK:   -4.18 KCAL/MOL
REMARK 922        TOTAL FREE ENERGY PREDICTED BY IDOCK:  -11.78 KCAL/MOL
REMARK 923 INTER-LIGAND FREE ENERGY PREDICTED BY IDOCK:   -9.25 KCAL/MOL
REMARK 924 INTRA-LIGAND FREE ENERGY PREDICTED BY IDOCK:   -2.53 KCAL/MOL
REMARK 927      BINDING AFFINITY PREDICTED BY RF-SCORE:    0.00 PKD
ROOT
HETATM    1  O   UNL     1      -9.336  19.419  65.869  1.00  0.00    -0.415 OA 
HETATM    2  C   UNL     1     -10.346  18.625  66.428  1.00  0.00    -0.432 C  
HETATM    3  H   UNL     1      -9.576  20.336  65.938  1.00  0.00     0.000 HD 
ENDROOT
BRANCH   2   4
HETATM    4  C   UNL     1      -9.958  17.140  66.316  1.00  0.00    -0.304 C  
HETATM    5  O   UNL     1      -9.629  16.649  67.592  1.00  0.00    -0.235 OA 
HETATM    6  H   UNL     1      -9.389  15.733  67.523  1.00  0.00     0.000 HD 
BRANCH   4   7
HETATM    7  C   UNL     1     -11.112  16.293  65.718  1.00  0.00     0.059 C  
HETATM    8  H   UNL     1     -11.882  15.976  63.961  1.00  0.00     0.000 HD 
HETATM    9  O   UNL     1     -11.176  16.495  64.327  1.00  0.00    -0.992 OA 
BRANCH   7  10
HETATM   10  C   UNL     1     -10.926  14.778  66.000  1.00  0.00    -0.328 C  
HETATM   11  H   UNL     1     -10.333  13.234  65.002  1.00  0.00     0.000 HD 
HETATM   12  O   UNL     1     -10.447  14.162  64.829  1.00  0.00    -0.420 OA 
BRANCH  10  13
HETATM   13  C   UNL     1     -12.233  14.066  66.445  1.00  0.00    -0.460 C  
HETATM   14  H   UNL     1     -13.667  13.066  65.597  1.00  0.00     0.000 HD 
HETATM   15  O   UNL     1     -12.867  13.502  65.326  1.00  0.00    -0.660 OA 
BRANCH  13  16
HETATM   16  C   UNL     1     -12.004  12.965  67.453  1.00  0.00    -0.300 C  
HETATM   17  O   UNL     1     -11.868  13.244  68.634  1.00  0.00    -0.318 OA 
BRANCH  16  18
HETATM   18  O   UNL     1     -11.935  11.674  67.070  1.00  0.00    -0.593 OA 
BRANCH  18  19
HETATM   19 CA   UNL     1     -12.407   9.938  68.689  1.00  0.00    -0.497 Ca 
BRANCH  19  20
HETATM   20  O   UNL     1     -12.879   8.202  70.307  1.00  0.00     0.739 OA 
BRANCH  20  21
HETATM   21  C   UNL     1     -12.043   8.344  71.350  1.00  0.00    -0.301 C  
HETATM   22  O   UNL     1     -12.152   7.564  72.280  1.00  0.00    -0.287 OA 
BRANCH  21  23
HETATM   23  C   UNL     1     -11.110   9.529  71.467  1.00  0.00    -0.336 C  
HETATM   24  H   UNL     1     -11.104  11.364  70.868  1.00  0.00     0.000 HD 
HETATM   25  O   UNL     1     -11.690  10.620  70.795  1.00  0.00    -0.328 OA 
BRANCH  23  26
HETATM   26  C   UNL     1      -9.677   9.287  70.901  1.00  0.00    -0.276 C  
HETATM   27  H   UNL     1      -7.959   8.715  71.595  1.00  0.00     0.000 HD 
HETATM   28  O   UNL     1      -8.832   8.863  71.940  1.00  0.00    -0.342 OA 
BRANCH  26  29
HETATM   29  C   UNL     1      -9.541   8.313  69.680  1.00  0.00    -0.167 C  
BRANCH  29  30
HETATM   30  O   UNL     1      -8.550   7.359  70.036  1.00  0.00    -0.137 OA 
BRANCH  30  31
HETATM   31  C   UNL     1      -8.982   6.014  70.088  1.00  0.00    -0.147 C  
HETATM   32  O   UNL     1      -9.029   5.569  71.434  1.00  0.00    -0.137 OA 
HETATM   33  C   UNL     1      -9.476   4.224  71.502  1.00  0.00    -0.155 C  
HETATM   34  H   UNL     1      -7.238   5.100  67.462  1.00  0.00     0.000 HD 
HETATM   35  C   UNL     1      -8.434   3.282  70.845  1.00  0.00    -0.066 C  
HETATM   36  O   UNL     1      -7.190   3.392  71.493  1.00  0.00    -0.035 OA 
HETATM   37  C   UNL     1      -8.286   3.683  69.362  1.00  0.00    -0.059 C  
HETATM   38  O   UNL     1      -7.871   5.611  67.952  1.00  0.00    -0.095 OA 
HETATM   39  H   UNL     1      -6.552   2.815  71.090  1.00  0.00     0.000 HD 
HETATM   40  O   UNL     1      -7.272   2.946  68.724  1.00  0.00    -0.048 OA 
HETATM   41  C   UNL     1      -7.949   5.181  69.289  1.00  0.00    -0.080 C  
HETATM   42  H   UNL     1      -7.182   3.192  67.811  1.00  0.00     0.000 HD 
BRANCH  33  43
HETATM   43  C   UNL     1      -9.718   3.879  72.980  1.00  0.00    -0.126 C  
HETATM   44  O   UNL     1     -11.036   4.170  73.361  1.00  0.00    -0.237 OA 
HETATM   45  H   UNL     1     -11.186   3.957  74.274  1.00  0.00     0.000 HD 
ENDBRANCH  33  43
ENDBRANCH  30  31
ENDBRANCH  29  30
BRANCH  29  46
HETATM   46  C   UNL     1      -9.239   8.987  68.295  1.00  0.00    -0.136 C  
HETATM   47  O   UNL     1      -9.224  10.391  68.409  1.00  0.00    -0.137 OA 
HETATM   48  H   UNL     1      -9.041  10.798  67.571  1.00  0.00     0.000 HD 
BRANCH  46  49
HETATM   49  C   UNL     1     -10.129   8.505  67.126  1.00  0.00    -0.262 C  
HETATM   50  H   UNL     1     -11.486   7.134  66.807  1.00  0.00     0.000 HD 
HETATM   51  O   UNL     1     -10.939   7.431  67.526  1.00  0.00    -0.204 OA 
ENDBRANCH  46  49
ENDBRANCH  29  46
ENDBRANCH  26  29
ENDBRANCH  23  26
ENDBRANCH  21  23
ENDBRANCH  20  21
ENDBRANCH  19  20
ENDBRANCH  18  19
ENDBRANCH  16  18
ENDBRANCH  13  16
ENDBRANCH  10  13
ENDBRANCH   7  10
ENDBRANCH   4   7
ENDBRANCH   2   4
TORSDOF 17
ENDMDL
MODEL      248
REMARK 921   NORMALIZED FREE ENERGY PREDICTED BY IDOCK:   -4.15 KCAL/MOL
REMARK 922        TOTAL FREE ENERGY PREDICTED BY IDOCK:  -11.71 KCAL/MOL
REMARK 923 INTER-LIGAND FREE ENERGY PREDICTED BY IDOCK:  -10.15 KCAL/MOL
REMARK 924 INTRA-LIGAND FREE ENERGY PREDICTED BY IDOCK:   -1.57 KCAL/MOL
REMARK 927      BINDING AFFINITY PREDICTED BY RF-SCORE:    0.00 PKD
ROOT
HETATM    1  O   UNL     1     -12.768   8.474  72.928  1.00  0.00    -0.645 OA 
HETATM    2  C   UNL     1     -11.480   8.096  72.525  1.00  0.00    -0.404 C  
HETATM    3  H   UNL     1     -12.777   8.633  73.865  1.00  0.00     0.000 HD 
ENDROOT
BRANCH   2   4
HETATM    4  C   UNL     1     -11.467   7.839  71.008  1.00  0.00    -0.281 C  
HETATM    5  O   UNL     1     -11.936   8.982  70.339  1.00  0.00    -0.475 OA 
HETATM    6  H   UNL     1     -11.927   8.823  69.402  1.00  0.00     0.000 HD 
BRANCH   4   7
HETATM    7  C   UNL     1     -10.042   7.490  70.502  1.00  0.00    -0.188 C  
HETATM    8  H   UNL     1      -8.436   6.666  71.224  1.00  0.00     0.000 HD 
HETATM    9  O   UNL     1      -9.309   6.879  71.535  1.00  0.00    -0.155 OA 
BRANCH   7  10
HETATM   10  C   UNL     1     -10.079   6.539  69.277  1.00  0.00    -0.168 C  
HETATM   11  H   UNL     1     -10.188   4.631  68.994  1.00  0.00     0.000 HD 
HETATM   12  O   UNL     1     -10.165   5.214  69.744  1.00  0.00    -0.254 OA 
BRANCH  10  13
HETATM   13  C   UNL     1      -8.834   6.667  68.356  1.00  0.00    -0.121 C  
HETATM   14  H   UNL     1      -7.358   5.537  67.794  1.00  0.00     0.000 HD 
HETATM   15  O   UNL     1      -8.119   5.458  68.357  1.00  0.00    -0.091 OA 
BRANCH  13  16
HETATM   16  C   UNL     1      -9.179   7.001  66.924  1.00  0.00    -0.150 C  
HETATM   17  O   UNL     1      -8.344   6.841  66.047  1.00  0.00    -0.121 OA 
BRANCH  16  18
HETATM   18  O   UNL     1     -10.394   7.485  66.594  1.00  0.00    -0.264 OA 
BRANCH  18  19
HETATM   19 CA   UNL     1     -10.539   9.401  65.124  1.00  0.00    -0.317 Ca 
BRANCH  19  20
HETATM   20  O   UNL     1     -10.686  11.318  63.653  1.00  0.00    -0.375 OA 
BRANCH  20  21
HETATM   21  C   UNL     1     -11.798  12.009  63.955  1.00  0.00    -0.408 C  
HETATM   22  O   UNL     1     -12.757  11.903  63.209  1.00  0.00    -0.654 OA 
BRANCH  21  23
HETATM   23  C   UNL     1     -11.826  13.025  65.075  1.00  0.00    -0.362 C  
HETATM   24  H   UNL     1     -13.177  14.058  65.988  1.00  0.00     0.000 HD 
HETATM   25  O   UNL     1     -13.160  13.420  65.284  1.00  0.00    -0.687 OA 
BRANCH  23  26
HETATM   26  C   UNL     1     -10.953  14.292  64.825  1.00  0.00    -0.398 C  
HETATM   27  H   UNL     1     -11.256  16.186  64.537  1.00  0.00     0.000 HD 
HETATM   28  O   UNL     1     -11.788  15.414  64.689  1.00  0.00    -0.330 OA 
BRANCH  26  29
HETATM   29  C   UNL     1      -9.821  14.603  65.865  1.00  0.00    -0.330 C  
BRANCH  29  30
HETATM   30  O   UNL     1     -10.170  13.914  67.057  1.00  0.00    -0.250 OA 
BRANCH  30  31
HETATM   31  C   UNL     1      -9.092  13.371  67.792  1.00  0.00    -0.202 C  
HETATM   32  O   UNL     1      -8.350  14.410  68.408  1.00  0.00    -0.143 OA 
HETATM   33  C   UNL     1      -7.272  13.878  69.162  1.00  0.00    -0.038 C  
HETATM   34  H   UNL     1      -8.369  11.111  65.524  1.00  0.00     0.000 HD 
HETATM   35  C   UNL     1      -6.241  13.206  68.219  1.00  0.00    -0.092 C  
HETATM   36  O   UNL     1      -5.743  14.137  67.289  1.00  0.00    -0.297 OA 
HETATM   37  C   UNL     1      -6.945  12.052  67.475  1.00  0.00    -0.130 C  
HETATM   38  O   UNL     1      -8.916  11.578  66.143  1.00  0.00    -0.207 OA 
HETATM   39  H   UNL     1      -5.111  13.725  66.711  1.00  0.00     0.000 HD 
HETATM   40  O   UNL     1      -6.104  11.464  66.513  1.00  0.00    -0.153 OA 
HETATM   41  C   UNL     1      -8.200  12.608  66.781  1.00  0.00     0.037 C  
HETATM   42  H   UNL     1      -6.538  10.754  66.056  1.00  0.00     0.000 HD 
BRANCH  33  43
HETATM   43  C   UNL     1      -6.652  15.024  69.977  1.00  0.00    -0.158 C  
HETATM   44  O   UNL     1      -6.308  14.603  71.269  1.00  0.00    -0.055 OA 
HETATM   45  H   UNL     1      -5.925  15.311  71.772  1.00  0.00     0.000 HD 
ENDBRANCH  33  43
ENDBRANCH  30  31
ENDBRANCH  29  30
BRANCH  29  46
HETATM   46  C   UNL     1      -9.528  16.123  66.127  1.00  0.00    -0.327 C  
HETATM   47  O   UNL     1      -8.152  16.344  66.327  1.00  0.00    -0.312 OA 
HETATM   48  H   UNL     1      -7.974  17.263  66.486  1.00  0.00     0.000 HD 
BRANCH  46  49
HETATM   49  C   UNL     1     -10.393  16.776  67.230  1.00  0.00    -0.304 C  
HETATM   50  H   UNL     1     -11.264  18.494  67.561  1.00  0.00     0.000 HD 
HETATM   51  O   UNL     1     -10.733  18.092  66.883  1.00  0.00    -0.337 OA 
ENDBRANCH  46  49
ENDBRANCH  29  46
ENDBRANCH  26  29
ENDBRANCH  23  26
ENDBRANCH  21  23
ENDBRANCH  20  21
ENDBRANCH  19  20
ENDBRANCH  18  19
ENDBRANCH  16  18
ENDBRANCH  13  16
ENDBRANCH  10  13
ENDBRANCH   7  10
ENDBRANCH   4   7
ENDBRANCH   2   4
TORSDOF 17
ENDMDL
MODEL      249
REMARK 921   NORMALIZED FREE ENERGY PREDICTED BY IDOCK:   -4.15 KCAL/MOL
REMARK 922        TOTAL FREE ENERGY PREDICTED BY IDOCK:  -11.71 KCAL/MOL
REMARK 923 INTER-LIGAND FREE ENERGY PREDICTED BY IDOCK:   -9.04 KCAL/MOL
REMARK 924 INTRA-LIGAND FREE ENERGY PREDICTED BY IDOCK:   -2.67 KCAL/MOL
REMARK 927      BINDING AFFINITY PREDICTED BY RF-SCORE:    0.00 PKD
ROOT
HETATM    1  O   UNL     1     -11.912   7.783  73.206  1.00  0.00    -0.602 OA 
HETATM    2  C   UNL     1     -11.149   8.545  72.312  1.00  0.00    -0.360 C  
HETATM    3  H   UNL     1     -12.831   8.006  73.113  1.00  0.00     0.000 HD 
ENDROOT
BRANCH   2   4
HETATM    4  C   UNL     1      -9.661   8.184  72.463  1.00  0.00    -0.287 C  
HETATM    5  O   UNL     1      -9.328   8.147  73.828  1.00  0.00    -0.265 OA 
HETATM    6  H   UNL     1      -8.409   7.924  73.921  1.00  0.00     0.000 HD 
BRANCH   4   7
HETATM    7  C   UNL     1      -9.340   6.811  71.815  1.00  0.00    -0.147 C  
HETATM    8  H   UNL     1      -8.325   6.158  70.291  1.00  0.00     0.000 HD 
HETATM    9  O   UNL     1      -8.521   6.999  70.687  1.00  0.00    -0.135 OA 
BRANCH   7  10
HETATM   10  C   UNL     1      -8.623   5.856  72.806  1.00  0.00    -0.122 C  
HETATM   11  H   UNL     1      -6.982   4.836  72.823  1.00  0.00     0.000 HD 
HETATM   12  O   UNL     1      -7.421   5.421  72.216  1.00  0.00    -0.091 OA 
BRANCH  10  13
HETATM   13  C   UNL     1      -9.472   4.613  73.192  1.00  0.00    -0.124 C  
HETATM   14  H   UNL     1     -11.356   4.181  73.381  1.00  0.00     0.000 HD 
HETATM   15  O   UNL     1     -10.837   4.941  73.145  1.00  0.00    -0.232 OA 
BRANCH  13  16
HETATM   16  C   UNL     1      -9.247   3.427  72.284  1.00  0.00    -0.109 C  
HETATM   17  O   UNL     1      -8.474   2.544  72.621  1.00  0.00    -0.065 OA 
BRANCH  16  18
HETATM   18  O   UNL     1      -9.878   3.330  71.096  1.00  0.00    -0.168 OA 
BRANCH  18  19
HETATM   19 CA   UNL     1      -9.476   5.015  69.406  1.00  0.00    -0.101 Ca 
BRANCH  19  20
HETATM   20  O   UNL     1      -9.073   6.700  67.717  1.00  0.00    -0.116 OA 
BRANCH  20  21
HETATM   21  C   UNL     1     -10.256   7.133  67.249  1.00  0.00    -0.245 C  
HETATM   22  O   UNL     1     -11.187   6.346  67.234  1.00  0.00    -0.364 OA 
BRANCH  21  23
HETATM   23  C   UNL     1     -10.406   8.489  66.595  1.00  0.00    -0.233 C  
HETATM   24  H   UNL     1      -9.372   9.570  65.374  1.00  0.00     0.000 HD 
HETATM   25  O   UNL     1      -9.278   8.719  65.785  1.00  0.00    -0.214 OA 
BRANCH  23  26
HETATM   26  C   UNL     1     -10.568   9.677  67.590  1.00  0.00    -0.275 C  
HETATM   27  H   UNL     1     -10.854   9.899  69.495  1.00  0.00     0.000 HD 
HETATM   28  O   UNL     1     -10.755   9.175  68.889  1.00  0.00    -0.212 OA 
BRANCH  26  29
HETATM   29  C   UNL     1      -9.438  10.764  67.604  1.00  0.00    -0.154 C  
BRANCH  29  30
HETATM   30  O   UNL     1      -9.478  11.401  66.335  1.00  0.00    -0.193 OA 
BRANCH  30  31
HETATM   31  C   UNL     1      -9.941  12.736  66.331  1.00  0.00    -0.265 C  
HETATM   32  O   UNL     1      -9.839  13.291  67.632  1.00  0.00    -0.220 OA 
HETATM   33  C   UNL     1     -10.288  14.638  67.639  1.00  0.00    -0.233 C  
HETATM   34  H   UNL     1     -12.467  12.108  64.330  1.00  0.00     0.000 HD 
HETATM   35  C   UNL     1     -11.808  14.696  67.339  1.00  0.00    -0.348 C  
HETATM   36  O   UNL     1     -12.529  13.960  68.297  1.00  0.00    -0.440 OA 
HETATM   37  C   UNL     1     -12.047  14.099  65.936  1.00  0.00    -0.426 C  
HETATM   38  O   UNL     1     -11.558  12.134  64.603  1.00  0.00    -0.331 OA 
HETATM   39  H   UNL     1     -13.460  13.996  68.113  1.00  0.00     0.000 HD 
HETATM   40  O   UNL     1     -13.418  14.012  65.636  1.00  0.00    -0.713 OA 
HETATM   41  C   UNL     1     -11.425  12.694  65.887  1.00  0.00    -0.363 C  
HETATM   42  H   UNL     1     -13.565  13.645  64.772  1.00  0.00     0.000 HD 
BRANCH  33  43
HETATM   43  C   UNL     1      -9.944  15.244  69.009  1.00  0.00    -0.229 C  
HETATM   44  O   UNL     1     -10.884  16.213  69.388  1.00  0.00    -0.272 OA 
HETATM   45  H   UNL     1     -10.672  16.587  70.235  1.00  0.00     0.000 HD 
ENDBRANCH  33  43
ENDBRANCH  30  31
ENDBRANCH  29  30
BRANCH  29  46
HETATM   46  C   UNL     1      -7.998  10.252  67.962  1.00  0.00    -0.101 C  
HETATM   47  O   UNL     1      -8.042   9.315  69.013  1.00  0.00    -0.101 OA 
HETATM   48  H   UNL     1      -7.171   9.005  69.230  1.00  0.00     0.000 HD 
BRANCH  46  49
HETATM   49  C   UNL     1      -6.953  11.363  68.213  1.00  0.00    -0.072 C  
HETATM   50  H   UNL     1      -6.245  12.371  69.731  1.00  0.00     0.000 HD 
HETATM   51  O   UNL     1      -6.887  11.688  69.577  1.00  0.00    -0.111 OA 
ENDBRANCH  46  49
ENDBRANCH  29  46
ENDBRANCH  26  29
ENDBRANCH  23  26
ENDBRANCH  21  23
ENDBRANCH  20  21
ENDBRANCH  19  20
ENDBRANCH  18  19
ENDBRANCH  16  18
ENDBRANCH  13  16
ENDBRANCH  10  13
ENDBRANCH   7  10
ENDBRANCH   4   7
ENDBRANCH   2   4
TORSDOF 17
ENDMDL
MODEL      250
REMARK 921   NORMALIZED FREE ENERGY PREDICTED BY IDOCK:   -4.14 KCAL/MOL
REMARK 922        TOTAL FREE ENERGY PREDICTED BY IDOCK:  -11.70 KCAL/MOL
REMARK 923 INTER-LIGAND FREE ENERGY PREDICTED BY IDOCK:   -9.49 KCAL/MOL
REMARK 924 INTRA-LIGAND FREE ENERGY PREDICTED BY IDOCK:   -2.21 KCAL/MOL
REMARK 927      BINDING AFFINITY PREDICTED BY RF-SCORE:    0.00 PKD
ROOT
HETATM    1  O   UNL     1     -13.704   7.563  70.485  1.00  0.00    -0.167 OA 
HETATM    2  C   UNL     1     -13.361   7.225  71.802  1.00  0.00    -0.304 C  
HETATM    3  H   UNL     1     -14.175   6.842  70.083  1.00  0.00     0.000 HD 
ENDROOT
BRANCH   2   4
HETATM    4  C   UNL     1     -12.599   8.392  72.453  1.00  0.00    -0.316 C  
HETATM    5  O   UNL     1     -11.447   7.898  73.089  1.00  0.00    -0.545 OA 
HETATM    6  H   UNL     1     -10.977   8.618  73.491  1.00  0.00     0.000 HD 
BRANCH   4   7
HETATM    7  C   UNL     1     -12.192   9.462  71.405  1.00  0.00    -0.356 C  
HETATM    8  H   UNL     1     -12.185  11.402  71.281  1.00  0.00     0.000 HD 
HETATM    9  O   UNL     1     -12.434  10.748  71.922  1.00  0.00    -0.262 OA 
BRANCH   7  10
HETATM   10  C   UNL     1     -10.694   9.349  71.014  1.00  0.00    -0.337 C  
HETATM   11  H   UNL     1      -9.370  10.505  70.212  1.00  0.00     0.000 HD 
HETATM   12  O   UNL     1     -10.287  10.574  70.451  1.00  0.00    -0.022 OA 
BRANCH  10  13
HETATM   13  C   UNL     1     -10.404   8.209  69.999  1.00  0.00    -0.215 C  
HETATM   14  H   UNL     1     -11.087   7.632  68.275  1.00  0.00     0.000 HD 
HETATM   15  O   UNL     1     -11.264   8.329  68.895  1.00  0.00     0.207 OA 
BRANCH  13  16
HETATM   16  C   UNL     1      -8.984   8.211  69.483  1.00  0.00    -0.151 C  
HETATM   17  O   UNL     1      -8.056   8.068  70.264  1.00  0.00    -0.108 OA 
BRANCH  16  18
HETATM   18  O   UNL     1      -8.720   8.381  68.173  1.00  0.00    -0.140 OA 
BRANCH  18  19
HETATM   19 CA   UNL     1     -10.088   9.904  66.882  1.00  0.00    -0.159 Ca 
BRANCH  19  20
HETATM   20  O   UNL     1     -11.455  11.427  65.591  1.00  0.00    -0.104 OA 
BRANCH  20  21
HETATM   21  C   UNL     1     -10.727  12.519  65.299  1.00  0.00    -0.286 C  
HETATM   22  O   UNL     1     -10.621  12.837  64.127  1.00  0.00    -0.371 OA 
BRANCH  21  23
HETATM   23  C   UNL     1      -9.916  13.241  66.352  1.00  0.00    -0.288 C  
HETATM   24  H   UNL     1      -8.133  13.099  67.078  1.00  0.00     0.000 HD 
HETATM   25  O   UNL     1      -8.643  12.645  66.417  1.00  0.00    -0.021 OA 
BRANCH  23  26
HETATM   26  C   UNL     1     -10.551  13.241  67.776  1.00  0.00    -0.241 C  
HETATM   27  H   UNL     1     -10.285  12.289  69.444  1.00  0.00     0.000 HD 
HETATM   28  O   UNL     1      -9.899  12.289  68.576  1.00  0.00    -0.207 OA 
BRANCH  26  29
HETATM   29  C   UNL     1     -10.615  14.611  68.535  1.00  0.00    -0.245 C  
BRANCH  29  30
HETATM   30  O   UNL     1      -9.341  15.219  68.375  1.00  0.00    -0.186 OA 
BRANCH  30  31
HETATM   31  C   UNL     1      -9.287  16.609  68.624  1.00  0.00    -0.247 C  
HETATM   32  O   UNL     1     -10.015  17.311  67.630  1.00  0.00    -0.278 OA 
HETATM   33  C   UNL     1      -9.982  18.709  67.877  1.00  0.00    -0.350 C  
HETATM   34  H   UNL     1      -6.127  16.572  69.511  1.00  0.00     0.000 HD 
HETATM   35  C   UNL     1      -8.536  19.245  67.714  1.00  0.00    -0.305 C  
HETATM   36  O   UNL     1      -8.059  18.990  66.415  1.00  0.00    -0.280 OA 
HETATM   37  C   UNL     1      -7.637  18.535  68.747  1.00  0.00    -0.284 C  
HETATM   38  O   UNL     1      -7.042  16.323  69.542  1.00  0.00    -0.219 OA 
HETATM   39  H   UNL     1      -7.173  19.319  66.315  1.00  0.00     0.000 HD 
HETATM   40  O   UNL     1      -6.284  18.886  68.586  1.00  0.00    -0.215 OA 
HETATM   41  C   UNL     1      -7.793  17.015  68.574  1.00  0.00    -0.251 C  
HETATM   42  H   UNL     1      -5.731  18.449  69.223  1.00  0.00     0.000 HD 
BRANCH  33  43
HETATM   43  C   UNL     1     -10.964  19.385  66.907  1.00  0.00    -0.301 C  
HETATM   44  O   UNL     1     -10.685  19.039  65.577  1.00  0.00    -0.536 OA 
HETATM   45  H   UNL     1     -11.292  19.456  64.978  1.00  0.00     0.000 HD 
ENDBRANCH  33  43
ENDBRANCH  30  31
ENDBRANCH  29  30
BRANCH  29  46
HETATM   46  C   UNL     1     -11.050  14.542  70.041  1.00  0.00    -0.126 C  
HETATM   47  O   UNL     1     -11.671  13.311  70.331  1.00  0.00    -0.520 OA 
HETATM   48  H   UNL     1     -11.934  13.269  71.242  1.00  0.00     0.000 HD 
BRANCH  46  49
HETATM   49  C   UNL     1     -11.882  15.747  70.538  1.00  0.00    -0.375 C  
HETATM   50  H   UNL     1     -12.440  16.516  72.246  1.00  0.00     0.000 HD 
HETATM   51  O   UNL     1     -11.929  15.775  71.940  1.00  0.00    -0.375 OA 
ENDBRANCH  46  49
ENDBRANCH  29  46
ENDBRANCH  26  29
ENDBRANCH  23  26
ENDBRANCH  21  23
ENDBRANCH  20  21
ENDBRANCH  19  20
ENDBRANCH  18  19
ENDBRANCH  16  18
ENDBRANCH  13  16
ENDBRANCH  10  13
ENDBRANCH   7  10
ENDBRANCH   4   7
ENDBRANCH   2   4
TORSDOF 17
ENDMDL
MODEL      251
REMARK 921   NORMALIZED FREE ENERGY PREDICTED BY IDOCK:   -4.13 KCAL/MOL
REMARK 922        TOTAL FREE ENERGY PREDICTED BY IDOCK:  -11.68 KCAL/MOL
REMARK 923 INTER-LIGAND FREE ENERGY PREDICTED BY IDOCK:   -9.42 KCAL/MOL
REMARK 924 INTRA-LIGAND FREE ENERGY PREDICTED BY IDOCK:   -2.26 KCAL/MOL
REMARK 927      BINDING AFFINITY PREDICTED BY RF-SCORE:    0.00 PKD
ROOT
HETATM    1  O   UNL     1     -10.708  18.400  66.820  1.00  0.00    -0.357 OA 
HETATM    2  C   UNL     1      -9.399  17.913  66.938  1.00  0.00    -0.275 C  
HETATM    3  H   UNL     1     -10.726  19.325  67.035  1.00  0.00     0.000 HD 
ENDROOT
BRANCH   2   4
HETATM    4  C   UNL     1      -9.371  16.414  66.590  1.00  0.00    -0.259 C  
HETATM    5  O   UNL     1      -9.078  15.675  67.749  1.00  0.00    -0.180 OA 
HETATM    6  H   UNL     1      -9.060  14.749  67.534  1.00  0.00     0.000 HD 
BRANCH   4   7
HETATM    7  C   UNL     1     -10.727  15.940  66.004  1.00  0.00    -0.284 C  
HETATM    8  H   UNL     1     -11.728  16.184  64.355  1.00  0.00     0.000 HD 
HETATM    9  O   UNL     1     -10.898  16.475  64.714  1.00  0.00    -0.720 OA 
BRANCH   7  10
HETATM   10  C   UNL     1     -10.815  14.393  65.924  1.00  0.00    -0.304 C  
HETATM   11  H   UNL     1     -10.758  13.061  64.526  1.00  0.00     0.000 HD 
HETATM   12  O   UNL     1     -10.704  14.009  64.575  1.00  0.00    -0.409 OA 
BRANCH  10  13
HETATM   13  C   UNL     1     -12.136  13.817  66.504  1.00  0.00    -0.443 C  
HETATM   14  H   UNL     1     -13.722  12.928  65.820  1.00  0.00     0.000 HD 
HETATM   15  O   UNL     1     -12.914  13.280  65.465  1.00  0.00    -0.526 OA 
BRANCH  13  16
HETATM   16  C   UNL     1     -11.919  12.731  67.530  1.00  0.00    -0.281 C  
HETATM   17  O   UNL     1     -11.794  11.571  67.167  1.00  0.00    -0.595 OA 
BRANCH  16  18
HETATM   18  O   UNL     1     -11.871  13.016  68.847  1.00  0.00    -0.302 OA 
BRANCH  18  19
HETATM   19 CA   UNL     1     -12.244  11.243  70.452  1.00  0.00    -0.230 Ca 
BRANCH  19  20
HETATM   20  O   UNL     1     -12.618   9.471  72.056  1.00  0.00    -0.379 OA 
BRANCH  20  21
HETATM   21  C   UNL     1     -12.407   8.289  71.451  1.00  0.00    -0.299 C  
HETATM   22  O   UNL     1     -13.371   7.567  71.259  1.00  0.00    -0.323 OA 
BRANCH  21  23
HETATM   23  C   UNL     1     -11.013   7.775  71.169  1.00  0.00    -0.239 C  
HETATM   24  H   UNL     1      -9.837   6.447  71.929  1.00  0.00     0.000 HD 
HETATM   25  O   UNL     1     -10.712   6.770  72.106  1.00  0.00    -0.213 OA 
BRANCH  23  26
HETATM   26  C   UNL     1      -9.898   8.862  71.214  1.00  0.00    -0.291 C  
HETATM   27  H   UNL     1      -8.673   9.582  72.535  1.00  0.00     0.000 HD 
HETATM   28  O   UNL     1      -9.354   8.919  72.508  1.00  0.00    -0.308 OA 
BRANCH  26  29
HETATM   29  C   UNL     1      -8.741   8.751  70.162  1.00  0.00    -0.149 C  
BRANCH  29  30
HETATM   30  O   UNL     1      -9.234   7.936  69.108  1.00  0.00    -0.145 OA 
BRANCH  30  31
HETATM   31  C   UNL     1      -8.317   7.649  68.071  1.00  0.00    -0.124 C  
HETATM   32  O   UNL     1      -8.688   8.336  66.888  1.00  0.00    -0.128 OA 
HETATM   33  C   UNL     1      -7.767   8.068  65.842  1.00  0.00    -0.092 C  
HETATM   34  H   UNL     1      -8.054   4.472  68.856  1.00  0.00     0.000 HD 
HETATM   35  C   UNL     1      -7.843   6.574  65.433  1.00  0.00    -0.106 C  
HETATM   36  O   UNL     1      -9.142   6.246  65.004  1.00  0.00    -0.353 OA 
HETATM   37  C   UNL     1      -7.467   5.716  66.659  1.00  0.00    -0.087 C  
HETATM   38  O   UNL     1      -8.021   5.410  69.000  1.00  0.00    -0.091 OA 
HETATM   39  H   UNL     1      -9.189   5.331  64.753  1.00  0.00     0.000 HD 
HETATM   40  O   UNL     1      -7.624   4.343  66.400  1.00  0.00    -0.084 OA 
HETATM   41  C   UNL     1      -8.372   6.118  67.836  1.00  0.00    -0.117 C  
HETATM   42  H   UNL     1      -7.392   3.815  67.155  1.00  0.00     0.000 HD 
BRANCH  33  43
HETATM   43  C   UNL     1      -8.093   9.007  64.671  1.00  0.00    -0.144 C  
HETATM   44  O   UNL     1      -7.528   8.545  63.473  1.00  0.00    -0.102 OA 
HETATM   45  H   UNL     1      -7.731   9.125  62.750  1.00  0.00     0.000 HD 
ENDBRANCH  33  43
ENDBRANCH  30  31
ENDBRANCH  29  30
BRANCH  29  46
HETATM   46  C   UNL     1      -7.362   8.237  70.709  1.00  0.00    -0.056 C  
HETATM   47  O   UNL     1      -7.539   7.128  71.560  1.00  0.00    -0.086 OA 
HETATM   48  H   UNL     1      -6.705   6.817  71.890  1.00  0.00     0.000 HD 
BRANCH  46  49
HETATM   49  C   UNL     1      -6.463   9.324  71.342  1.00  0.00    -0.039 C  
HETATM   50  H   UNL     1      -5.834   9.826  73.123  1.00  0.00     0.000 HD 
HETATM   51  O   UNL     1      -6.386   9.158  72.734  1.00  0.00    -0.304 OA 
ENDBRANCH  46  49
ENDBRANCH  29  46
ENDBRANCH  26  29
ENDBRANCH  23  26
ENDBRANCH  21  23
ENDBRANCH  20  21
ENDBRANCH  19  20
ENDBRANCH  18  19
ENDBRANCH  16  18
ENDBRANCH  13  16
ENDBRANCH  10  13
ENDBRANCH   7  10
ENDBRANCH   4   7
ENDBRANCH   2   4
TORSDOF 17
ENDMDL
MODEL      252
REMARK 921   NORMALIZED FREE ENERGY PREDICTED BY IDOCK:   -4.13 KCAL/MOL
REMARK 922        TOTAL FREE ENERGY PREDICTED BY IDOCK:  -11.67 KCAL/MOL
REMARK 923 INTER-LIGAND FREE ENERGY PREDICTED BY IDOCK:   -9.20 KCAL/MOL
REMARK 924 INTRA-LIGAND FREE ENERGY PREDICTED BY IDOCK:   -2.48 KCAL/MOL
REMARK 927      BINDING AFFINITY PREDICTED BY RF-SCORE:    0.00 PKD
ROOT
HETATM    1  O   UNL     1     -14.230   6.783  71.976  1.00  0.00    -0.535 OA 
HETATM    2  C   UNL     1     -14.141   8.019  71.321  1.00  0.00    -0.226 C  
HETATM    3  H   UNL     1     -15.042   6.352  71.735  1.00  0.00     0.000 HD 
ENDROOT
BRANCH   2   4
HETATM    4  C   UNL     1     -12.827   8.717  71.711  1.00  0.00    -0.360 C  
HETATM    5  O   UNL     1     -12.749   8.813  73.111  1.00  0.00    -0.515 OA 
HETATM    6  H   UNL     1     -11.937   9.244  73.351  1.00  0.00     0.000 HD 
BRANCH   4   7
HETATM    7  C   UNL     1     -11.591   7.946  71.176  1.00  0.00    -0.280 C  
HETATM    8  H   UNL     1     -10.393   8.060  69.649  1.00  0.00     0.000 HD 
HETATM    9  O   UNL     1     -11.149   8.533  69.976  1.00  0.00    -0.236 OA 
BRANCH   7  10
HETATM   10  C   UNL     1     -10.423   7.943  72.197  1.00  0.00    -0.249 C  
HETATM   11  H   UNL     1      -8.520   8.273  72.142  1.00  0.00     0.000 HD 
HETATM   12  O   UNL     1      -9.236   8.275  71.517  1.00  0.00    -0.148 OA 
BRANCH  10  13
HETATM   13  C   UNL     1     -10.228   6.576  72.910  1.00  0.00    -0.193 C  
HETATM   14  H   UNL     1     -11.317   5.025  73.333  1.00  0.00     0.000 HD 
HETATM   15  O   UNL     1     -11.436   5.860  72.897  1.00  0.00    -0.256 OA 
BRANCH  13  16
HETATM   16  C   UNL     1      -9.169   5.710  72.270  1.00  0.00    -0.145 C  
HETATM   17  O   UNL     1      -8.347   5.140  72.971  1.00  0.00    -0.111 OA 
BRANCH  16  18
HETATM   18  O   UNL     1      -9.105   5.563  70.931  1.00  0.00    -0.140 OA 
BRANCH  18  19
HETATM   19 CA   UNL     1      -7.791   7.127  69.634  1.00  0.00    -0.093 Ca 
BRANCH  19  20
HETATM   20  O   UNL     1      -6.477   8.691  68.337  1.00  0.00    -0.054 OA 
BRANCH  20  21
HETATM   21  C   UNL     1      -7.243   9.183  67.348  1.00  0.00    -0.080 C  
HETATM   22  O   UNL     1      -7.995   8.414  66.773  1.00  0.00    -0.096 OA 
BRANCH  21  23
HETATM   23  C   UNL     1      -7.069  10.593  66.831  1.00  0.00    -0.109 C  
HETATM   24  H   UNL     1      -5.648  11.614  66.016  1.00  0.00     0.000 HD 
HETATM   25  O   UNL     1      -5.757  10.728  66.341  1.00  0.00    -0.070 OA 
BRANCH  23  26
HETATM   26  C   UNL     1      -7.335  11.710  67.885  1.00  0.00    -0.096 C  
HETATM   27  H   UNL     1      -6.548  13.414  68.372  1.00  0.00     0.000 HD 
HETATM   28  O   UNL     1      -6.386  12.734  67.729  1.00  0.00    -0.104 OA 
BRANCH  26  29
HETATM   29  C   UNL     1      -8.774  12.329  67.930  1.00  0.00    -0.177 C  
BRANCH  29  30
HETATM   30  O   UNL     1      -8.636  13.626  68.493  1.00  0.00    -0.165 OA 
BRANCH  30  31
HETATM   31  C   UNL     1      -9.465  14.628  67.940  1.00  0.00    -0.210 C  
HETATM   32  O   UNL     1     -10.408  14.048  67.054  1.00  0.00    -0.264 OA 
HETATM   33  C   UNL     1     -11.258  15.042  66.503  1.00  0.00    -0.312 C  
HETATM   34  H   UNL     1      -7.015  16.777  67.544  1.00  0.00     0.000 HD 
HETATM   35  C   UNL     1     -10.442  15.994  65.590  1.00  0.00    -0.397 C  
HETATM   36  O   UNL     1      -9.831  15.274  64.548  1.00  0.00    -0.278 OA 
HETATM   37  C   UNL     1      -9.363  16.683  66.451  1.00  0.00    -0.281 C  
HETATM   38  O   UNL     1      -7.582  16.181  68.018  1.00  0.00    -0.129 OA 
HETATM   39  H   UNL     1      -9.331  15.858  63.989  1.00  0.00     0.000 HD 
HETATM   40  O   UNL     1      -8.506  17.479  65.669  1.00  0.00    -0.451 OA 
HETATM   41  C   UNL     1      -8.538  15.600  67.166  1.00  0.00    -0.210 C  
HETATM   42  H   UNL     1      -7.842  17.904  66.199  1.00  0.00     0.000 HD 
BRANCH  33  43
HETATM   43  C   UNL     1     -12.386  14.331  65.739  1.00  0.00    -0.405 C  
HETATM   44  O   UNL     1     -12.511  12.994  66.144  1.00  0.00    -0.453 OA 
HETATM   45  H   UNL     1     -13.208  12.555  65.672  1.00  0.00     0.000 HD 
ENDBRANCH  33  43
ENDBRANCH  30  31
ENDBRANCH  29  30
BRANCH  29  46
HETATM   46  C   UNL     1      -9.865  11.478  68.671  1.00  0.00    -0.177 C  
HETATM   47  O   UNL     1      -9.280  10.644  69.644  1.00  0.00    -0.408 OA 
HETATM   48  H   UNL     1      -9.940  10.129  70.092  1.00  0.00     0.000 HD 
BRANCH  46  49
HETATM   49  C   UNL     1     -10.834  10.708  67.745  1.00  0.00    -0.286 C  
HETATM   50  H   UNL     1     -12.764  10.457  67.553  1.00  0.00     0.000 HD 
HETATM   51  O   UNL     1     -12.168  10.931  68.122  1.00  0.00    -0.503 OA 
ENDBRANCH  46  49
ENDBRANCH  29  46
ENDBRANCH  26  29
ENDBRANCH  23  26
ENDBRANCH  21  23
ENDBRANCH  20  21
ENDBRANCH  19  20
ENDBRANCH  18  19
ENDBRANCH  16  18
ENDBRANCH  13  16
ENDBRANCH  10  13
ENDBRANCH   7  10
ENDBRANCH   4   7
ENDBRANCH   2   4
TORSDOF 17
ENDMDL
MODEL      253
REMARK 921   NORMALIZED FREE ENERGY PREDICTED BY IDOCK:   -4.12 KCAL/MOL
REMARK 922        TOTAL FREE ENERGY PREDICTED BY IDOCK:  -11.65 KCAL/MOL
REMARK 923 INTER-LIGAND FREE ENERGY PREDICTED BY IDOCK:   -8.52 KCAL/MOL
REMARK 924 INTRA-LIGAND FREE ENERGY PREDICTED BY IDOCK:   -3.13 KCAL/MOL
REMARK 927      BINDING AFFINITY PREDICTED BY RF-SCORE:    0.00 PKD
ROOT
HETATM    1  O   UNL     1     -11.694  11.629  66.954  1.00  0.00    -0.552 OA 
HETATM    2  C   UNL     1     -11.225  12.294  65.812  1.00  0.00    -0.337 C  
HETATM    3  H   UNL     1     -12.166  10.846  66.696  1.00  0.00     0.000 HD 
ENDROOT
BRANCH   2   4
HETATM    4  C   UNL     1     -10.461  13.562  66.229  1.00  0.00    -0.290 C  
HETATM    5  O   UNL     1      -9.832  14.117  65.101  1.00  0.00    -0.566 OA 
HETATM    6  H   UNL     1      -9.360  14.901  65.358  1.00  0.00     0.000 HD 
BRANCH   4   7
HETATM    7  C   UNL     1     -11.408  14.615  66.863  1.00  0.00    -0.356 C  
HETATM    8  H   UNL     1     -13.324  14.850  67.095  1.00  0.00     0.000 HD 
HETATM    9  O   UNL     1     -12.745  14.205  66.707  1.00  0.00    -0.178 OA 
BRANCH   7  10
HETATM   10  C   UNL     1     -11.117  14.822  68.373  1.00  0.00    -0.263 C  
HETATM   11  H   UNL     1      -9.638  14.484  69.569  1.00  0.00     0.000 HD 
HETATM   12  O   UNL     1      -9.817  14.357  68.644  1.00  0.00    -0.227 OA 
BRANCH  10  13
HETATM   13  C   UNL     1     -12.119  14.085  69.304  1.00  0.00    -0.338 C  
HETATM   14  H   UNL     1     -12.359  12.286  69.995  1.00  0.00     0.000 HD 
HETATM   15  O   UNL     1     -11.746  12.737  69.425  1.00  0.00    -0.292 OA 
BRANCH  13  16
HETATM   16  C   UNL     1     -12.192  14.674  70.693  1.00  0.00    -0.325 C  
HETATM   17  O   UNL     1     -11.740  15.789  70.902  1.00  0.00    -0.337 OA 
BRANCH  16  18
HETATM   18  O   UNL     1     -12.740  13.984  71.713  1.00  0.00    -0.325 OA 
BRANCH  18  19
HETATM   19 CA   UNL     1     -13.210  11.628  71.426  1.00  0.00    -0.332 Ca 
BRANCH  19  20
HETATM   20  O   UNL     1     -13.680   9.271  71.138  1.00  0.00    -0.296 OA 
BRANCH  20  21
HETATM   21  C   UNL     1     -12.815   8.564  71.886  1.00  0.00    -0.363 C  
HETATM   22  O   UNL     1     -12.349   9.099  72.878  1.00  0.00    -0.022 OA 
BRANCH  21  23
HETATM   23  C   UNL     1     -12.290   7.219  71.439  1.00  0.00    -0.368 C  
HETATM   24  H   UNL     1     -12.739   5.369  71.761  1.00  0.00     0.000 HD 
HETATM   25  O   UNL     1     -13.069   6.214  72.042  1.00  0.00     0.041 OA 
BRANCH  23  26
HETATM   26  C   UNL     1     -10.788   6.964  71.771  1.00  0.00    -0.225 C  
HETATM   27  H   UNL     1      -9.675   5.440  72.218  1.00  0.00     0.000 HD 
HETATM   28  O   UNL     1     -10.591   5.595  72.017  1.00  0.00    -0.215 OA 
BRANCH  26  29
HETATM   29  C   UNL     1      -9.726   7.470  70.734  1.00  0.00    -0.174 C  
BRANCH  29  30
HETATM   30  O   UNL     1      -8.877   6.366  70.457  1.00  0.00    -0.142 OA 
BRANCH  30  31
HETATM   31  C   UNL     1      -8.391   6.281  69.133  1.00  0.00    -0.120 C  
HETATM   32  O   UNL     1      -7.651   7.446  68.809  1.00  0.00    -0.101 OA 
HETATM   33  C   UNL     1      -7.144   7.367  67.486  1.00  0.00    -0.088 C  
HETATM   34  H   UNL     1     -11.147   4.946  67.950  1.00  0.00     0.000 HD 
HETATM   35  C   UNL     1      -8.311   7.382  66.465  1.00  0.00    -0.124 C  
HETATM   36  O   UNL     1      -9.071   8.558  66.602  1.00  0.00    -0.146 OA 
HETATM   37  C   UNL     1      -9.202   6.151  66.730  1.00  0.00    -0.135 C  
HETATM   38  O   UNL     1     -10.389   5.019  68.517  1.00  0.00    -0.124 OA 
HETATM   39  H   UNL     1      -9.786   8.567  65.976  1.00  0.00     0.000 HD 
HETATM   40  O   UNL     1     -10.349   6.156  65.916  1.00  0.00    -0.347 OA 
HETATM   41  C   UNL     1      -9.628   6.162  68.208  1.00  0.00    -0.120 C  
HETATM   42  H   UNL     1     -10.898   5.398  66.079  1.00  0.00     0.000 HD 
BRANCH  33  43
HETATM   43  C   UNL     1      -6.176   8.543  67.278  1.00  0.00    -0.056 C  
HETATM   44  O   UNL     1      -6.536   9.644  68.069  1.00  0.00    -0.056 OA 
HETATM   45  H   UNL     1      -5.938  10.370  67.941  1.00  0.00     0.000 HD 
ENDBRANCH  33  43
ENDBRANCH  30  31
ENDBRANCH  29  30
BRANCH  29  46
HETATM   46  C   UNL     1      -8.916   8.749  71.150  1.00  0.00    -0.222 C  
HETATM   47  O   UNL     1      -8.832   9.663  70.081  1.00  0.00    -0.213 OA 
HETATM   48  H   UNL     1      -8.342  10.436  70.333  1.00  0.00     0.000 HD 
BRANCH  46  49
HETATM   49  C   UNL     1      -7.537   8.469  71.791  1.00  0.00    -0.114 C  
HETATM   50  H   UNL     1      -5.684   9.045  71.550  1.00  0.00     0.000 HD 
HETATM   51  O   UNL     1      -6.532   9.216  71.156  1.00  0.00    -0.072 OA 
ENDBRANCH  46  49
ENDBRANCH  29  46
ENDBRANCH  26  29
ENDBRANCH  23  26
ENDBRANCH  21  23
ENDBRANCH  20  21
ENDBRANCH  19  20
ENDBRANCH  18  19
ENDBRANCH  16  18
ENDBRANCH  13  16
ENDBRANCH  10  13
ENDBRANCH   7  10
ENDBRANCH   4   7
ENDBRANCH   2   4
TORSDOF 17
ENDMDL
MODEL      254
REMARK 921   NORMALIZED FREE ENERGY PREDICTED BY IDOCK:   -4.11 KCAL/MOL
REMARK 922        TOTAL FREE ENERGY PREDICTED BY IDOCK:  -11.64 KCAL/MOL
REMARK 923 INTER-LIGAND FREE ENERGY PREDICTED BY IDOCK:   -8.79 KCAL/MOL
REMARK 924 INTRA-LIGAND FREE ENERGY PREDICTED BY IDOCK:   -2.86 KCAL/MOL
REMARK 927      BINDING AFFINITY PREDICTED BY RF-SCORE:    0.00 PKD
ROOT
HETATM    1  O   UNL     1     -13.865  15.378  70.591  1.00  0.00    -0.809 OA 
HETATM    2  C   UNL     1     -12.496  15.311  70.885  1.00  0.00    -0.388 C  
HETATM    3  H   UNL     1     -14.232  16.174  70.958  1.00  0.00     0.000 HD 
ENDROOT
BRANCH   2   4
HETATM    4  C   UNL     1     -11.903  14.022  70.291  1.00  0.00    -0.303 C  
HETATM    5  O   UNL     1     -12.554  12.909  70.852  1.00  0.00    -0.343 OA 
HETATM    6  H   UNL     1     -12.187  12.113  70.486  1.00  0.00     0.000 HD 
BRANCH   4   7
HETATM    7  C   UNL     1     -12.051  13.984  68.747  1.00  0.00    -0.303 C  
HETATM    8  H   UNL     1     -11.976  15.255  67.278  1.00  0.00     0.000 HD 
HETATM    9  O   UNL     1     -11.885  15.279  68.224  1.00  0.00    -0.336 OA 
BRANCH   7  10
HETATM   10  C   UNL     1     -11.014  13.036  68.088  1.00  0.00    -0.244 C  
HETATM   11  H   UNL     1      -9.495  13.231  66.911  1.00  0.00     0.000 HD 
HETATM   12  O   UNL     1     -10.130  13.811  67.315  1.00  0.00    -0.235 OA 
BRANCH  10  13
HETATM   13  C   UNL     1     -11.656  11.950  67.181  1.00  0.00    -0.290 C  
HETATM   14  H   UNL     1     -12.794  11.903  65.608  1.00  0.00     0.000 HD 
HETATM   15  O   UNL     1     -12.401  12.567  66.163  1.00  0.00    -0.596 OA 
BRANCH  13  16
HETATM   16  C   UNL     1     -10.644  11.038  66.529  1.00  0.00    -0.254 C  
HETATM   17  O   UNL     1     -10.557  11.003  65.311  1.00  0.00    -0.268 OA 
BRANCH  16  18
HETATM   18  O   UNL     1      -9.839  10.249  67.268  1.00  0.00    -0.171 OA 
BRANCH  18  19
HETATM   19 CA   UNL     1     -10.794   8.361  68.444  1.00  0.00    -0.206 Ca 
BRANCH  19  20
HETATM   20  O   UNL     1     -11.749   6.474  69.619  1.00  0.00    -0.357 OA 
BRANCH  20  21
HETATM   21  C   UNL     1     -11.326   6.501  70.895  1.00  0.00    -0.337 C  
HETATM   22  O   UNL     1     -12.159   6.372  71.775  1.00  0.00    -0.340 OA 
BRANCH  21  23
HETATM   23  C   UNL     1      -9.900   6.855  71.254  1.00  0.00    -0.175 C  
HETATM   24  H   UNL     1      -8.758   6.645  72.797  1.00  0.00     0.000 HD 
HETATM   25  O   UNL     1      -9.653   6.423  72.571  1.00  0.00    -0.153 OA 
BRANCH  23  26
HETATM   26  C   UNL     1      -9.558   8.372  71.145  1.00  0.00    -0.177 C  
HETATM   27  H   UNL     1      -9.022   9.793  72.349  1.00  0.00     0.000 HD 
HETATM   28  O   UNL     1      -9.230   8.869  72.417  1.00  0.00    -0.362 OA 
BRANCH  26  29
HETATM   29  C   UNL     1      -8.450   8.787  70.116  1.00  0.00    -0.137 C  
BRANCH  29  30
HETATM   30  O   UNL     1      -8.000   7.587  69.505  1.00  0.00    -0.120 OA 
BRANCH  30  31
HETATM   31  C   UNL     1      -8.267   7.462  68.123  1.00  0.00    -0.124 C  
HETATM   32  O   UNL     1      -9.037   6.297  67.878  1.00  0.00    -0.114 OA 
HETATM   33  C   UNL     1      -9.326   6.167  66.494  1.00  0.00    -0.153 C  
HETATM   34  H   UNL     1      -5.265   8.424  67.208  1.00  0.00     0.000 HD 
HETATM   35  C   UNL     1      -8.020   5.912  65.698  1.00  0.00    -0.118 C  
HETATM   36  O   UNL     1      -7.385   4.742  66.153  1.00  0.00    -0.075 OA 
HETATM   37  C   UNL     1      -7.086   7.124  65.900  1.00  0.00    -0.069 C  
HETATM   38  O   UNL     1      -6.104   8.491  67.646  1.00  0.00    -0.046 OA 
HETATM   39  H   UNL     1      -6.585   4.586  65.665  1.00  0.00     0.000 HD 
HETATM   40  O   UNL     1      -5.831   6.917  65.300  1.00  0.00    -0.034 OA 
HETATM   41  C   UNL     1      -6.896   7.352  67.409  1.00  0.00    -0.078 C  
HETATM   42  H   UNL     1      -5.256   7.663  65.424  1.00  0.00     0.000 HD 
BRANCH  33  43
HETATM   43  C   UNL     1     -10.339   5.024  66.327  1.00  0.00    -0.291 C  
HETATM   44  O   UNL     1      -9.919   3.868  67.002  1.00  0.00    -0.297 OA 
HETATM   45  H   UNL     1     -10.545   3.162  66.899  1.00  0.00     0.000 HD 
ENDBRANCH  33  43
ENDBRANCH  30  31
ENDBRANCH  29  30
BRANCH  29  46
HETATM   46  C   UNL     1      -7.264   9.638  70.691  1.00  0.00    -0.103 C  
HETATM   47  O   UNL     1      -6.777  10.542  69.727  1.00  0.00    -0.092 OA 
HETATM   48  H   UNL     1      -6.059  11.057  70.075  1.00  0.00     0.000 HD 
BRANCH  46  49
HETATM   49  C   UNL     1      -6.130   8.818  71.349  1.00  0.00    -0.056 C  
HETATM   50  H   UNL     1      -5.184   8.766  73.059  1.00  0.00     0.000 HD 
HETATM   51  O   UNL     1      -5.881   9.269  72.655  1.00  0.00    -0.230 OA 
ENDBRANCH  46  49
ENDBRANCH  29  46
ENDBRANCH  26  29
ENDBRANCH  23  26
ENDBRANCH  21  23
ENDBRANCH  20  21
ENDBRANCH  19  20
ENDBRANCH  18  19
ENDBRANCH  16  18
ENDBRANCH  13  16
ENDBRANCH  10  13
ENDBRANCH   7  10
ENDBRANCH   4   7
ENDBRANCH   2   4
TORSDOF 17
ENDMDL
MODEL      255
REMARK 921   NORMALIZED FREE ENERGY PREDICTED BY IDOCK:   -4.11 KCAL/MOL
REMARK 922        TOTAL FREE ENERGY PREDICTED BY IDOCK:  -11.63 KCAL/MOL
REMARK 923 INTER-LIGAND FREE ENERGY PREDICTED BY IDOCK:  -10.80 KCAL/MOL
REMARK 924 INTRA-LIGAND FREE ENERGY PREDICTED BY IDOCK:   -0.84 KCAL/MOL
REMARK 927      BINDING AFFINITY PREDICTED BY RF-SCORE:    0.00 PKD
ROOT
HETATM    1  O   UNL     1      -9.680   4.815  73.196  1.00  0.00    -0.136 OA 
HETATM    2  C   UNL     1     -10.245   4.310  72.016  1.00  0.00    -0.150 C  
HETATM    3  H   UNL     1      -9.290   4.105  73.693  1.00  0.00     0.000 HD 
ENDROOT
BRANCH   2   4
HETATM    4  C   UNL     1     -10.875   5.459  71.211  1.00  0.00    -0.131 C  
HETATM    5  O   UNL     1     -11.868   6.081  71.989  1.00  0.00    -0.303 OA 
HETATM    6  H   UNL     1     -12.257   6.791  71.491  1.00  0.00     0.000 HD 
BRANCH   4   7
HETATM    7  C   UNL     1      -9.814   6.510  70.790  1.00  0.00    -0.184 C  
HETATM    8  H   UNL     1      -8.230   6.561  69.663  1.00  0.00     0.000 HD 
HETATM    9  O   UNL     1      -8.880   5.917  69.921  1.00  0.00    -0.127 OA 
BRANCH   7  10
HETATM   10  C   UNL     1     -10.457   7.733  70.084  1.00  0.00    -0.231 C  
HETATM   11  H   UNL     1     -10.378   8.531  68.327  1.00  0.00     0.000 HD 
HETATM   12  O   UNL     1      -9.984   7.782  68.759  1.00  0.00    -0.166 OA 
BRANCH  10  13
HETATM   13  C   UNL     1     -10.142   9.085  70.780  1.00  0.00    -0.241 C  
HETATM   14  H   UNL     1     -11.038  10.296  72.007  1.00  0.00     0.000 HD 
HETATM   15  O   UNL     1     -11.230   9.469  71.581  1.00  0.00    -0.378 OA 
BRANCH  13  16
HETATM   16  C   UNL     1      -8.914   9.037  71.659  1.00  0.00    -0.074 C  
HETATM   17  O   UNL     1      -9.024   8.733  72.836  1.00  0.00    -0.337 OA 
BRANCH  16  18
HETATM   18  O   UNL     1      -7.695   9.335  71.168  1.00  0.00    -0.282 OA 
BRANCH  18  19
HETATM   19 CA   UNL     1      -7.212  11.616  70.515  1.00  0.00    -0.338 Ca 
BRANCH  19  20
HETATM   20  O   UNL     1      -6.730  13.895  69.864  1.00  0.00    -0.074 OA 
BRANCH  20  21
HETATM   21  C   UNL     1      -7.383  14.166  68.721  1.00  0.00    -0.128 C  
HETATM   22  O   UNL     1      -6.880  13.794  67.674  1.00  0.00    -0.161 OA 
BRANCH  21  23
HETATM   23  C   UNL     1      -8.610  15.050  68.694  1.00  0.00    -0.174 C  
HETATM   24  H   UNL     1      -9.481  16.262  69.918  1.00  0.00     0.000 HD 
HETATM   25  O   UNL     1      -8.712  15.706  69.934  1.00  0.00    -0.102 OA 
BRANCH  23  26
HETATM   26  C   UNL     1      -9.946  14.301  68.404  1.00  0.00    -0.240 C  
HETATM   27  H   UNL     1     -11.426  13.594  69.438  1.00  0.00     0.000 HD 
HETATM   28  O   UNL     1     -10.611  14.050  69.615  1.00  0.00    -0.012 OA 
BRANCH  26  29
HETATM   29  C   UNL     1     -10.937  14.966  67.387  1.00  0.00    -0.314 C  
BRANCH  29  30
HETATM   30  O   UNL     1     -12.091  14.139  67.354  1.00  0.00    -0.402 OA 
BRANCH  30  31
HETATM   31  C   UNL     1     -11.973  12.946  66.605  1.00  0.00    -0.366 C  
HETATM   32  O   UNL     1     -10.694  12.369  66.806  1.00  0.00    -0.228 OA 
HETATM   33  C   UNL     1     -10.566  11.161  66.072  1.00  0.00    -0.239 C  
HETATM   34  H   UNL     1     -13.521  14.157  63.976  1.00  0.00     0.000 HD 
HETATM   35  C   UNL     1     -10.595  11.458  64.550  1.00  0.00    -0.328 C  
HETATM   36  O   UNL     1      -9.549  12.330  64.197  1.00  0.00    -0.524 OA 
HETATM   37  C   UNL     1     -11.952  12.107  64.208  1.00  0.00    -0.380 C  
HETATM   38  O   UNL     1     -13.411  13.921  64.888  1.00  0.00    -0.445 OA 
HETATM   39  H   UNL     1      -9.567  12.511  63.264  1.00  0.00     0.000 HD 
HETATM   40  O   UNL     1     -12.011  12.510  62.862  1.00  0.00    -0.610 OA 
HETATM   41  C   UNL     1     -12.153  13.333  65.115  1.00  0.00    -0.413 C  
HETATM   42  H   UNL     1     -12.847  12.910  62.652  1.00  0.00     0.000 HD 
BRANCH  33  43
HETATM   43  C   UNL     1      -9.260  10.479  66.505  1.00  0.00    -0.161 C  
HETATM   44  O   UNL     1      -8.207  11.402  66.592  1.00  0.00    -0.159 OA 
HETATM   45  H   UNL     1      -7.400  10.980  66.860  1.00  0.00     0.000 HD 
ENDBRANCH  33  43
ENDBRANCH  30  31
ENDBRANCH  29  30
BRANCH  29  46
HETATM   46  C   UNL     1     -10.366  15.239  65.951  1.00  0.00    -0.329 C  
HETATM   47  O   UNL     1      -9.049  14.753  65.830  1.00  0.00    -0.500 OA 
HETATM   48  H   UNL     1      -8.704  14.918  64.962  1.00  0.00     0.000 HD 
BRANCH  46  49
HETATM   49  C   UNL     1     -10.497  16.701  65.462  1.00  0.00    -0.267 C  
HETATM   50  H   UNL     1     -11.312  17.660  63.967  1.00  0.00     0.000 HD 
HETATM   51  O   UNL     1     -11.231  16.763  64.268  1.00  0.00    -1.163 OA 
ENDBRANCH  46  49
ENDBRANCH  29  46
ENDBRANCH  26  29
ENDBRANCH  23  26
ENDBRANCH  21  23
ENDBRANCH  20  21
ENDBRANCH  19  20
ENDBRANCH  18  19
ENDBRANCH  16  18
ENDBRANCH  13  16
ENDBRANCH  10  13
ENDBRANCH   7  10
ENDBRANCH   4   7
ENDBRANCH   2   4
TORSDOF 17
ENDMDL
MODEL      256
REMARK 921   NORMALIZED FREE ENERGY PREDICTED BY IDOCK:   -4.10 KCAL/MOL
REMARK 922        TOTAL FREE ENERGY PREDICTED BY IDOCK:  -11.62 KCAL/MOL
REMARK 923 INTER-LIGAND FREE ENERGY PREDICTED BY IDOCK:   -9.07 KCAL/MOL
REMARK 924 INTRA-LIGAND FREE ENERGY PREDICTED BY IDOCK:   -2.55 KCAL/MOL
REMARK 927      BINDING AFFINITY PREDICTED BY RF-SCORE:    0.00 PKD
ROOT
HETATM    1  O   UNL     1      -8.670  13.480  68.268  1.00  0.00    -0.172 OA 
HETATM    2  C   UNL     1      -9.080  13.920  67.002  1.00  0.00    -0.250 C  
HETATM    3  H   UNL     1      -8.600  12.532  68.269  1.00  0.00     0.000 HD 
ENDROOT
BRANCH   2   4
HETATM    4  C   UNL     1      -9.192  15.455  66.999  1.00  0.00    -0.225 C  
HETATM    5  O   UNL     1      -8.275  15.986  66.075  1.00  0.00    -0.228 OA 
HETATM    6  H   UNL     1      -8.345  16.933  66.074  1.00  0.00     0.000 HD 
BRANCH   4   7
HETATM    7  C   UNL     1     -10.626  15.921  66.631  1.00  0.00    -0.305 C  
HETATM    8  H   UNL     1     -11.688  17.539  66.815  1.00  0.00     0.000 HD 
HETATM    9  O   UNL     1     -10.810  17.254  67.041  1.00  0.00    -0.202 OA 
BRANCH   7  10
HETATM   10  C   UNL     1     -10.895  15.818  65.107  1.00  0.00    -0.428 C  
HETATM   11  H   UNL     1     -11.324  17.047  63.679  1.00  0.00     0.000 HD 
HETATM   12  O   UNL     1     -11.159  17.110  64.613  1.00  0.00    -1.036 OA 
BRANCH  10  13
HETATM   13  C   UNL     1     -12.089  14.890  64.750  1.00  0.00    -0.331 C  
HETATM   14  H   UNL     1     -13.762  15.035  63.774  1.00  0.00     0.000 HD 
HETATM   15  O   UNL     1     -13.032  15.603  63.992  1.00  0.00    -0.455 OA 
BRANCH  13  16
HETATM   16  C   UNL     1     -11.684  13.669  63.959  1.00  0.00    -0.364 C  
HETATM   17  O   UNL     1     -12.431  13.231  63.097  1.00  0.00    -0.696 OA 
BRANCH  16  18
HETATM   18  O   UNL     1     -10.514  13.043  64.194  1.00  0.00    -0.413 OA 
BRANCH  18  19
HETATM   19 CA   UNL     1     -10.453  11.214  65.778  1.00  0.00    -0.212 Ca 
BRANCH  19  20
HETATM   20  O   UNL     1     -10.391   9.386  67.361  1.00  0.00    -0.228 OA 
BRANCH  20  21
HETATM   21  C   UNL     1      -9.340   9.560  68.181  1.00  0.00    -0.133 C  
HETATM   22  O   UNL     1      -9.138  10.679  68.620  1.00  0.00    -0.154 OA 
BRANCH  21  23
HETATM   23  C   UNL     1      -8.328   8.462  68.423  1.00  0.00    -0.131 C  
HETATM   24  H   UNL     1      -6.728   7.823  67.552  1.00  0.00     0.000 HD 
HETATM   25  O   UNL     1      -7.364   8.512  67.400  1.00  0.00    -0.086 OA 
BRANCH  23  26
HETATM   26  C   UNL     1      -8.929   7.025  68.486  1.00  0.00    -0.122 C  
HETATM   27  H   UNL     1      -9.238   5.565  67.248  1.00  0.00     0.000 HD 
HETATM   28  O   UNL     1      -8.872   6.441  67.210  1.00  0.00    -0.110 OA 
BRANCH  26  29
HETATM   29  C   UNL     1      -8.326   6.038  69.544  1.00  0.00    -0.115 C  
BRANCH  29  30
HETATM   30  O   UNL     1      -7.809   6.843  70.594  1.00  0.00    -0.098 OA 
BRANCH  30  31
HETATM   31  C   UNL     1      -8.365   6.617  71.873  1.00  0.00    -0.114 C  
HETATM   32  O   UNL     1      -8.749   5.259  72.005  1.00  0.00    -0.128 OA 
HETATM   33  C   UNL     1      -9.296   5.014  73.292  1.00  0.00    -0.130 C  
HETATM   34  H   UNL     1     -10.019   9.452  71.920  1.00  0.00     0.000 HD 
HETATM   35  C   UNL     1     -10.631   5.786  73.460  1.00  0.00    -0.269 C  
HETATM   36  O   UNL     1     -11.557   5.390  72.478  1.00  0.00    -0.249 OA 
HETATM   37  C   UNL     1     -10.338   7.295  73.322  1.00  0.00    -0.342 C  
HETATM   38  O   UNL     1      -9.258   8.890  71.849  1.00  0.00    -0.310 OA 
HETATM   39  H   UNL     1     -12.374   5.864  72.581  1.00  0.00     0.000 HD 
HETATM   40  O   UNL     1     -11.519   8.058  73.350  1.00  0.00    -0.448 OA 
HETATM   41  C   UNL     1      -9.608   7.534  71.990  1.00  0.00    -0.154 C  
HETATM   42  H   UNL     1     -11.338   8.986  73.265  1.00  0.00     0.000 HD 
BRANCH  33  43
HETATM   43  C   UNL     1      -9.481   3.496  73.448  1.00  0.00    -0.103 C  
HETATM   44  O   UNL     1      -9.769   2.889  72.217  1.00  0.00    -0.132 OA 
HETATM   45  H   UNL     1      -9.883   1.952  72.313  1.00  0.00     0.000 HD 
ENDBRANCH  33  43
ENDBRANCH  30  31
ENDBRANCH  29  30
BRANCH  29  46
HETATM   46  C   UNL     1      -7.263   5.018  69.004  1.00  0.00    -0.054 C  
HETATM   47  O   UNL     1      -6.502   5.586  67.963  1.00  0.00    -0.040 OA 
HETATM   48  H   UNL     1      -5.859   4.969  67.636  1.00  0.00     0.000 HD 
BRANCH  46  49
HETATM   49  C   UNL     1      -7.823   3.627  68.628  1.00  0.00    -0.055 C  
HETATM   50  H   UNL     1      -8.522   2.050  69.547  1.00  0.00     0.000 HD 
HETATM   51  O   UNL     1      -8.178   2.905  69.778  1.00  0.00    -0.044 OA 
ENDBRANCH  46  49
ENDBRANCH  29  46
ENDBRANCH  26  29
ENDBRANCH  23  26
ENDBRANCH  21  23
ENDBRANCH  20  21
ENDBRANCH  19  20
ENDBRANCH  18  19
ENDBRANCH  16  18
ENDBRANCH  13  16
ENDBRANCH  10  13
ENDBRANCH   7  10
ENDBRANCH   4   7
ENDBRANCH   2   4
TORSDOF 17
ENDMDL
MODEL      257
REMARK 921   NORMALIZED FREE ENERGY PREDICTED BY IDOCK:   -4.07 KCAL/MOL
REMARK 922        TOTAL FREE ENERGY PREDICTED BY IDOCK:  -11.56 KCAL/MOL
REMARK 923 INTER-LIGAND FREE ENERGY PREDICTED BY IDOCK:   -9.42 KCAL/MOL
REMARK 924 INTRA-LIGAND FREE ENERGY PREDICTED BY IDOCK:   -2.14 KCAL/MOL
REMARK 927      BINDING AFFINITY PREDICTED BY RF-SCORE:    0.00 PKD
ROOT
HETATM    1  O   UNL     1     -11.419  15.803  71.642  1.00  0.00    -0.395 OA 
HETATM    2  C   UNL     1     -11.451  15.745  70.242  1.00  0.00    -0.359 C  
HETATM    3  H   UNL     1     -12.302  15.736  71.985  1.00  0.00     0.000 HD 
ENDROOT
BRANCH   2   4
HETATM    4  C   UNL     1     -10.020  15.853  69.687  1.00  0.00    -0.255 C  
HETATM    5  O   UNL     1      -9.416  14.584  69.708  1.00  0.00    -0.307 OA 
HETATM    6  H   UNL     1      -8.533  14.651  69.365  1.00  0.00     0.000 HD 
BRANCH   4   7
HETATM    7  C   UNL     1     -10.012  16.405  68.237  1.00  0.00    -0.243 C  
HETATM    8  H   UNL     1     -11.319  16.763  66.842  1.00  0.00     0.000 HD 
HETATM    9  O   UNL     1     -11.324  16.425  67.730  1.00  0.00    -0.194 OA 
BRANCH   7  10
HETATM   10  C   UNL     1      -9.421  17.839  68.166  1.00  0.00    -0.282 C  
HETATM   11  H   UNL     1     -10.048  19.627  68.542  1.00  0.00     0.000 HD 
HETATM   12  O   UNL     1     -10.409  18.749  68.585  1.00  0.00    -0.351 OA 
BRANCH  10  13
HETATM   13  C   UNL     1      -8.940  18.239  66.744  1.00  0.00    -0.284 C  
HETATM   14  H   UNL     1      -8.362  17.329  65.129  1.00  0.00     0.000 HD 
HETATM   15  O   UNL     1      -8.657  17.084  65.998  1.00  0.00    -0.473 OA 
BRANCH  13  16
HETATM   16  C   UNL     1      -9.954  19.052  65.974  1.00  0.00    -0.288 C  
HETATM   17  O   UNL     1      -9.911  20.272  66.018  1.00  0.00    -0.422 OA 
BRANCH  16  18
HETATM   18  O   UNL     1     -10.916  18.454  65.244  1.00  0.00    -0.563 OA 
BRANCH  18  19
HETATM   19 CA   UNL     1     -11.364  16.100  65.586  1.00  0.00    -0.299 Ca 
BRANCH  19  20
HETATM   20  O   UNL     1     -11.812  13.747  65.928  1.00  0.00    -0.348 OA 
BRANCH  20  21
HETATM   21  C   UNL     1     -10.648  13.114  66.153  1.00  0.00    -0.279 C  
HETATM   22  O   UNL     1      -9.882  12.979  65.213  1.00  0.00    -0.203 OA 
BRANCH  21  23
HETATM   23  C   UNL     1     -10.353  12.431  67.469  1.00  0.00    -0.215 C  
HETATM   24  H   UNL     1      -8.844  11.526  68.263  1.00  0.00     0.000 HD 
HETATM   25  O   UNL     1      -9.029  11.955  67.436  1.00  0.00    -0.163 OA 
BRANCH  23  26
HETATM   26  C   UNL     1     -11.309  11.251  67.819  1.00  0.00    -0.285 C  
HETATM   27  H   UNL     1     -12.112   9.754  66.883  1.00  0.00     0.000 HD 
HETATM   28  O   UNL     1     -11.529  10.474  66.670  1.00  0.00    -0.025 OA 
BRANCH  26  29
HETATM   29  C   UNL     1     -10.898  10.321  69.012  1.00  0.00    -0.230 C  
BRANCH  29  30
HETATM   30  O   UNL     1     -11.007   8.987  68.538  1.00  0.00    -0.073 OA 
BRANCH  30  31
HETATM   31  C   UNL     1      -9.847   8.190  68.669  1.00  0.00    -0.183 C  
HETATM   32  O   UNL     1      -8.687   8.987  68.495  1.00  0.00    -0.132 OA 
HETATM   33  C   UNL     1      -7.513   8.201  68.640  1.00  0.00    -0.098 C  
HETATM   34  H   UNL     1     -11.114   5.648  67.024  1.00  0.00     0.000 HD 
HETATM   35  C   UNL     1      -7.418   7.167  67.488  1.00  0.00    -0.101 C  
HETATM   36  O   UNL     1      -7.393   7.818  66.241  1.00  0.00    -0.076 OA 
HETATM   37  C   UNL     1      -8.650   6.241  67.567  1.00  0.00    -0.107 C  
HETATM   38  O   UNL     1     -11.070   6.311  67.702  1.00  0.00    -0.341 OA 
HETATM   39  H   UNL     1      -7.335   7.184  65.536  1.00  0.00     0.000 HD 
HETATM   40  O   UNL     1      -8.695   5.344  66.485  1.00  0.00    -0.115 OA 
HETATM   41  C   UNL     1      -9.919   7.108  67.562  1.00  0.00    -0.167 C  
HETATM   42  H   UNL     1      -9.453   4.773  66.534  1.00  0.00     0.000 HD 
BRANCH  33  43
HETATM   43  C   UNL     1      -6.307   9.153  68.665  1.00  0.00    -0.049 C  
HETATM   44  O   UNL     1      -6.247   9.868  69.870  1.00  0.00    -0.045 OA 
HETATM   45  H   UNL     1      -5.502  10.456  69.886  1.00  0.00     0.000 HD 
ENDBRANCH  33  43
ENDBRANCH  30  31
ENDBRANCH  29  30
BRANCH  29  46
HETATM   46  C   UNL     1     -11.685  10.537  70.353  1.00  0.00    -0.344 C  
HETATM   47  O   UNL     1     -12.788   9.664  70.437  1.00  0.00    -0.510 OA 
HETATM   48  H   UNL     1     -13.264   9.794  71.248  1.00  0.00     0.000 HD 
BRANCH  46  49
HETATM   49  C   UNL     1     -12.075  12.002  70.655  1.00  0.00    -0.274 C  
HETATM   50  H   UNL     1     -13.137  12.976  71.975  1.00  0.00     0.000 HD 
HETATM   51  O   UNL     1     -12.897  12.076  71.790  1.00  0.00    -0.348 OA 
ENDBRANCH  46  49
ENDBRANCH  29  46
ENDBRANCH  26  29
ENDBRANCH  23  26
ENDBRANCH  21  23
ENDBRANCH  20  21
ENDBRANCH  19  20
ENDBRANCH  18  19
ENDBRANCH  16  18
ENDBRANCH  13  16
ENDBRANCH  10  13
ENDBRANCH   7  10
ENDBRANCH   4   7
ENDBRANCH   2   4
TORSDOF 17
ENDMDL
MODEL      258
REMARK 921   NORMALIZED FREE ENERGY PREDICTED BY IDOCK:   -4.07 KCAL/MOL
REMARK 922        TOTAL FREE ENERGY PREDICTED BY IDOCK:  -11.56 KCAL/MOL
REMARK 923 INTER-LIGAND FREE ENERGY PREDICTED BY IDOCK:   -7.76 KCAL/MOL
REMARK 924 INTRA-LIGAND FREE ENERGY PREDICTED BY IDOCK:   -3.79 KCAL/MOL
REMARK 927      BINDING AFFINITY PREDICTED BY RF-SCORE:    0.00 PKD
ROOT
HETATM    1  O   UNL     1     -12.897   8.278  70.807  1.00  0.00    -0.485 OA 
HETATM    2  C   UNL     1     -12.666   6.899  70.907  1.00  0.00    -0.132 C  
HETATM    3  H   UNL     1     -13.559   8.445  70.147  1.00  0.00     0.000 HD 
ENDROOT
BRANCH   2   4
HETATM    4  C   UNL     1     -11.594   6.630  71.976  1.00  0.00    -0.301 C  
HETATM    5  O   UNL     1     -12.117   5.764  72.951  1.00  0.00    -0.543 OA 
HETATM    6  H   UNL     1     -11.455   5.597  73.612  1.00  0.00     0.000 HD 
BRANCH   4   7
HETATM    7  C   UNL     1     -10.317   6.002  71.358  1.00  0.00    -0.220 C  
HETATM    8  H   UNL     1      -9.827   4.328  70.498  1.00  0.00     0.000 HD 
HETATM    9  O   UNL     1     -10.609   4.713  70.876  1.00  0.00    -0.051 OA 
BRANCH   7  10
HETATM   10  C   UNL     1      -9.753   6.860  70.195  1.00  0.00    -0.171 C  
HETATM   11  H   UNL     1      -9.303   6.572  68.338  1.00  0.00     0.000 HD 
HETATM   12  O   UNL     1      -9.648   6.047  69.051  1.00  0.00    -0.128 OA 
BRANCH  10  13
HETATM   13  C   UNL     1      -8.361   7.479  70.501  1.00  0.00    -0.131 C  
HETATM   14  H   UNL     1      -6.845   8.144  69.484  1.00  0.00     0.000 HD 
HETATM   15  O   UNL     1      -7.697   7.766  69.297  1.00  0.00    -0.096 OA 
BRANCH  13  16
HETATM   16  C   UNL     1      -8.435   8.755  71.305  1.00  0.00    -0.186 C  
HETATM   17  O   UNL     1      -8.681   8.703  72.501  1.00  0.00    -0.360 OA 
BRANCH  16  18
HETATM   18  O   UNL     1      -8.246   9.957  70.725  1.00  0.00    -0.181 OA 
BRANCH  18  19
HETATM   19 CA   UNL     1     -10.170  11.235  70.005  1.00  0.00    -0.398 Ca 
BRANCH  19  20
HETATM   20  O   UNL     1     -12.095  12.513  69.286  1.00  0.00    -0.256 OA 
BRANCH  20  21
HETATM   21  C   UNL     1     -12.086  13.700  69.916  1.00  0.00    -0.341 C  
HETATM   22  O   UNL     1     -13.147  14.286  70.046  1.00  0.00    -0.028 OA 
BRANCH  21  23
HETATM   23  C   UNL     1     -10.795  14.387  70.303  1.00  0.00     0.215 C  
HETATM   24  H   UNL     1     -10.183  15.481  71.770  1.00  0.00     0.000 HD 
HETATM   25  O   UNL     1     -10.993  15.049  71.528  1.00  0.00    -0.213 OA 
BRANCH  23  26
HETATM   26  C   UNL     1     -10.262  15.408  69.253  1.00  0.00    -0.250 C  
HETATM   27  H   UNL     1      -8.809  16.686  69.131  1.00  0.00     0.000 HD 
HETATM   28  O   UNL     1      -9.133  16.064  69.771  1.00  0.00    -0.086 OA 
BRANCH  26  29
HETATM   29  C   UNL     1      -9.941  14.864  67.818  1.00  0.00    -0.222 C  
BRANCH  29  30
HETATM   30  O   UNL     1      -8.584  14.447  67.841  1.00  0.00    -0.149 OA 
BRANCH  30  31
HETATM   31  C   UNL     1      -8.292  13.262  67.127  1.00  0.00    -0.135 C  
HETATM   32  O   UNL     1      -9.493  12.648  66.690  1.00  0.00    -0.233 OA 
HETATM   33  C   UNL     1      -9.213  11.465  65.958  1.00  0.00    -0.214 C  
HETATM   34  H   UNL     1      -5.890  12.339  69.165  1.00  0.00     0.000 HD 
HETATM   35  C   UNL     1      -8.580  10.399  66.889  1.00  0.00    -0.127 C  
HETATM   36  O   UNL     1      -9.448  10.094  67.953  1.00  0.00    -0.140 OA 
HETATM   37  C   UNL     1      -7.256  10.965  67.443  1.00  0.00    -0.094 C  
HETATM   38  O   UNL     1      -6.350  12.914  68.567  1.00  0.00    -0.069 OA 
HETATM   39  H   UNL     1      -9.059   9.441  68.523  1.00  0.00     0.000 HD 
HETATM   40  O   UNL     1      -6.675  10.100  68.387  1.00  0.00    -0.054 OA 
HETATM   41  C   UNL     1      -7.541  12.324  68.105  1.00  0.00    -0.127 C  
HETATM   42  H   UNL     1      -5.860  10.449  68.728  1.00  0.00     0.000 HD 
BRANCH  33  43
HETATM   43  C   UNL     1     -10.527  10.977  65.328  1.00  0.00    -0.251 C  
HETATM   44  O   UNL     1     -11.640  11.523  65.983  1.00  0.00    -0.311 OA 
HETATM   45  H   UNL     1     -12.452  11.221  65.593  1.00  0.00     0.000 HD 
ENDBRANCH  33  43
ENDBRANCH  30  31
ENDBRANCH  29  30
BRANCH  29  46
HETATM   46  C   UNL     1     -10.236  15.846  66.629  1.00  0.00    -0.288 C  
HETATM   47  O   UNL     1     -10.740  17.074  67.102  1.00  0.00    -0.282 OA 
HETATM   48  H   UNL     1     -10.918  17.668  66.383  1.00  0.00     0.000 HD 
BRANCH  46  49
HETATM   49  C   UNL     1     -11.103  15.257  65.493  1.00  0.00    -0.327 C  
HETATM   50  H   UNL     1     -12.656  14.083  65.316  1.00  0.00     0.000 HD 
HETATM   51  O   UNL     1     -12.123  14.446  66.014  1.00  0.00    -0.396 OA 
ENDBRANCH  46  49
ENDBRANCH  29  46
ENDBRANCH  26  29
ENDBRANCH  23  26
ENDBRANCH  21  23
ENDBRANCH  20  21
ENDBRANCH  19  20
ENDBRANCH  18  19
ENDBRANCH  16  18
ENDBRANCH  13  16
ENDBRANCH  10  13
ENDBRANCH   7  10
ENDBRANCH   4   7
ENDBRANCH   2   4
TORSDOF 17
ENDMDL
MODEL      259
REMARK 921   NORMALIZED FREE ENERGY PREDICTED BY IDOCK:   -4.06 KCAL/MOL
REMARK 922        TOTAL FREE ENERGY PREDICTED BY IDOCK:  -11.53 KCAL/MOL
REMARK 923 INTER-LIGAND FREE ENERGY PREDICTED BY IDOCK:   -8.71 KCAL/MOL
REMARK 924 INTRA-LIGAND FREE ENERGY PREDICTED BY IDOCK:   -2.82 KCAL/MOL
REMARK 927      BINDING AFFINITY PREDICTED BY RF-SCORE:    0.00 PKD
ROOT
HETATM    1  O   UNL     1      -6.774  18.559  67.509  1.00  0.00    -0.199 OA 
HETATM    2  C   UNL     1      -7.363  17.987  66.373  1.00  0.00    -0.257 C  
HETATM    3  H   UNL     1      -6.605  19.481  67.351  1.00  0.00     0.000 HD 
ENDROOT
BRANCH   2   4
HETATM    4  C   UNL     1      -7.636  16.495  66.628  1.00  0.00    -0.275 C  
HETATM    5  O   UNL     1      -6.430  15.852  66.960  1.00  0.00    -0.291 OA 
HETATM    6  H   UNL     1      -6.599  14.931  67.118  1.00  0.00     0.000 HD 
BRANCH   4   7
HETATM    7  C   UNL     1      -8.663  16.290  67.772  1.00  0.00    -0.179 C  
HETATM    8  H   UNL     1     -10.263  17.182  68.425  1.00  0.00     0.000 HD 
HETATM    9  O   UNL     1      -9.634  17.307  67.724  1.00  0.00    -0.254 OA 
BRANCH   7  10
HETATM   10  C   UNL     1      -9.370  14.912  67.678  1.00  0.00    -0.191 C  
HETATM   11  H   UNL     1      -9.043  13.234  66.779  1.00  0.00     0.000 HD 
HETATM   12  O   UNL     1      -8.610  14.078  66.837  1.00  0.00    -0.204 OA 
BRANCH  10  13
HETATM   13  C   UNL     1     -10.820  14.996  67.126  1.00  0.00    -0.314 C  
HETATM   14  H   UNL     1     -11.677  15.051  65.384  1.00  0.00     0.000 HD 
HETATM   15  O   UNL     1     -10.791  14.999  65.721  1.00  0.00    -0.325 OA 
BRANCH  13  16
HETATM   16  C   UNL     1     -11.699  13.851  67.569  1.00  0.00    -0.380 C  
HETATM   17  O   UNL     1     -11.954  13.708  68.755  1.00  0.00    -0.345 OA 
BRANCH  16  18
HETATM   18  O   UNL     1     -12.201  12.973  66.679  1.00  0.00    -0.375 OA 
BRANCH  18  19
HETATM   19 CA   UNL     1     -11.550  10.646  66.823  1.00  0.00    -0.255 Ca 
BRANCH  19  20
HETATM   20  O   UNL     1     -10.899   8.320  66.966  1.00  0.00    -0.245 OA 
BRANCH  20  21
HETATM   21  C   UNL     1      -9.591   8.219  66.673  1.00  0.00    -0.233 C  
HETATM   22  O   UNL     1      -9.095   9.084  65.972  1.00  0.00    -0.178 OA 
BRANCH  21  23
HETATM   23  C   UNL     1      -8.785   6.993  67.041  1.00  0.00    -0.123 C  
HETATM   24  H   UNL     1      -7.191   6.124  66.385  1.00  0.00     0.000 HD 
HETATM   25  O   UNL     1      -7.698   6.893  66.154  1.00  0.00    -0.086 OA 
BRANCH  23  26
HETATM   26  C   UNL     1      -9.585   5.656  67.017  1.00  0.00    -0.136 C  
HETATM   27  H   UNL     1      -9.584   4.023  65.971  1.00  0.00     0.000 HD 
HETATM   28  O   UNL     1      -9.096   4.838  65.985  1.00  0.00    -0.124 OA 
BRANCH  26  29
HETATM   29  C   UNL     1      -9.655   4.835  68.351  1.00  0.00    -0.151 C  
BRANCH  29  30
HETATM   30  O   UNL     1      -9.389   5.752  69.402  1.00  0.00    -0.123 OA 
BRANCH  30  31
HETATM   31  C   UNL     1     -10.509   6.161  70.161  1.00  0.00    -0.231 C  
HETATM   32  O   UNL     1     -10.595   7.576  70.179  1.00  0.00    -0.224 OA 
HETATM   33  C   UNL     1     -11.725   8.000  70.926  1.00  0.00    -0.251 C  
HETATM   34  H   UNL     1     -10.062   3.891  72.490  1.00  0.00     0.000 HD 
HETATM   35  C   UNL     1     -11.547   7.629  72.421  1.00  0.00    -0.336 C  
HETATM   36  O   UNL     1     -10.389   8.233  72.944  1.00  0.00    -0.302 OA 
HETATM   37  C   UNL     1     -11.427   6.094  72.528  1.00  0.00    -0.276 C  
HETATM   38  O   UNL     1     -10.192   4.220  71.609  1.00  0.00    -0.170 OA 
HETATM   39  H   UNL     1     -10.280   8.006  73.860  1.00  0.00     0.000 HD 
HETATM   40  O   UNL     1     -11.148   5.686  73.844  1.00  0.00    -0.395 OA 
HETATM   41  C   UNL     1     -10.296   5.623  71.598  1.00  0.00    -0.215 C  
HETATM   42  H   UNL     1     -11.075   4.741  73.910  1.00  0.00     0.000 HD 
BRANCH  33  43
HETATM   43  C   UNL     1     -11.888   9.514  70.720  1.00  0.00    -0.277 C  
HETATM   44  O   UNL     1     -11.730   9.865  69.371  1.00  0.00    -0.460 OA 
HETATM   45  H   UNL     1     -11.831  10.800  69.244  1.00  0.00     0.000 HD 
ENDBRANCH  33  43
ENDBRANCH  30  31
ENDBRANCH  29  30
BRANCH  29  46
HETATM   46  C   UNL     1      -8.733   3.568  68.426  1.00  0.00    -0.105 C  
HETATM   47  O   UNL     1      -9.354   2.533  69.153  1.00  0.00    -0.138 OA 
HETATM   48  H   UNL     1      -8.796   1.767  69.199  1.00  0.00     0.000 HD 
BRANCH  46  49
HETATM   49  C   UNL     1      -7.289   3.837  68.909  1.00  0.00    -0.054 C  
HETATM   50  H   UNL     1      -6.247   3.627  70.549  1.00  0.00     0.000 HD 
HETATM   51  O   UNL     1      -7.134   3.461  70.252  1.00  0.00    -0.037 OA 
ENDBRANCH  46  49
ENDBRANCH  29  46
ENDBRANCH  26  29
ENDBRANCH  23  26
ENDBRANCH  21  23
ENDBRANCH  20  21
ENDBRANCH  19  20
ENDBRANCH  18  19
ENDBRANCH  16  18
ENDBRANCH  13  16
ENDBRANCH  10  13
ENDBRANCH   7  10
ENDBRANCH   4   7
ENDBRANCH   2   4
TORSDOF 17
ENDMDL
MODEL      260
REMARK 921   NORMALIZED FREE ENERGY PREDICTED BY IDOCK:   -4.04 KCAL/MOL
REMARK 922        TOTAL FREE ENERGY PREDICTED BY IDOCK:  -11.49 KCAL/MOL
REMARK 923 INTER-LIGAND FREE ENERGY PREDICTED BY IDOCK:   -8.47 KCAL/MOL
REMARK 924 INTRA-LIGAND FREE ENERGY PREDICTED BY IDOCK:   -3.01 KCAL/MOL
REMARK 927      BINDING AFFINITY PREDICTED BY RF-SCORE:    0.00 PKD
ROOT
HETATM    1  O   UNL     1      -8.287  12.869  68.592  1.00  0.00    -0.314 OA 
HETATM    2  C   UNL     1      -8.821  13.341  67.385  1.00  0.00    -0.204 C  
HETATM    3  H   UNL     1      -8.039  11.956  68.496  1.00  0.00     0.000 HD 
ENDROOT
BRANCH   2   4
HETATM    4  C   UNL     1      -9.223  14.818  67.540  1.00  0.00    -0.198 C  
HETATM    5  O   UNL     1      -8.297  15.625  66.857  1.00  0.00    -0.208 OA 
HETATM    6  H   UNL     1      -8.545  16.537  66.952  1.00  0.00     0.000 HD 
BRANCH   4   7
HETATM    7  C   UNL     1     -10.648  15.082  66.985  1.00  0.00    -0.293 C  
HETATM    8  H   UNL     1     -11.959  16.516  67.054  1.00  0.00     0.000 HD 
HETATM    9  O   UNL     1     -11.086  16.355  67.394  1.00  0.00    -0.209 OA 
BRANCH   7  10
HETATM   10  C   UNL     1     -10.690  15.007  65.435  1.00  0.00    -0.374 C  
HETATM   11  H   UNL     1     -10.576  16.264  63.973  1.00  0.00     0.000 HD 
HETATM   12  O   UNL     1     -10.550  16.310  64.922  1.00  0.00    -0.650 OA 
BRANCH  10  13
HETATM   13  C   UNL     1     -12.002  14.386  64.881  1.00  0.00    -0.426 C  
HETATM   14  H   UNL     1     -13.454  14.936  63.716  1.00  0.00     0.000 HD 
HETATM   15  O   UNL     1     -12.652  15.316  64.054  1.00  0.00    -0.750 OA 
BRANCH  13  16
HETATM   16  C   UNL     1     -11.777  13.127  64.077  1.00  0.00    -0.439 C  
HETATM   17  O   UNL     1     -12.602  12.786  63.244  1.00  0.00    -0.676 OA 
BRANCH  16  18
HETATM   18  O   UNL     1     -10.683  12.364  64.269  1.00  0.00    -0.307 OA 
BRANCH  18  19
HETATM   19 CA   UNL     1     -10.562  10.949  66.229  1.00  0.00    -0.212 Ca 
BRANCH  19  20
HETATM   20  O   UNL     1     -10.441   9.535  68.189  1.00  0.00    -0.202 OA 
BRANCH  20  21
HETATM   21  C   UNL     1      -9.163   9.478  68.602  1.00  0.00    -0.135 C  
HETATM   22  O   UNL     1      -8.922   9.789  69.756  1.00  0.00    -0.192 OA 
BRANCH  21  23
HETATM   23  C   UNL     1      -8.026   9.210  67.641  1.00  0.00    -0.100 C  
HETATM   24  H   UNL     1      -6.455  10.158  67.042  1.00  0.00     0.000 HD 
HETATM   25  O   UNL     1      -7.169  10.326  67.645  1.00  0.00    -0.085 OA 
BRANCH  23  26
HETATM   26  C   UNL     1      -8.469   8.915  66.176  1.00  0.00    -0.125 C  
HETATM   27  H   UNL     1      -8.835   9.942  64.573  1.00  0.00     0.000 HD 
HETATM   28  O   UNL     1      -8.565  10.123  65.466  1.00  0.00    -0.139 OA 
BRANCH  26  29
HETATM   29  C   UNL     1      -7.609   7.890  65.357  1.00  0.00    -0.084 C  
BRANCH  29  30
HETATM   30  O   UNL     1      -7.131   6.932  66.290  1.00  0.00    -0.070 OA 
BRANCH  30  31
HETATM   31  C   UNL     1      -7.601   5.611  66.110  1.00  0.00    -0.091 C  
HETATM   32  O   UNL     1      -8.364   5.523  64.918  1.00  0.00    -0.135 OA 
HETATM   33  C   UNL     1      -8.829   4.197  64.717  1.00  0.00    -0.135 C  
HETATM   34  H   UNL     1      -8.305   5.171  69.286  1.00  0.00     0.000 HD 
HETATM   35  C   UNL     1      -9.844   3.814  65.825  1.00  0.00    -0.088 C  
HETATM   36  O   UNL     1     -10.938   4.698  65.820  1.00  0.00    -0.710 OA 
HETATM   37  C   UNL     1      -9.122   3.887  67.188  1.00  0.00    -0.156 C  
HETATM   38  O   UNL     1      -7.761   5.374  68.535  1.00  0.00    -0.082 OA 
HETATM   39  H   UNL     1     -11.559   4.463  66.499  1.00  0.00     0.000 HD 
HETATM   40  O   UNL     1     -10.008   3.662  68.257  1.00  0.00     0.021 OA 
HETATM   41  C   UNL     1      -8.490   5.281  67.335  1.00  0.00    -0.106 C  
HETATM   42  H   UNL     1      -9.564   3.707  69.095  1.00  0.00     0.000 HD 
BRANCH  33  43
HETATM   43  C   UNL     1      -9.449   4.121  63.313  1.00  0.00    -0.141 C  
HETATM   44  O   UNL     1     -10.432   3.123  63.243  1.00  0.00    -0.176 OA 
HETATM   45  H   UNL     1     -10.815   3.076  62.376  1.00  0.00     0.000 HD 
ENDBRANCH  33  43
ENDBRANCH  30  31
ENDBRANCH  29  30
BRANCH  29  46
HETATM   46  C   UNL     1      -6.450   8.502  64.494  1.00  0.00    -0.066 C  
HETATM   47  O   UNL     1      -6.272   9.869  64.784  1.00  0.00    -0.092 OA 
HETATM   48  H   UNL     1      -5.571  10.240  64.262  1.00  0.00     0.000 HD 
BRANCH  46  49
HETATM   49  C   UNL     1      -6.555   8.236  62.974  1.00  0.00    -0.086 C  
HETATM   50  H   UNL     1      -5.933   6.898  61.692  1.00  0.00     0.000 HD 
HETATM   51  O   UNL     1      -5.869   7.062  62.626  1.00  0.00    -0.039 OA 
ENDBRANCH  46  49
ENDBRANCH  29  46
ENDBRANCH  26  29
ENDBRANCH  23  26
ENDBRANCH  21  23
ENDBRANCH  20  21
ENDBRANCH  19  20
ENDBRANCH  18  19
ENDBRANCH  16  18
ENDBRANCH  13  16
ENDBRANCH  10  13
ENDBRANCH   7  10
ENDBRANCH   4   7
ENDBRANCH   2   4
TORSDOF 17
ENDMDL
MODEL      261
REMARK 921   NORMALIZED FREE ENERGY PREDICTED BY IDOCK:   -4.03 KCAL/MOL
REMARK 922        TOTAL FREE ENERGY PREDICTED BY IDOCK:  -11.49 KCAL/MOL
REMARK 923 INTER-LIGAND FREE ENERGY PREDICTED BY IDOCK:  -11.62 KCAL/MOL
REMARK 924 INTRA-LIGAND FREE ENERGY PREDICTED BY IDOCK:    0.14 KCAL/MOL
REMARK 927      BINDING AFFINITY PREDICTED BY RF-SCORE:    0.00 PKD
ROOT
HETATM    1  O   UNL     1     -13.965  16.190  73.647  1.00  0.00    -0.792 OA 
HETATM    2  C   UNL     1     -12.584  16.432  73.622  1.00  0.00    -0.448 C  
HETATM    3  H   UNL     1     -14.411  16.925  74.050  1.00  0.00     0.000 HD 
ENDROOT
BRANCH   2   4
HETATM    4  C   UNL     1     -11.862  15.241  72.970  1.00  0.00    -0.392 C  
HETATM    5  O   UNL     1     -12.505  14.047  73.341  1.00  0.00    -0.169 OA 
HETATM    6  H   UNL     1     -12.059  13.312  72.938  1.00  0.00     0.000 HD 
BRANCH   4   7
HETATM    7  C   UNL     1     -11.847  15.360  71.423  1.00  0.00    -0.384 C  
HETATM    8  H   UNL     1     -10.613  14.958  69.976  1.00  0.00     0.000 HD 
HETATM    9  O   UNL     1     -10.622  14.884  70.923  1.00  0.00     0.019 OA 
BRANCH   7  10
HETATM   10  C   UNL     1     -13.005  14.561  70.768  1.00  0.00    -0.343 C  
HETATM   11  H   UNL     1     -14.527  13.546  71.389  1.00  0.00     0.000 HD 
HETATM   12  O   UNL     1     -13.817  14.036  71.790  1.00  0.00    -0.386 OA 
BRANCH  10  13
HETATM   13  C   UNL     1     -12.518  13.396  69.864  1.00  0.00    -0.093 C  
HETATM   14  H   UNL     1     -10.960  12.995  68.776  1.00  0.00     0.000 HD 
HETATM   15  O   UNL     1     -11.258  13.708  69.329  1.00  0.00    -0.255 OA 
BRANCH  13  16
HETATM   16  C   UNL     1     -12.399  12.079  70.594  1.00  0.00    -0.304 C  
HETATM   17  O   UNL     1     -13.010  11.908  71.638  1.00  0.00    -0.412 OA 
BRANCH  16  18
HETATM   18  O   UNL     1     -11.620  11.087  70.119  1.00  0.00    -0.296 OA 
BRANCH  18  19
HETATM   19 CA   UNL     1      -9.243  11.471  69.873  1.00  0.00    -0.346 Ca 
BRANCH  19  20
HETATM   20  O   UNL     1      -6.867  11.856  69.625  1.00  0.00    -0.067 OA 
BRANCH  20  21
HETATM   21  C   UNL     1      -6.657  13.174  69.464  1.00  0.00    -0.034 C  
HETATM   22  O   UNL     1      -6.308  13.819  70.439  1.00  0.00    -0.114 OA 
BRANCH  21  23
HETATM   23  C   UNL     1      -7.005  13.885  68.176  1.00  0.00    -0.120 C  
HETATM   24  H   UNL     1      -6.279  13.968  66.389  1.00  0.00     0.000 HD 
HETATM   25  O   UNL     1      -6.060  13.521  67.199  1.00  0.00    -0.255 OA 
BRANCH  23  26
HETATM   26  C   UNL     1      -7.053  15.439  68.283  1.00  0.00    -0.114 C  
HETATM   27  H   UNL     1      -6.048  16.939  67.574  1.00  0.00     0.000 HD 
HETATM   28  O   UNL     1      -6.019  15.992  67.509  1.00  0.00    -0.145 OA 
BRANCH  26  29
HETATM   29  C   UNL     1      -8.408  16.144  67.930  1.00  0.00    -0.161 C  
BRANCH  29  30
HETATM   30  O   UNL     1      -8.731  15.750  66.604  1.00  0.00    -0.235 OA 
BRANCH  30  31
HETATM   31  C   UNL     1     -10.029  15.223  66.418  1.00  0.00    -0.275 C  
HETATM   32  O   UNL     1      -9.965  13.815  66.261  1.00  0.00    -0.289 OA 
HETATM   33  C   UNL     1     -11.265  13.270  66.089  1.00  0.00    -0.296 C  
HETATM   34  H   UNL     1     -11.009  17.675  64.468  1.00  0.00     0.000 HD 
HETATM   35  C   UNL     1     -11.874  13.756  64.748  1.00  0.00    -0.391 C  
HETATM   36  O   UNL     1     -11.060  13.371  63.667  1.00  0.00    -0.544 OA 
HETATM   37  C   UNL     1     -11.982  15.295  64.796  1.00  0.00    -0.184 C  
HETATM   38  O   UNL     1     -10.660  17.275  65.255  1.00  0.00    -0.667 OA 
HETATM   39  H   UNL     1     -11.433  13.669  62.846  1.00  0.00     0.000 HD 
HETATM   40  O   UNL     1     -12.421  15.823  63.568  1.00  0.00    -0.770 OA 
HETATM   41  C   UNL     1     -10.598  15.875  65.133  1.00  0.00    -0.397 C  
HETATM   42  H   UNL     1     -12.488  16.770  63.598  1.00  0.00     0.000 HD 
BRANCH  33  43
HETATM   43  C   UNL     1     -11.148  11.739  66.151  1.00  0.00    -0.307 C  
HETATM   44  O   UNL     1     -11.749  11.228  67.310  1.00  0.00    -0.566 OA 
HETATM   45  H   UNL     1     -11.677  10.282  67.348  1.00  0.00     0.000 HD 
ENDBRANCH  33  43
ENDBRANCH  30  31
ENDBRANCH  29  30
BRANCH  29  46
HETATM   46  C   UNL     1      -8.438  17.703  68.106  1.00  0.00    -0.260 C  
HETATM   47  O   UNL     1      -7.229  18.172  68.658  1.00  0.00    -0.264 OA 
HETATM   48  H   UNL     1      -7.247  19.115  68.764  1.00  0.00     0.000 HD 
BRANCH  46  49
HETATM   49  C   UNL     1      -9.674  18.254  68.853  1.00  0.00    -0.283 C  
HETATM   50  H   UNL     1     -11.581  17.848  68.993  1.00  0.00     0.000 HD 
HETATM   51  O   UNL     1     -10.821  17.509  68.535  1.00  0.00    -0.284 OA 
ENDBRANCH  46  49
ENDBRANCH  29  46
ENDBRANCH  26  29
ENDBRANCH  23  26
ENDBRANCH  21  23
ENDBRANCH  20  21
ENDBRANCH  19  20
ENDBRANCH  18  19
ENDBRANCH  16  18
ENDBRANCH  13  16
ENDBRANCH  10  13
ENDBRANCH   7  10
ENDBRANCH   4   7
ENDBRANCH   2   4
TORSDOF 17
ENDMDL
MODEL      262
REMARK 921   NORMALIZED FREE ENERGY PREDICTED BY IDOCK:   -4.03 KCAL/MOL
REMARK 922        TOTAL FREE ENERGY PREDICTED BY IDOCK:  -11.47 KCAL/MOL
REMARK 923 INTER-LIGAND FREE ENERGY PREDICTED BY IDOCK:   -9.20 KCAL/MOL
REMARK 924 INTRA-LIGAND FREE ENERGY PREDICTED BY IDOCK:   -2.28 KCAL/MOL
REMARK 927      BINDING AFFINITY PREDICTED BY RF-SCORE:    0.00 PKD
ROOT
HETATM    1  O   UNL     1      -8.060   4.149  73.768  1.00  0.00    -0.087 OA 
HETATM    2  C   UNL     1      -9.098   3.260  73.458  1.00  0.00    -0.089 C  
HETATM    3  H   UNL     1      -7.300   3.662  74.066  1.00  0.00     0.000 HD 
ENDROOT
BRANCH   2   4
HETATM    4  C   UNL     1     -10.328   4.048  72.976  1.00  0.00    -0.168 C  
HETATM    5  O   UNL     1     -11.054   4.503  74.090  1.00  0.00    -0.269 OA 
HETATM    6  H   UNL     1     -11.813   4.991  73.792  1.00  0.00     0.000 HD 
BRANCH   4   7
HETATM    7  C   UNL     1      -9.919   5.258  72.095  1.00  0.00    -0.184 C  
HETATM    8  H   UNL     1      -9.145   5.540  70.333  1.00  0.00     0.000 HD 
HETATM    9  O   UNL     1      -9.396   4.799  70.872  1.00  0.00    -0.133 OA 
BRANCH   7  10
HETATM   10  C   UNL     1     -11.120   6.199  71.809  1.00  0.00    -0.274 C  
HETATM   11  H   UNL     1     -12.060   6.826  70.242  1.00  0.00     0.000 HD 
HETATM   12  O   UNL     1     -11.324   6.250  70.417  1.00  0.00    -0.345 OA 
BRANCH  10  13
HETATM   13  C   UNL     1     -10.913   7.645  72.340  1.00  0.00    -0.301 C  
HETATM   14  H   UNL     1     -10.717   8.511  74.067  1.00  0.00     0.000 HD 
HETATM   15  O   UNL     1     -10.843   7.627  73.742  1.00  0.00    -0.268 OA 
BRANCH  13  16
HETATM   16  C   UNL     1      -9.656   8.301  71.820  1.00  0.00    -0.209 C  
HETATM   17  O   UNL     1      -8.767   8.608  72.600  1.00  0.00    -0.380 OA 
BRANCH  16  18
HETATM   18  O   UNL     1      -9.500   8.565  70.508  1.00  0.00    -0.161 OA 
BRANCH  18  19
HETATM   19 CA   UNL     1      -8.828  10.788  69.825  1.00  0.00    -0.236 Ca 
BRANCH  19  20
HETATM   20  O   UNL     1      -8.156  13.010  69.142  1.00  0.00     0.251 OA 
BRANCH  20  21
HETATM   21  C   UNL     1      -8.486  13.183  67.851  1.00  0.00    -0.181 C  
HETATM   22  O   UNL     1      -8.614  12.189  67.156  1.00  0.00    -0.171 OA 
BRANCH  21  23
HETATM   23  C   UNL     1      -8.531  14.556  67.217  1.00  0.00    -0.215 C  
HETATM   24  H   UNL     1      -7.268  15.975  66.876  1.00  0.00     0.000 HD 
HETATM   25  O   UNL     1      -7.241  15.114  67.274  1.00  0.00    -0.202 OA 
BRANCH  23  26
HETATM   26  C   UNL     1      -9.541  15.544  67.874  1.00  0.00    -0.206 C  
HETATM   27  H   UNL     1      -9.499  17.346  68.588  1.00  0.00     0.000 HD 
HETATM   28  O   UNL     1      -8.883  16.744  68.188  1.00  0.00    -0.211 OA 
BRANCH  26  29
HETATM   29  C   UNL     1     -10.859  15.858  67.084  1.00  0.00    -0.267 C  
BRANCH  29  30
HETATM   30  O   UNL     1     -11.935  15.484  67.932  1.00  0.00    -0.147 OA 
BRANCH  30  31
HETATM   31  C   UNL     1     -11.583  14.736  69.078  1.00  0.00    -0.297 C  
HETATM   32  O   UNL     1     -12.270  13.495  69.080  1.00  0.00    -0.320 OA 
HETATM   33  C   UNL     1     -11.915  12.726  70.219  1.00  0.00    -0.280 C  
HETATM   34  H   UNL     1     -11.605  17.337  71.081  1.00  0.00     0.000 HD 
HETATM   35  C   UNL     1     -12.419  13.421  71.510  1.00  0.00    -0.154 C  
HETATM   36  O   UNL     1     -13.817  13.578  71.472  1.00  0.00    -0.212 OA 
HETATM   37  C   UNL     1     -11.742  14.803  71.612  1.00  0.00    -0.266 C  
HETATM   38  O   UNL     1     -11.348  16.821  70.326  1.00  0.00    -0.075 OA 
HETATM   39  H   UNL     1     -14.125  14.004  72.263  1.00  0.00     0.000 HD 
HETATM   40  O   UNL     1     -12.235  15.544  72.701  1.00  0.00    -0.347 OA 
HETATM   41  C   UNL     1     -12.004  15.577  70.309  1.00  0.00    -0.374 C  
HETATM   42  H   UNL     1     -11.818  16.395  72.764  1.00  0.00     0.000 HD 
BRANCH  33  43
HETATM   43  C   UNL     1     -12.511  11.320  70.046  1.00  0.00    -0.182 C  
HETATM   44  O   UNL     1     -12.679  10.682  71.283  1.00  0.00    -0.362 OA 
HETATM   45  H   UNL     1     -13.048   9.814  71.176  1.00  0.00     0.000 HD 
ENDBRANCH  33  43
ENDBRANCH  30  31
ENDBRANCH  29  30
BRANCH  29  46
HETATM   46  C   UNL     1     -10.977  15.207  65.660  1.00  0.00    -0.355 C  
HETATM   47  O   UNL     1     -10.997  16.193  64.655  1.00  0.00    -0.755 OA 
HETATM   48  H   UNL     1     -11.068  15.800  63.794  1.00  0.00     0.000 HD 
BRANCH  46  49
HETATM   49  C   UNL     1     -12.126  14.185  65.501  1.00  0.00    -0.414 C  
HETATM   50  H   UNL     1     -12.394  12.261  65.717  1.00  0.00     0.000 HD 
HETATM   51  O   UNL     1     -11.688  12.889  65.815  1.00  0.00    -0.348 OA 
ENDBRANCH  46  49
ENDBRANCH  29  46
ENDBRANCH  26  29
ENDBRANCH  23  26
ENDBRANCH  21  23
ENDBRANCH  20  21
ENDBRANCH  19  20
ENDBRANCH  18  19
ENDBRANCH  16  18
ENDBRANCH  13  16
ENDBRANCH  10  13
ENDBRANCH   7  10
ENDBRANCH   4   7
ENDBRANCH   2   4
TORSDOF 17
ENDMDL
MODEL      263
REMARK 921   NORMALIZED FREE ENERGY PREDICTED BY IDOCK:   -4.01 KCAL/MOL
REMARK 922        TOTAL FREE ENERGY PREDICTED BY IDOCK:  -11.44 KCAL/MOL
REMARK 923 INTER-LIGAND FREE ENERGY PREDICTED BY IDOCK:   -9.78 KCAL/MOL
REMARK 924 INTRA-LIGAND FREE ENERGY PREDICTED BY IDOCK:   -1.66 KCAL/MOL
REMARK 927      BINDING AFFINITY PREDICTED BY RF-SCORE:    0.00 PKD
ROOT
HETATM    1  O   UNL     1      -9.256  17.452  68.334  1.00  0.00    -0.262 OA 
HETATM    2  C   UNL     1      -9.171  16.568  67.249  1.00  0.00    -0.216 C  
HETATM    3  H   UNL     1      -8.382  17.689  68.622  1.00  0.00     0.000 HD 
ENDROOT
BRANCH   2   4
HETATM    4  C   UNL     1     -10.586  16.185  66.783  1.00  0.00    -0.277 C  
HETATM    5  O   UNL     1     -10.761  16.592  65.449  1.00  0.00    -0.473 OA 
HETATM    6  H   UNL     1     -11.635  16.356  65.160  1.00  0.00     0.000 HD 
BRANCH   4   7
HETATM    7  C   UNL     1     -10.828  14.656  66.893  1.00  0.00    -0.305 C  
HETATM    8  H   UNL     1     -12.248  13.481  67.511  1.00  0.00     0.000 HD 
HETATM    9  O   UNL     1     -12.100  14.417  67.443  1.00  0.00    -0.397 OA 
BRANCH   7  10
HETATM   10  C   UNL     1     -10.735  13.954  65.512  1.00  0.00    -0.302 C  
HETATM   11  H   UNL     1      -9.842  14.289  63.832  1.00  0.00     0.000 HD 
HETATM   12  O   UNL     1      -9.899  14.719  64.678  1.00  0.00    -0.065 OA 
BRANCH  10  13
HETATM   13  C   UNL     1     -12.112  13.773  64.815  1.00  0.00    -0.410 C  
HETATM   14  H   UNL     1     -13.313  14.853  63.736  1.00  0.00     0.000 HD 
HETATM   15  O   UNL     1     -12.471  14.964  64.162  1.00  0.00    -0.763 OA 
BRANCH  13  16
HETATM   16  C   UNL     1     -12.126  12.661  63.794  1.00  0.00    -0.522 C  
HETATM   17  O   UNL     1     -13.187  12.146  63.473  1.00  0.00    -0.744 OA 
BRANCH  16  18
HETATM   18  O   UNL     1     -10.984  12.215  63.234  1.00  0.00    -0.415 OA 
BRANCH  18  19
HETATM   19 CA   UNL     1      -9.114  11.649  64.662  1.00  0.00    -0.237 Ca 
BRANCH  19  20
HETATM   20  O   UNL     1      -7.244  11.083  66.090  1.00  0.00    -0.124 OA 
BRANCH  20  21
HETATM   21  C   UNL     1      -6.677   9.954  65.633  1.00  0.00    -0.098 C  
HETATM   22  O   UNL     1      -5.502   9.994  65.311  1.00  0.00    -0.053 OA 
BRANCH  21  23
HETATM   23  C   UNL     1      -7.492   8.711  65.351  1.00  0.00    -0.086 C  
HETATM   24  H   UNL     1      -9.349   8.308  65.014  1.00  0.00     0.000 HD 
HETATM   25  O   UNL     1      -8.838   9.088  65.191  1.00  0.00    -0.188 OA 
BRANCH  23  26
HETATM   26  C   UNL     1      -7.400   7.610  66.452  1.00  0.00    -0.079 C  
HETATM   27  H   UNL     1      -6.745   7.479  68.272  1.00  0.00     0.000 HD 
HETATM   28  O   UNL     1      -6.801   8.150  67.602  1.00  0.00    -0.067 OA 
BRANCH  26  29
HETATM   29  C   UNL     1      -8.728   6.875  66.846  1.00  0.00    -0.118 C  
BRANCH  29  30
HETATM   30  O   UNL     1      -8.846   6.989  68.257  1.00  0.00    -0.127 OA 
BRANCH  30  31
HETATM   31  C   UNL     1     -10.041   7.577  68.729  1.00  0.00    -0.185 C  
HETATM   32  O   UNL     1      -9.830   8.950  69.014  1.00  0.00    -0.171 OA 
HETATM   33  C   UNL     1     -11.028   9.557  69.474  1.00  0.00    -0.195 C  
HETATM   34  H   UNL     1     -10.876   4.987  70.565  1.00  0.00     0.000 HD 
HETATM   35  C   UNL     1     -11.434   8.961  70.847  1.00  0.00    -0.288 C  
HETATM   36  O   UNL     1     -10.415   9.164  71.795  1.00  0.00    -0.352 OA 
HETATM   37  C   UNL     1     -11.682   7.449  70.663  1.00  0.00    -0.242 C  
HETATM   38  O   UNL     1     -10.635   5.451  69.772  1.00  0.00    -0.309 OA 
HETATM   39  H   UNL     1     -10.664   8.798  72.635  1.00  0.00     0.000 HD 
HETATM   40  O   UNL     1     -11.945   6.813  71.890  1.00  0.00    -0.306 OA 
HETATM   41  C   UNL     1     -10.433   6.820  70.023  1.00  0.00    -0.210 C  
HETATM   42  H   UNL     1     -12.098   5.883  71.777  1.00  0.00     0.000 HD 
BRANCH  33  43
HETATM   43  C   UNL     1     -10.791  11.074  69.548  1.00  0.00    -0.216 C  
HETATM   44  O   UNL     1     -11.589  11.666  70.538  1.00  0.00    -0.487 OA 
HETATM   45  H   UNL     1     -11.443  12.603  70.584  1.00  0.00     0.000 HD 
ENDBRANCH  33  43
ENDBRANCH  30  31
ENDBRANCH  29  30
BRANCH  29  46
HETATM   46  C   UNL     1      -8.859   5.388  66.362  1.00  0.00    -0.123 C  
HETATM   47  O   UNL     1     -10.072   4.820  66.798  1.00  0.00    -0.208 OA 
HETATM   48  H   UNL     1     -10.152   3.921  66.504  1.00  0.00     0.000 HD 
BRANCH  46  49
HETATM   49  C   UNL     1      -7.643   4.486  66.680  1.00  0.00    -0.086 C  
HETATM   50  H   UNL     1      -7.225   2.577  66.712  1.00  0.00     0.000 HD 
HETATM   51  O   UNL     1      -7.971   3.132  66.516  1.00  0.00    -0.080 OA 
ENDBRANCH  46  49
ENDBRANCH  29  46
ENDBRANCH  26  29
ENDBRANCH  23  26
ENDBRANCH  21  23
ENDBRANCH  20  21
ENDBRANCH  19  20
ENDBRANCH  18  19
ENDBRANCH  16  18
ENDBRANCH  13  16
ENDBRANCH  10  13
ENDBRANCH   7  10
ENDBRANCH   4   7
ENDBRANCH   2   4
TORSDOF 17
ENDMDL
MODEL      264
REMARK 921   NORMALIZED FREE ENERGY PREDICTED BY IDOCK:   -4.01 KCAL/MOL
REMARK 922        TOTAL FREE ENERGY PREDICTED BY IDOCK:  -11.44 KCAL/MOL
REMARK 923 INTER-LIGAND FREE ENERGY PREDICTED BY IDOCK:   -8.51 KCAL/MOL
REMARK 924 INTRA-LIGAND FREE ENERGY PREDICTED BY IDOCK:   -2.92 KCAL/MOL
REMARK 927      BINDING AFFINITY PREDICTED BY RF-SCORE:    0.00 PKD
ROOT
HETATM    1  O   UNL     1      -9.205  18.747  67.420  1.00  0.00    -0.280 OA 
HETATM    2  C   UNL     1     -10.413  18.421  66.788  1.00  0.00    -0.385 C  
HETATM    3  H   UNL     1      -9.171  19.682  67.580  1.00  0.00     0.000 HD 
ENDROOT
BRANCH   2   4
HETATM    4  C   UNL     1     -10.469  16.905  66.528  1.00  0.00    -0.253 C  
HETATM    5  O   UNL     1      -9.810  16.617  65.321  1.00  0.00    -0.496 OA 
HETATM    6  H   UNL     1      -9.844  15.681  65.160  1.00  0.00     0.000 HD 
BRANCH   4   7
HETATM    7  C   UNL     1      -9.809  16.105  67.682  1.00  0.00    -0.236 C  
HETATM    8  H   UNL     1      -9.947  16.023  69.619  1.00  0.00     0.000 HD 
HETATM    9  O   UNL     1     -10.352  16.514  68.913  1.00  0.00    -0.254 OA 
BRANCH   7  10
HETATM   10  C   UNL     1     -10.019  14.575  67.520  1.00  0.00    -0.224 C  
HETATM   11  H   UNL     1      -9.418  13.205  66.298  1.00  0.00     0.000 HD 
HETATM   12  O   UNL     1      -9.290  14.142  66.397  1.00  0.00    -0.275 OA 
BRANCH  10  13
HETATM   13  C   UNL     1     -11.508  14.171  67.340  1.00  0.00    -0.345 C  
HETATM   14  H   UNL     1     -12.573  13.216  66.026  1.00  0.00     0.000 HD 
HETATM   15  O   UNL     1     -11.663  13.463  66.136  1.00  0.00    -0.337 OA 
BRANCH  13  16
HETATM   16  C   UNL     1     -12.034  13.304  68.459  1.00  0.00    -0.304 C  
HETATM   17  O   UNL     1     -12.346  13.814  69.524  1.00  0.00    -0.316 OA 
BRANCH  16  18
HETATM   18  O   UNL     1     -12.156  11.970  68.308  1.00  0.00    -0.447 OA 
BRANCH  18  19
HETATM   19 CA   UNL     1     -11.008  10.881  66.478  1.00  0.00    -0.229 Ca 
BRANCH  19  20
HETATM   20  O   UNL     1      -9.861   9.791  64.647  1.00  0.00    -0.228 OA 
BRANCH  20  21
HETATM   21  C   UNL     1      -8.549  10.069  64.733  1.00  0.00    -0.177 C  
HETATM   22  O   UNL     1      -8.222  11.134  65.229  1.00  0.00     0.022 OA 
BRANCH  21  23
HETATM   23  C   UNL     1      -7.503   9.190  64.085  1.00  0.00    -0.109 C  
HETATM   24  H   UNL     1      -6.833   8.906  62.297  1.00  0.00     0.000 HD 
HETATM   25  O   UNL     1      -7.490   9.459  62.704  1.00  0.00    -0.103 OA 
BRANCH  23  26
HETATM   26  C   UNL     1      -7.713   7.661  64.303  1.00  0.00    -0.131 C  
HETATM   27  H   UNL     1      -6.637   6.052  64.185  1.00  0.00     0.000 HD 
HETATM   28  O   UNL     1      -6.508   6.984  64.052  1.00  0.00    -0.042 OA 
BRANCH  26  29
HETATM   29  C   UNL     1      -8.295   7.204  65.686  1.00  0.00    -0.136 C  
BRANCH  29  30
HETATM   30  O   UNL     1      -7.533   7.872  66.681  1.00  0.00    -0.086 OA 
BRANCH  30  31
HETATM   31  C   UNL     1      -8.169   8.039  67.933  1.00  0.00    -0.129 C  
HETATM   32  O   UNL     1      -9.404   7.344  67.949  1.00  0.00    -0.134 OA 
HETATM   33  C   UNL     1     -10.046   7.491  69.207  1.00  0.00    -0.188 C  
HETATM   34  H   UNL     1      -7.352  11.208  68.195  1.00  0.00     0.000 HD 
HETATM   35  C   UNL     1     -10.460   8.969  69.424  1.00  0.00    -0.222 C  
HETATM   36  O   UNL     1     -11.331   9.393  68.404  1.00  0.00    -0.479 OA 
HETATM   37  C   UNL     1      -9.184   9.836  69.413  1.00  0.00    -0.205 C  
HETATM   38  O   UNL     1      -7.203  10.277  68.085  1.00  0.00    -0.081 OA 
HETATM   39  H   UNL     1     -11.585  10.299  68.537  1.00  0.00     0.000 HD 
HETATM   40  O   UNL     1      -9.487  11.208  69.491  1.00  0.00    -0.394 OA 
HETATM   41  C   UNL     1      -8.413   9.559  68.111  1.00  0.00    -0.119 C  
HETATM   42  H   UNL     1      -8.701  11.741  69.484  1.00  0.00     0.000 HD 
BRANCH  33  43
HETATM   43  C   UNL     1     -11.253   6.541  69.236  1.00  0.00    -0.328 C  
HETATM   44  O   UNL     1     -11.711   6.258  67.941  1.00  0.00    -0.391 OA 
HETATM   45  H   UNL     1     -12.456   5.670  67.959  1.00  0.00     0.000 HD 
ENDBRANCH  33  43
ENDBRANCH  30  31
ENDBRANCH  29  30
BRANCH  29  46
HETATM   46  C   UNL     1      -8.354   5.655  65.928  1.00  0.00    -0.128 C  
HETATM   47  O   UNL     1      -7.085   5.149  66.271  1.00  0.00    -0.069 OA 
HETATM   48  H   UNL     1      -7.120   4.212  66.418  1.00  0.00     0.000 HD 
BRANCH  46  49
HETATM   49  C   UNL     1      -9.021   4.840  64.796  1.00  0.00    -0.146 C  
HETATM   50  H   UNL     1      -9.525   2.983  64.450  1.00  0.00     0.000 HD 
HETATM   51  O   UNL     1      -9.115   3.484  65.146  1.00  0.00    -0.130 OA 
ENDBRANCH  46  49
ENDBRANCH  29  46
ENDBRANCH  26  29
ENDBRANCH  23  26
ENDBRANCH  21  23
ENDBRANCH  20  21
ENDBRANCH  19  20
ENDBRANCH  18  19
ENDBRANCH  16  18
ENDBRANCH  13  16
ENDBRANCH  10  13
ENDBRANCH   7  10
ENDBRANCH   4   7
ENDBRANCH   2   4
TORSDOF 17
ENDMDL
MODEL      265
REMARK 921   NORMALIZED FREE ENERGY PREDICTED BY IDOCK:   -4.00 KCAL/MOL
REMARK 922        TOTAL FREE ENERGY PREDICTED BY IDOCK:  -11.42 KCAL/MOL
REMARK 923 INTER-LIGAND FREE ENERGY PREDICTED BY IDOCK:   -9.67 KCAL/MOL
REMARK 924 INTRA-LIGAND FREE ENERGY PREDICTED BY IDOCK:   -1.74 KCAL/MOL
REMARK 927      BINDING AFFINITY PREDICTED BY RF-SCORE:    0.00 PKD
ROOT
HETATM    1  O   UNL     1     -10.298  20.790  68.537  1.00  0.00     0.073 OA 
HETATM    2  C   UNL     1      -9.539  19.773  67.940  1.00  0.00    -0.373 C  
HETATM    3  H   UNL     1     -10.031  20.898  69.442  1.00  0.00     0.000 HD 
ENDROOT
BRANCH   2   4
HETATM    4  C   UNL     1      -9.971  19.598  66.474  1.00  0.00    -0.440 C  
HETATM    5  O   UNL     1      -8.844  19.712  65.641  1.00  0.00    -0.328 OA 
HETATM    6  H   UNL     1      -9.111  19.604  64.736  1.00  0.00     0.000 HD 
BRANCH   4   7
HETATM    7  C   UNL     1     -10.651  18.223  66.240  1.00  0.00    -0.296 C  
HETATM    8  H   UNL     1     -11.350  17.220  64.729  1.00  0.00     0.000 HD 
HETATM    9  O   UNL     1     -10.934  18.062  64.871  1.00  0.00    -0.776 OA 
BRANCH   7  10
HETATM   10  C   UNL     1      -9.756  17.046  66.713  1.00  0.00    -0.269 C  
HETATM   11  H   UNL     1      -8.102  16.231  66.138  1.00  0.00     0.000 HD 
HETATM   12  O   UNL     1      -8.650  16.952  65.848  1.00  0.00    -0.514 OA 
BRANCH  10  13
HETATM   13  C   UNL     1     -10.494  15.679  66.737  1.00  0.00    -0.297 C  
HETATM   14  H   UNL     1     -10.089  13.836  66.279  1.00  0.00     0.000 HD 
HETATM   15  O   UNL     1      -9.637  14.672  66.264  1.00  0.00    -0.282 OA 
BRANCH  13  16
HETATM   16  C   UNL     1     -10.968  15.277  68.113  1.00  0.00    -0.292 C  
HETATM   17  O   UNL     1     -11.801  15.960  68.690  1.00  0.00    -0.388 OA 
BRANCH  16  18
HETATM   18  O   UNL     1     -10.479  14.180  68.725  1.00  0.00    -0.244 OA 
BRANCH  18  19
HETATM   19 CA   UNL     1      -9.463  12.438  67.387  1.00  0.00    -0.166 Ca 
BRANCH  19  20
HETATM   20  O   UNL     1      -8.447  10.697  66.049  1.00  0.00    -0.153 OA 
BRANCH  20  21
HETATM   21  C   UNL     1      -8.906   9.505  66.470  1.00  0.00    -0.139 C  
HETATM   22  O   UNL     1     -10.111   9.325  66.468  1.00  0.00    -0.258 OA 
BRANCH  21  23
HETATM   23  C   UNL     1      -7.992   8.475  67.095  1.00  0.00    -0.101 C  
HETATM   24  H   UNL     1      -7.214   6.792  66.558  1.00  0.00     0.000 HD 
HETATM   25  O   UNL     1      -7.788   7.439  66.166  1.00  0.00    -0.100 OA 
BRANCH  23  26
HETATM   26  C   UNL     1      -8.517   7.864  68.430  1.00  0.00    -0.128 C  
HETATM   27  H   UNL     1      -8.712   6.094  69.197  1.00  0.00     0.000 HD 
HETATM   28  O   UNL     1      -8.392   6.466  68.383  1.00  0.00    -0.115 OA 
BRANCH  26  29
HETATM   29  C   UNL     1      -7.892   8.404  69.763  1.00  0.00    -0.099 C  
BRANCH  29  30
HETATM   30  O   UNL     1      -8.527   7.697  70.819  1.00  0.00    -0.122 OA 
BRANCH  30  31
HETATM   31  C   UNL     1      -9.916   7.481  70.667  1.00  0.00    -0.183 C  
HETATM   32  O   UNL     1     -10.620   8.701  70.833  1.00  0.00    -0.199 OA 
HETATM   33  C   UNL     1     -12.015   8.501  70.668  1.00  0.00    -0.035 C  
HETATM   34  H   UNL     1      -9.898   4.636  72.305  1.00  0.00     0.000 HD 
HETATM   35  C   UNL     1     -12.565   7.607  71.809  1.00  0.00    -0.331 C  
HETATM   36  O   UNL     1     -12.325   8.201  73.061  1.00  0.00    -0.666 OA 
HETATM   37  C   UNL     1     -11.855   6.239  71.737  1.00  0.00    -0.286 C  
HETATM   38  O   UNL     1      -9.641   5.255  71.632  1.00  0.00    -0.146 OA 
HETATM   39  H   UNL     1     -12.662   7.653  73.760  1.00  0.00     0.000 HD 
HETATM   40  O   UNL     1     -12.218   5.408  72.812  1.00  0.00    -0.444 OA 
HETATM   41  C   UNL     1     -10.335   6.472  71.765  1.00  0.00    -0.205 C  
HETATM   42  H   UNL     1     -11.781   4.565  72.767  1.00  0.00     0.000 HD 
BRANCH  33  43
HETATM   43  C   UNL     1     -12.691   9.881  70.636  1.00  0.00    -0.154 C  
HETATM   44  O   UNL     1     -12.066  10.774  71.519  1.00  0.00    -0.269 OA 
HETATM   45  H   UNL     1     -12.483  11.627  71.499  1.00  0.00     0.000 HD 
ENDBRANCH  33  43
ENDBRANCH  30  31
ENDBRANCH  29  30
BRANCH  29  46
HETATM   46  C   UNL     1      -7.956   9.958  69.972  1.00  0.00    -0.180 C  
HETATM   47  O   UNL     1      -9.088  10.506  69.338  1.00  0.00    -0.310 OA 
HETATM   48  H   UNL     1      -9.127  11.446  69.464  1.00  0.00     0.000 HD 
BRANCH  46  49
HETATM   49  C   UNL     1      -6.659  10.720  69.614  1.00  0.00    -0.114 C  
HETATM   50  H   UNL     1      -5.377  11.897  70.505  1.00  0.00     0.000 HD 
HETATM   51  O   UNL     1      -6.174  11.428  70.724  1.00  0.00    -0.343 OA 
ENDBRANCH  46  49
ENDBRANCH  29  46
ENDBRANCH  26  29
ENDBRANCH  23  26
ENDBRANCH  21  23
ENDBRANCH  20  21
ENDBRANCH  19  20
ENDBRANCH  18  19
ENDBRANCH  16  18
ENDBRANCH  13  16
ENDBRANCH  10  13
ENDBRANCH   7  10
ENDBRANCH   4   7
ENDBRANCH   2   4
TORSDOF 17
ENDMDL
MODEL      266
REMARK 921   NORMALIZED FREE ENERGY PREDICTED BY IDOCK:   -3.98 KCAL/MOL
REMARK 922        TOTAL FREE ENERGY PREDICTED BY IDOCK:  -11.38 KCAL/MOL
REMARK 923 INTER-LIGAND FREE ENERGY PREDICTED BY IDOCK:  -11.00 KCAL/MOL
REMARK 924 INTRA-LIGAND FREE ENERGY PREDICTED BY IDOCK:   -0.38 KCAL/MOL
REMARK 927      BINDING AFFINITY PREDICTED BY RF-SCORE:    0.00 PKD
ROOT
HETATM    1  O   UNL     1      -6.289   7.864  74.125  1.00  0.00    -0.091 OA 
HETATM    2  C   UNL     1      -7.347   6.954  73.998  1.00  0.00    -0.092 C  
HETATM    3  H   UNL     1      -5.771   7.647  74.890  1.00  0.00     0.000 HD 
ENDROOT
BRANCH   2   4
HETATM    4  C   UNL     1      -8.187   7.305  72.758  1.00  0.00    -0.106 C  
HETATM    5  O   UNL     1      -8.420   6.139  72.008  1.00  0.00    -0.120 OA 
HETATM    6  H   UNL     1      -8.938   6.357  71.242  1.00  0.00     0.000 HD 
BRANCH   4   7
HETATM    7  C   UNL     1      -9.544   7.946  73.152  1.00  0.00    -0.286 C  
HETATM    8  H   UNL     1     -10.817   9.184  72.359  1.00  0.00     0.000 HD 
HETATM    9  O   UNL     1      -9.986   8.792  72.118  1.00  0.00    -0.320 OA 
BRANCH   7  10
HETATM   10  C   UNL     1     -10.633   6.875  73.428  1.00  0.00    -0.344 C  
HETATM   11  H   UNL     1     -10.882   5.431  74.686  1.00  0.00     0.000 HD 
HETATM   12  O   UNL     1     -10.216   6.087  74.517  1.00  0.00    -0.295 OA 
BRANCH  10  13
HETATM   13  C   UNL     1     -10.911   5.948  72.213  1.00  0.00    -0.265 C  
HETATM   14  H   UNL     1     -11.559   4.140  71.923  1.00  0.00     0.000 HD 
HETATM   15  O   UNL     1     -11.388   4.707  72.666  1.00  0.00    -0.082 OA 
BRANCH  13  16
HETATM   16  C   UNL     1     -11.928   6.512  71.249  1.00  0.00    -0.306 C  
HETATM   17  O   UNL     1     -12.958   7.009  71.677  1.00  0.00    -0.376 OA 
BRANCH  16  18
HETATM   18  O   UNL     1     -11.724   6.467  69.917  1.00  0.00    -0.426 OA 
BRANCH  18  19
HETATM   19 CA   UNL     1     -10.294   8.125  68.886  1.00  0.00    -0.178 Ca 
BRANCH  19  20
HETATM   20  O   UNL     1      -8.864   9.783  67.855  1.00  0.00    -0.122 OA 
BRANCH  20  21
HETATM   21  C   UNL     1      -9.492  10.971  67.881  1.00  0.00    -0.165 C  
HETATM   22  O   UNL     1      -9.265  11.757  66.977  1.00  0.00    -0.178 OA 
BRANCH  21  23
HETATM   23  C   UNL     1     -10.318  11.410  69.069  1.00  0.00    -0.142 C  
HETATM   24  H   UNL     1     -11.023  10.577  70.661  1.00  0.00     0.000 HD 
HETATM   25  O   UNL     1     -10.504  10.301  69.915  1.00  0.00    -0.257 OA 
BRANCH  23  26
HETATM   26  C   UNL     1     -11.710  12.012  68.707  1.00  0.00    -0.321 C  
HETATM   27  H   UNL     1     -13.552  11.407  68.685  1.00  0.00     0.000 HD 
HETATM   28  O   UNL     1     -12.704  11.040  68.906  1.00  0.00    -0.216 OA 
BRANCH  26  29
HETATM   29  C   UNL     1     -12.126  13.344  69.422  1.00  0.00    -0.269 C  
BRANCH  29  30
HETATM   30  O   UNL     1     -11.209  14.337  68.985  1.00  0.00    -0.243 OA 
BRANCH  30  31
HETATM   31  C   UNL     1     -11.526  14.973  67.764  1.00  0.00    -0.334 C  
HETATM   32  O   UNL     1     -11.329  14.077  66.682  1.00  0.00    -0.315 OA 
HETATM   33  C   UNL     1     -11.658  14.698  65.449  1.00  0.00    -0.345 C  
HETATM   34  H   UNL     1     -10.153  17.830  68.615  1.00  0.00     0.000 HD 
HETATM   35  C   UNL     1     -10.665  15.851  65.151  1.00  0.00    -0.429 C  
HETATM   36  O   UNL     1      -9.347  15.364  65.089  1.00  0.00    -0.204 OA 
HETATM   37  C   UNL     1     -10.782  16.895  66.281  1.00  0.00    -0.096 C  
HETATM   38  O   UNL     1     -10.737  17.086  68.698  1.00  0.00    -0.345 OA 
HETATM   39  H   UNL     1      -8.739  16.070  64.906  1.00  0.00     0.000 HD 
HETATM   40  O   UNL     1      -9.829  17.920  66.141  1.00  0.00    -0.440 OA 
HETATM   41  C   UNL     1     -10.572  16.186  67.629  1.00  0.00    -0.315 C  
HETATM   42  H   UNL     1      -9.901  18.563  66.837  1.00  0.00     0.000 HD 
BRANCH  33  43
HETATM   43  C   UNL     1     -11.639  13.619  64.355  1.00  0.00    -0.393 C  
HETATM   44  O   UNL     1     -12.626  13.858  63.387  1.00  0.00    -1.018 OA 
HETATM   45  H   UNL     1     -12.614  13.191  62.711  1.00  0.00     0.000 HD 
ENDBRANCH  33  43
ENDBRANCH  30  31
ENDBRANCH  29  30
BRANCH  29  46
HETATM   46  C   UNL     1     -12.226  13.281  70.987  1.00  0.00    -0.197 C  
HETATM   47  O   UNL     1     -12.584  11.988  71.418  1.00  0.00    -0.320 OA 
HETATM   48  H   UNL     1     -12.644  11.949  72.364  1.00  0.00     0.000 HD 
BRANCH  46  49
HETATM   49  C   UNL     1     -13.107  14.376  71.631  1.00  0.00    -0.350 C  
HETATM   50  H   UNL     1     -14.360  14.537  73.123  1.00  0.00     0.000 HD 
HETATM   51  O   UNL     1     -13.818  13.864  72.727  1.00  0.00    -0.701 OA 
ENDBRANCH  46  49
ENDBRANCH  29  46
ENDBRANCH  26  29
ENDBRANCH  23  26
ENDBRANCH  21  23
ENDBRANCH  20  21
ENDBRANCH  19  20
ENDBRANCH  18  19
ENDBRANCH  16  18
ENDBRANCH  13  16
ENDBRANCH  10  13
ENDBRANCH   7  10
ENDBRANCH   4   7
ENDBRANCH   2   4
TORSDOF 17
ENDMDL
MODEL      267
REMARK 921   NORMALIZED FREE ENERGY PREDICTED BY IDOCK:   -3.98 KCAL/MOL
REMARK 922        TOTAL FREE ENERGY PREDICTED BY IDOCK:  -11.38 KCAL/MOL
REMARK 923 INTER-LIGAND FREE ENERGY PREDICTED BY IDOCK:   -8.38 KCAL/MOL
REMARK 924 INTRA-LIGAND FREE ENERGY PREDICTED BY IDOCK:   -3.00 KCAL/MOL
REMARK 927      BINDING AFFINITY PREDICTED BY RF-SCORE:    0.00 PKD
ROOT
HETATM    1  O   UNL     1      -7.254  11.206  70.176  1.00  0.00    -0.434 OA 
HETATM    2  C   UNL     1      -6.992  10.852  68.845  1.00  0.00    -0.084 C  
HETATM    3  H   UNL     1      -7.451  10.426  70.681  1.00  0.00     0.000 HD 
ENDROOT
BRANCH   2   4
HETATM    4  C   UNL     1      -6.673  12.115  68.027  1.00  0.00    -0.073 C  
HETATM    5  O   UNL     1      -6.597  11.779  66.664  1.00  0.00    -0.312 OA 
HETATM    6  H   UNL     1      -6.400  12.559  66.159  1.00  0.00     0.000 HD 
BRANCH   4   7
HETATM    7  C   UNL     1      -7.752  13.212  68.230  1.00  0.00    -0.141 C  
HETATM    8  H   UNL     1      -7.930  15.116  67.877  1.00  0.00     0.000 HD 
HETATM    9  O   UNL     1      -7.269  14.445  67.753  1.00  0.00    -0.140 OA 
BRANCH   7  10
HETATM   10  C   UNL     1      -9.074  12.869  67.493  1.00  0.00    -0.191 C  
HETATM   11  H   UNL     1      -9.974  13.461  65.890  1.00  0.00     0.000 HD 
HETATM   12  O   UNL     1      -9.164  13.672  66.341  1.00  0.00    -0.222 OA 
BRANCH  10  13
HETATM   13  C   UNL     1     -10.342  13.092  68.362  1.00  0.00    -0.252 C  
HETATM   14  H   UNL     1     -11.133  14.546  69.379  1.00  0.00     0.000 HD 
HETATM   15  O   UNL     1     -10.357  14.410  68.847  1.00  0.00    -0.236 OA 
BRANCH  13  16
HETATM   16  C   UNL     1     -11.633  12.859  67.612  1.00  0.00    -0.355 C  
HETATM   17  O   UNL     1     -12.285  13.813  67.220  1.00  0.00    -0.375 OA 
BRANCH  16  18
HETATM   18  O   UNL     1     -12.086  11.611  67.376  1.00  0.00    -0.605 OA 
BRANCH  18  19
HETATM   19 CA   UNL     1     -13.084  10.357  69.190  1.00  0.00    -0.547 Ca 
BRANCH  19  20
HETATM   20  O   UNL     1     -14.082   9.103  71.002  1.00  0.00    -0.159 OA 
BRANCH  20  21
HETATM   21  C   UNL     1     -13.102   8.636  71.795  1.00  0.00    -0.361 C  
HETATM   22  O   UNL     1     -13.099   8.983  72.964  1.00  0.00    -0.295 OA 
BRANCH  21  23
HETATM   23  C   UNL     1     -11.935   7.850  71.241  1.00  0.00    -0.298 C  
HETATM   24  H   UNL     1     -10.422   6.899  71.971  1.00  0.00     0.000 HD 
HETATM   25  O   UNL     1     -11.155   7.393  72.319  1.00  0.00    -0.240 OA 
BRANCH  23  26
HETATM   26  C   UNL     1     -11.025   8.644  70.255  1.00  0.00    -0.236 C  
HETATM   27  H   UNL     1      -9.499   9.834  70.384  1.00  0.00     0.000 HD 
HETATM   28  O   UNL     1     -10.054   9.350  70.984  1.00  0.00    -0.288 OA 
BRANCH  26  29
HETATM   29  C   UNL     1     -10.333   7.835  69.104  1.00  0.00    -0.215 C  
BRANCH  29  30
HETATM   30  O   UNL     1      -8.933   7.955  69.315  1.00  0.00    -0.144 OA 
BRANCH  30  31
HETATM   31  C   UNL     1      -8.205   6.744  69.312  1.00  0.00    -0.124 C  
HETATM   32  O   UNL     1      -8.697   5.881  68.301  1.00  0.00    -0.113 OA 
HETATM   33  C   UNL     1      -7.963   4.666  68.277  1.00  0.00    -0.084 C  
HETATM   34  H   UNL     1      -8.061   6.543  72.586  1.00  0.00     0.000 HD 
HETATM   35  C   UNL     1      -8.209   3.869  69.584  1.00  0.00    -0.053 C  
HETATM   36  O   UNL     1      -9.578   3.583  69.738  1.00  0.00    -0.184 OA 
HETATM   37  C   UNL     1      -7.718   4.723  70.772  1.00  0.00    -0.069 C  
HETATM   38  O   UNL     1      -7.938   6.939  71.732  1.00  0.00    -0.099 OA 
HETATM   39  H   UNL     1      -9.728   3.095  70.539  1.00  0.00     0.000 HD 
HETATM   40  O   UNL     1      -8.012   4.115  72.005  1.00  0.00    -0.081 OA 
HETATM   41  C   UNL     1      -8.406   6.097  70.706  1.00  0.00    -0.126 C  
HETATM   42  H   UNL     1      -7.709   4.641  72.736  1.00  0.00     0.000 HD 
BRANCH  33  43
HETATM   43  C   UNL     1      -8.392   3.879  67.029  1.00  0.00    -0.100 C  
HETATM   44  O   UNL     1      -8.237   2.498  67.219  1.00  0.00    -0.073 OA 
HETATM   45  H   UNL     1      -8.502   2.011  66.448  1.00  0.00     0.000 HD 
ENDBRANCH  33  43
ENDBRANCH  30  31
ENDBRANCH  29  30
BRANCH  29  46
HETATM   46  C   UNL     1     -10.745   8.232  67.643  1.00  0.00    -0.125 C  
HETATM   47  O   UNL     1     -11.123   7.096  66.899  1.00  0.00    -0.569 OA 
HETATM   48  H   UNL     1     -11.373   7.336  66.016  1.00  0.00     0.000 HD 
BRANCH  46  49
HETATM   49  C   UNL     1      -9.720   9.110  66.889  1.00  0.00    -0.194 C  
HETATM   50  H   UNL     1      -8.451   8.914  65.415  1.00  0.00     0.000 HD 
HETATM   51  O   UNL     1      -9.081   8.374  65.879  1.00  0.00    -0.186 OA 
ENDBRANCH  46  49
ENDBRANCH  29  46
ENDBRANCH  26  29
ENDBRANCH  23  26
ENDBRANCH  21  23
ENDBRANCH  20  21
ENDBRANCH  19  20
ENDBRANCH  18  19
ENDBRANCH  16  18
ENDBRANCH  13  16
ENDBRANCH  10  13
ENDBRANCH   7  10
ENDBRANCH   4   7
ENDBRANCH   2   4
TORSDOF 17
ENDMDL
MODEL      268
REMARK 921   NORMALIZED FREE ENERGY PREDICTED BY IDOCK:   -3.97 KCAL/MOL
REMARK 922        TOTAL FREE ENERGY PREDICTED BY IDOCK:  -11.36 KCAL/MOL
REMARK 923 INTER-LIGAND FREE ENERGY PREDICTED BY IDOCK:   -9.38 KCAL/MOL
REMARK 924 INTRA-LIGAND FREE ENERGY PREDICTED BY IDOCK:   -1.98 KCAL/MOL
REMARK 927      BINDING AFFINITY PREDICTED BY RF-SCORE:    0.00 PKD
ROOT
HETATM    1  O   UNL     1      -7.054   4.495  72.939  1.00  0.00    -0.071 OA 
HETATM    2  C   UNL     1      -8.121   4.773  73.804  1.00  0.00    -0.106 C  
HETATM    3  H   UNL     1      -6.350   4.078  73.422  1.00  0.00     0.000 HD 
ENDROOT
BRANCH   2   4
HETATM    4  C   UNL     1      -9.260   5.448  73.022  1.00  0.00    -0.133 C  
HETATM    5  O   UNL     1     -10.233   4.487  72.697  1.00  0.00    -0.167 OA 
HETATM    6  H   UNL     1     -10.937   4.904  72.214  1.00  0.00     0.000 HD 
BRANCH   4   7
HETATM    7  C   UNL     1      -9.915   6.591  73.841  1.00  0.00    -0.277 C  
HETATM    8  H   UNL     1      -9.322   8.167  74.813  1.00  0.00     0.000 HD 
HETATM    9  O   UNL     1      -8.920   7.467  74.311  1.00  0.00    -0.223 OA 
BRANCH   7  10
HETATM   10  C   UNL     1     -10.939   7.396  72.996  1.00  0.00    -0.374 C  
HETATM   11  H   UNL     1     -12.661   7.055  72.192  1.00  0.00     0.000 HD 
HETATM   12  O   UNL     1     -12.034   6.561  72.709  1.00  0.00    -0.034 OA 
BRANCH  10  13
HETATM   13  C   UNL     1     -10.352   7.935  71.662  1.00  0.00    -0.204 C  
HETATM   14  H   UNL     1     -10.223   7.333  69.820  1.00  0.00     0.000 HD 
HETATM   15  O   UNL     1     -10.581   7.003  70.636  1.00  0.00    -0.218 OA 
BRANCH  13  16
HETATM   16  C   UNL     1     -10.950   9.254  71.233  1.00  0.00    -0.351 C  
HETATM   17  O   UNL     1     -11.480   9.977  72.063  1.00  0.00     0.176 OA 
BRANCH  16  18
HETATM   18  O   UNL     1     -10.921   9.645  69.943  1.00  0.00    -0.234 OA 
BRANCH  18  19
HETATM   19 CA   UNL     1      -9.125  11.082  69.189  1.00  0.00    -0.147 Ca 
BRANCH  19  20
HETATM   20  O   UNL     1      -7.329  12.518  68.434  1.00  0.00    -0.101 OA 
BRANCH  20  21
HETATM   21  C   UNL     1      -7.847  13.485  67.658  1.00  0.00    -0.175 C  
HETATM   22  O   UNL     1      -7.147  14.451  67.407  1.00  0.00    -0.184 OA 
BRANCH  21  23
HETATM   23  C   UNL     1      -9.302  13.482  67.245  1.00  0.00    -0.233 C  
HETATM   24  H   UNL     1     -10.753  12.210  67.260  1.00  0.00     0.000 HD 
HETATM   25  O   UNL     1      -9.840  12.212  67.520  1.00  0.00    -0.187 OA 
BRANCH  23  26
HETATM   26  C   UNL     1      -9.553  13.827  65.746  1.00  0.00    -0.070 C  
HETATM   27  H   UNL     1      -9.964  12.855  64.119  1.00  0.00     0.000 HD 
HETATM   28  O   UNL     1      -9.811  12.645  65.032  1.00  0.00    -0.190 OA 
BRANCH  26  29
HETATM   29  C   UNL     1     -10.664  14.886  65.427  1.00  0.00    -0.377 C  
BRANCH  29  30
HETATM   30  O   UNL     1     -10.638  15.828  66.490  1.00  0.00    -0.306 OA 
BRANCH  30  31
HETATM   31  C   UNL     1      -9.636  16.822  66.406  1.00  0.00    -0.281 C  
HETATM   32  O   UNL     1      -8.998  16.978  67.662  1.00  0.00    -0.217 OA 
HETATM   33  C   UNL     1      -7.979  17.963  67.589  1.00  0.00    -0.219 C  
HETATM   34  H   UNL     1     -11.434  18.817  64.517  1.00  0.00     0.000 HD 
HETATM   35  C   UNL     1      -8.603  19.358  67.324  1.00  0.00    -0.296 C  
HETATM   36  O   UNL     1      -9.506  19.697  68.348  1.00  0.00    -0.353 OA 
HETATM   37  C   UNL     1      -9.345  19.307  65.972  1.00  0.00    -0.145 C  
HETATM   38  O   UNL     1     -11.000  18.009  64.764  1.00  0.00    -0.706 OA 
HETATM   39  H   UNL     1      -9.888  20.551  68.186  1.00  0.00     0.000 HD 
HETATM   40  O   UNL     1     -10.036  20.505  65.713  1.00  0.00    -0.591 OA 
HETATM   41  C   UNL     1     -10.345  18.140  66.003  1.00  0.00    -0.353 C  
HETATM   42  H   UNL     1     -10.492  20.473  64.881  1.00  0.00     0.000 HD 
BRANCH  33  43
HETATM   43  C   UNL     1      -7.186  17.923  68.904  1.00  0.00    -0.256 C  
HETATM   44  O   UNL     1      -7.057  19.204  69.461  1.00  0.00    -0.255 OA 
HETATM   45  H   UNL     1      -6.568  19.180  70.274  1.00  0.00     0.000 HD 
ENDBRANCH  33  43
ENDBRANCH  30  31
ENDBRANCH  29  30
BRANCH  29  46
HETATM   46  C   UNL     1     -12.106  14.316  65.180  1.00  0.00    -0.410 C  
HETATM   47  O   UNL     1     -12.394  13.267  66.076  1.00  0.00    -0.420 OA 
HETATM   48  H   UNL     1     -13.266  12.923  65.926  1.00  0.00     0.000 HD 
BRANCH  46  49
HETATM   49  C   UNL     1     -12.417  13.936  63.714  1.00  0.00    -0.093 C  
HETATM   50  H   UNL     1     -13.249  12.455  62.747  1.00  0.00     0.000 HD 
HETATM   51  O   UNL     1     -13.058  12.689  63.648  1.00  0.00    -0.598 OA 
ENDBRANCH  46  49
ENDBRANCH  29  46
ENDBRANCH  26  29
ENDBRANCH  23  26
ENDBRANCH  21  23
ENDBRANCH  20  21
ENDBRANCH  19  20
ENDBRANCH  18  19
ENDBRANCH  16  18
ENDBRANCH  13  16
ENDBRANCH  10  13
ENDBRANCH   7  10
ENDBRANCH   4   7
ENDBRANCH   2   4
TORSDOF 17
ENDMDL
MODEL      269
REMARK 921   NORMALIZED FREE ENERGY PREDICTED BY IDOCK:   -3.97 KCAL/MOL
REMARK 922        TOTAL FREE ENERGY PREDICTED BY IDOCK:  -11.36 KCAL/MOL
REMARK 923 INTER-LIGAND FREE ENERGY PREDICTED BY IDOCK:   -9.07 KCAL/MOL
REMARK 924 INTRA-LIGAND FREE ENERGY PREDICTED BY IDOCK:   -2.29 KCAL/MOL
REMARK 927      BINDING AFFINITY PREDICTED BY RF-SCORE:    0.00 PKD
ROOT
HETATM    1  O   UNL     1     -11.555   6.321  68.976  1.00  0.00    -0.532 OA 
HETATM    2  C   UNL     1     -10.178   6.080  68.879  1.00  0.00    -0.196 C  
HETATM    3  H   UNL     1     -11.850   6.803  68.212  1.00  0.00     0.000 HD 
ENDROOT
BRANCH   2   4
HETATM    4  C   UNL     1      -9.701   5.300  70.116  1.00  0.00    -0.196 C  
HETATM    5  O   UNL     1      -8.297   5.334  70.174  1.00  0.00    -0.095 OA 
HETATM    6  H   UNL     1      -8.003   4.853  70.939  1.00  0.00     0.000 HD 
BRANCH   4   7
HETATM    7  C   UNL     1     -10.287   5.893  71.425  1.00  0.00    -0.218 C  
HETATM    8  H   UNL     1     -11.385   5.270  72.904  1.00  0.00     0.000 HD 
HETATM    9  O   UNL     1     -11.026   4.906  72.103  1.00  0.00    -0.128 OA 
BRANCH   7  10
HETATM   10  C   UNL     1      -9.177   6.430  72.367  1.00  0.00    -0.137 C  
HETATM   11  H   UNL     1      -8.446   5.937  74.085  1.00  0.00     0.000 HD 
HETATM   12  O   UNL     1      -9.126   5.609  73.508  1.00  0.00    -0.132 OA 
BRANCH  10  13
HETATM   13  C   UNL     1      -9.403   7.900  72.815  1.00  0.00    -0.234 C  
HETATM   14  H   UNL     1      -8.708   9.094  74.181  1.00  0.00     0.000 HD 
HETATM   15  O   UNL     1      -8.570   8.195  73.907  1.00  0.00    -0.260 OA 
BRANCH  13  16
HETATM   16  C   UNL     1      -9.118   8.910  71.728  1.00  0.00    -0.171 C  
HETATM   17  O   UNL     1      -7.967   9.260  71.514  1.00  0.00    -0.334 OA 
BRANCH  16  18
HETATM   18  O   UNL     1     -10.114   9.442  70.993  1.00  0.00    -0.288 OA 
BRANCH  18  19
HETATM   19 CA   UNL     1     -10.084   9.164  68.589  1.00  0.00    -0.159 Ca 
BRANCH  19  20
HETATM   20  O   UNL     1     -10.052   8.886  66.185  1.00  0.00    -0.291 OA 
BRANCH  20  21
HETATM   21  C   UNL     1      -9.742  10.065  65.618  1.00  0.00    -0.272 C  
HETATM   22  O   UNL     1     -10.325  10.377  64.594  1.00  0.00    -0.314 OA 
BRANCH  21  23
HETATM   23  C   UNL     1      -8.589  10.909  66.115  1.00  0.00    -0.169 C  
HETATM   24  H   UNL     1      -6.720  10.626  66.505  1.00  0.00     0.000 HD 
HETATM   25  O   UNL     1      -7.444  10.096  66.193  1.00  0.00    -0.104 OA 
BRANCH  23  26
HETATM   26  C   UNL     1      -8.827  11.585  67.500  1.00  0.00    -0.155 C  
HETATM   27  H   UNL     1      -8.168  11.373  69.311  1.00  0.00     0.000 HD 
HETATM   28  O   UNL     1      -8.023  10.961  68.467  1.00  0.00    -0.117 OA 
BRANCH  26  29
HETATM   29  C   UNL     1      -8.640  13.139  67.583  1.00  0.00    -0.193 C  
BRANCH  29  30
HETATM   30  O   UNL     1      -9.265  13.681  66.428  1.00  0.00    -0.222 OA 
BRANCH  30  31
HETATM   31  C   UNL     1     -10.046  14.840  66.638  1.00  0.00    -0.264 C  
HETATM   32  O   UNL     1      -9.212  15.936  66.976  1.00  0.00    -0.202 OA 
HETATM   33  C   UNL     1      -9.983  17.111  67.174  1.00  0.00    -0.283 C  
HETATM   34  H   UNL     1     -12.432  13.239  68.225  1.00  0.00     0.000 HD 
HETATM   35  C   UNL     1     -10.891  16.949  68.421  1.00  0.00    -0.347 C  
HETATM   36  O   UNL     1     -10.115  16.702  69.568  1.00  0.00    -0.221 OA 
HETATM   37  C   UNL     1     -11.846  15.763  68.173  1.00  0.00    -0.044 C  
HETATM   38  O   UNL     1     -11.842  13.432  67.507  1.00  0.00    -0.347 OA 
HETATM   39  H   UNL     1     -10.672  16.603  70.332  1.00  0.00     0.000 HD 
HETATM   40  O   UNL     1     -12.628  15.480  69.308  1.00  0.00    -0.594 OA 
HETATM   41  C   UNL     1     -11.010  14.525  67.810  1.00  0.00    -0.275 C  
HETATM   42  H   UNL     1     -13.216  14.750  69.154  1.00  0.00     0.000 HD 
BRANCH  33  43
HETATM   43  C   UNL     1      -9.013  18.295  67.313  1.00  0.00    -0.259 C  
HETATM   44  O   UNL     1      -8.582  18.751  66.059  1.00  0.00    -0.481 OA 
HETATM   45  H   UNL     1      -7.983  19.483  66.145  1.00  0.00     0.000 HD 
ENDBRANCH  33  43
ENDBRANCH  30  31
ENDBRANCH  29  30
BRANCH  29  46
HETATM   46  C   UNL     1      -7.164  13.645  67.748  1.00  0.00    -0.164 C  
HETATM   47  O   UNL     1      -6.257  12.768  67.121  1.00  0.00    -0.380 OA 
HETATM   48  H   UNL     1      -5.364  13.074  67.221  1.00  0.00     0.000 HD 
BRANCH  46  49
HETATM   49  C   UNL     1      -6.745  13.982  69.198  1.00  0.00    -0.112 C  
HETATM   50  H   UNL     1      -6.933  15.470  70.451  1.00  0.00     0.000 HD 
HETATM   51  O   UNL     1      -7.190  15.263  69.560  1.00  0.00    -0.180 OA 
ENDBRANCH  46  49
ENDBRANCH  29  46
ENDBRANCH  26  29
ENDBRANCH  23  26
ENDBRANCH  21  23
ENDBRANCH  20  21
ENDBRANCH  19  20
ENDBRANCH  18  19
ENDBRANCH  16  18
ENDBRANCH  13  16
ENDBRANCH  10  13
ENDBRANCH   7  10
ENDBRANCH   4   7
ENDBRANCH   2   4
TORSDOF 17
ENDMDL
MODEL      270
REMARK 921   NORMALIZED FREE ENERGY PREDICTED BY IDOCK:   -3.95 KCAL/MOL
REMARK 922        TOTAL FREE ENERGY PREDICTED BY IDOCK:  -11.32 KCAL/MOL
REMARK 923 INTER-LIGAND FREE ENERGY PREDICTED BY IDOCK:   -9.03 KCAL/MOL
REMARK 924 INTRA-LIGAND FREE ENERGY PREDICTED BY IDOCK:   -2.29 KCAL/MOL
REMARK 927      BINDING AFFINITY PREDICTED BY RF-SCORE:    0.00 PKD
ROOT
HETATM    1  O   UNL     1      -8.727   4.466  74.189  1.00  0.00    -0.103 OA 
HETATM    2  C   UNL     1      -9.465   3.858  73.163  1.00  0.00    -0.112 C  
HETATM    3  H   UNL     1      -8.187   3.815  74.622  1.00  0.00     0.000 HD 
ENDROOT
BRANCH   2   4
HETATM    4  C   UNL     1     -10.340   4.911  72.462  1.00  0.00    -0.201 C  
HETATM    5  O   UNL     1     -10.935   5.740  73.429  1.00  0.00    -0.327 OA 
HETATM    6  H   UNL     1     -11.476   6.390  72.996  1.00  0.00     0.000 HD 
BRANCH   4   7
HETATM    7  C   UNL     1      -9.511   5.779  71.478  1.00  0.00    -0.150 C  
HETATM    8  H   UNL     1      -8.349   5.479  69.948  1.00  0.00     0.000 HD 
HETATM    9  O   UNL     1      -8.857   4.948  70.550  1.00  0.00    -0.110 OA 
BRANCH   7  10
HETATM   10  C   UNL     1     -10.398   6.794  70.710  1.00  0.00    -0.204 C  
HETATM   11  H   UNL     1     -10.794   7.183  68.860  1.00  0.00     0.000 HD 
HETATM   12  O   UNL     1     -10.250   6.561  69.330  1.00  0.00    -0.169 OA 
BRANCH  10  13
HETATM   13  C   UNL     1     -10.043   8.277  71.011  1.00  0.00    -0.191 C  
HETATM   14  H   UNL     1     -10.472   9.594  72.372  1.00  0.00     0.000 HD 
HETATM   15  O   UNL     1     -10.689   8.687  72.188  1.00  0.00    -0.327 OA 
BRANCH  13  16
HETATM   16  C   UNL     1      -8.562   8.516  71.186  1.00  0.00    -0.169 C  
HETATM   17  O   UNL     1      -8.033   8.274  72.260  1.00  0.00    -0.124 OA 
BRANCH  16  18
HETATM   18  O   UNL     1      -7.811   9.004  70.179  1.00  0.00    -0.078 OA 
BRANCH  18  19
HETATM   19 CA   UNL     1      -7.585  11.401  69.931  1.00  0.00    -0.274 Ca 
BRANCH  19  20
HETATM   20  O   UNL     1      -7.358  13.797  69.685  1.00  0.00     0.167 OA 
BRANCH  20  21
HETATM   21  C   UNL     1      -7.724  14.139  68.438  1.00  0.00    -0.140 C  
HETATM   22  O   UNL     1      -6.997  13.805  67.517  1.00  0.00    -0.171 OA 
BRANCH  21  23
HETATM   23  C   UNL     1      -8.897  15.057  68.175  1.00  0.00    -0.167 C  
HETATM   24  H   UNL     1      -9.589  16.689  68.940  1.00  0.00     0.000 HD 
HETATM   25  O   UNL     1      -8.853  16.112  69.105  1.00  0.00    -0.246 OA 
BRANCH  23  26
HETATM   26  C   UNL     1     -10.293  14.368  68.255  1.00  0.00    -0.239 C  
HETATM   27  H   UNL     1     -11.826  14.406  69.442  1.00  0.00     0.000 HD 
HETATM   28  O   UNL     1     -10.975  14.826  69.394  1.00  0.00    -0.250 OA 
BRANCH  26  29
HETATM   29  C   UNL     1     -11.226  14.485  67.000  1.00  0.00    -0.337 C  
BRANCH  29  30
HETATM   30  O   UNL     1     -11.522  13.157  66.594  1.00  0.00    -0.317 OA 
BRANCH  30  31
HETATM   31  C   UNL     1     -10.578  12.174  66.967  1.00  0.00    -0.228 C  
HETATM   32  O   UNL     1      -9.659  11.954  65.910  1.00  0.00    -0.231 OA 
HETATM   33  C   UNL     1      -8.694  10.980  66.277  1.00  0.00    -0.176 C  
HETATM   34  H   UNL     1     -12.789  10.274  68.475  1.00  0.00     0.000 HD 
HETATM   35  C   UNL     1      -9.375   9.598  66.459  1.00  0.00    -0.165 C  
HETATM   36  O   UNL     1     -10.009   9.200  65.268  1.00  0.00    -0.397 OA 
HETATM   37  C   UNL     1     -10.417   9.718  67.590  1.00  0.00    -0.251 C  
HETATM   38  O   UNL     1     -12.303  11.069  68.297  1.00  0.00    -0.479 OA 
HETATM   39  H   UNL     1     -10.426   8.354  65.380  1.00  0.00     0.000 HD 
HETATM   40  O   UNL     1     -11.159   8.532  67.740  1.00  0.00    -0.485 OA 
HETATM   41  C   UNL     1     -11.372  10.876  67.259  1.00  0.00    -0.151 C  
HETATM   42  H   UNL     1     -11.801   8.605  68.436  1.00  0.00     0.000 HD 
BRANCH  33  43
HETATM   43  C   UNL     1      -7.610  10.954  65.189  1.00  0.00     0.233 C  
HETATM   44  O   UNL     1      -8.173  11.034  63.907  1.00  0.00    -0.364 OA 
HETATM   45  H   UNL     1      -7.503  11.018  63.234  1.00  0.00     0.000 HD 
ENDBRANCH  33  43
ENDBRANCH  30  31
ENDBRANCH  29  30
BRANCH  29  46
HETATM   46  C   UNL     1     -10.677  15.356  65.815  1.00  0.00    -0.351 C  
HETATM   47  O   UNL     1     -10.359  16.658  66.250  1.00  0.00    -0.311 OA 
HETATM   48  H   UNL     1     -10.027  17.184  65.533  1.00  0.00     0.000 HD 
BRANCH  46  49
HETATM   49  C   UNL     1     -11.558  15.362  64.545  1.00  0.00    -0.296 C  
HETATM   50  H   UNL     1     -11.962  16.577  63.068  1.00  0.00     0.000 HD 
HETATM   51  O   UNL     1     -11.421  16.573  63.848  1.00  0.00    -1.145 OA 
ENDBRANCH  46  49
ENDBRANCH  29  46
ENDBRANCH  26  29
ENDBRANCH  23  26
ENDBRANCH  21  23
ENDBRANCH  20  21
ENDBRANCH  19  20
ENDBRANCH  18  19
ENDBRANCH  16  18
ENDBRANCH  13  16
ENDBRANCH  10  13
ENDBRANCH   7  10
ENDBRANCH   4   7
ENDBRANCH   2   4
TORSDOF 17
ENDMDL
MODEL      271
REMARK 921   NORMALIZED FREE ENERGY PREDICTED BY IDOCK:   -3.95 KCAL/MOL
REMARK 922        TOTAL FREE ENERGY PREDICTED BY IDOCK:  -11.31 KCAL/MOL
REMARK 923 INTER-LIGAND FREE ENERGY PREDICTED BY IDOCK:   -9.12 KCAL/MOL
REMARK 924 INTRA-LIGAND FREE ENERGY PREDICTED BY IDOCK:   -2.19 KCAL/MOL
REMARK 927      BINDING AFFINITY PREDICTED BY RF-SCORE:    0.00 PKD
ROOT
HETATM    1  O   UNL     1      -9.488  15.107  69.746  1.00  0.00    -0.436 OA 
HETATM    2  C   UNL     1      -8.767  15.808  68.770  1.00  0.00    -0.203 C  
HETATM    3  H   UNL     1      -9.220  14.195  69.747  1.00  0.00     0.000 HD 
ENDROOT
BRANCH   2   4
HETATM    4  C   UNL     1      -9.201  17.284  68.768  1.00  0.00    -0.238 C  
HETATM    5  O   UNL     1      -8.126  18.084  68.342  1.00  0.00    -0.281 OA 
HETATM    6  H   UNL     1      -8.394  18.995  68.341  1.00  0.00     0.000 HD 
BRANCH   4   7
HETATM    7  C   UNL     1     -10.420  17.519  67.837  1.00  0.00    -0.384 C  
HETATM    8  H   UNL     1     -11.588  19.001  67.366  1.00  0.00     0.000 HD 
HETATM    9  O   UNL     1     -10.841  18.857  67.936  1.00  0.00    -0.342 OA 
BRANCH   7  10
HETATM   10  C   UNL     1     -10.086  17.204  66.354  1.00  0.00    -0.320 C  
HETATM   11  H   UNL     1      -9.514  18.209  64.807  1.00  0.00     0.000 HD 
HETATM   12  O   UNL     1      -9.718  18.403  65.715  1.00  0.00    -0.483 OA 
BRANCH  10  13
HETATM   13  C   UNL     1     -11.269  16.562  65.577  1.00  0.00     0.191 C  
HETATM   14  H   UNL     1     -11.992  16.633  63.776  1.00  0.00     0.000 HD 
HETATM   15  O   UNL     1     -11.269  17.025  64.251  1.00  0.00    -1.186 OA 
BRANCH  13  16
HETATM   16  C   UNL     1     -11.215  15.053  65.541  1.00  0.00    -0.344 C  
HETATM   17  O   UNL     1     -10.956  14.481  64.494  1.00  0.00    -0.347 OA 
BRANCH  16  18
HETATM   18  O   UNL     1     -11.460  14.321  66.647  1.00  0.00    -0.336 OA 
BRANCH  18  19
HETATM   19 CA   UNL     1      -9.619  13.207  67.754  1.00  0.00    -0.173 Ca 
BRANCH  19  20
HETATM   20  O   UNL     1      -7.779  12.092  68.861  1.00  0.00    -0.087 OA 
BRANCH  20  21
HETATM   21  C   UNL     1      -7.545  10.923  68.239  1.00  0.00    -0.100 C  
HETATM   22  O   UNL     1      -6.528  10.824  67.574  1.00  0.00    -0.056 OA 
BRANCH  21  23
HETATM   23  C   UNL     1      -8.576   9.817  68.206  1.00  0.00    -0.119 C  
HETATM   24  H   UNL     1     -10.169   9.426  67.188  1.00  0.00     0.000 HD 
HETATM   25  O   UNL     1      -9.521  10.120  67.209  1.00  0.00    -0.151 OA 
BRANCH  23  26
HETATM   26  C   UNL     1      -9.320   9.581  69.556  1.00  0.00    -0.190 C  
HETATM   27  H   UNL     1     -11.132   9.757  70.224  1.00  0.00     0.000 HD 
HETATM   28  O   UNL     1     -10.679   9.901  69.402  1.00  0.00    -0.211 OA 
BRANCH  26  29
HETATM   29  C   UNL     1      -9.185   8.164  70.213  1.00  0.00    -0.151 C  
BRANCH  29  30
HETATM   30  O   UNL     1      -9.908   7.266  69.384  1.00  0.00    -0.161 OA 
BRANCH  30  31
HETATM   31  C   UNL     1      -9.132   6.322  68.674  1.00  0.00    -0.126 C  
HETATM   32  O   UNL     1      -9.221   6.567  67.281  1.00  0.00    -0.119 OA 
HETATM   33  C   UNL     1      -8.433   5.635  66.556  1.00  0.00    -0.114 C  
HETATM   34  H   UNL     1     -10.005   3.803  70.590  1.00  0.00     0.000 HD 
HETATM   35  C   UNL     1      -9.018   4.207  66.711  1.00  0.00    -0.126 C  
HETATM   36  O   UNL     1     -10.343   4.163  66.239  1.00  0.00    -0.409 OA 
HETATM   37  C   UNL     1      -8.985   3.830  68.207  1.00  0.00    -0.125 C  
HETATM   38  O   UNL     1      -9.650   4.660  70.387  1.00  0.00    -0.164 OA 
HETATM   39  H   UNL     1     -10.701   3.288  66.335  1.00  0.00     0.000 HD 
HETATM   40  O   UNL     1      -9.605   2.591  68.444  1.00  0.00    -0.190 OA 
HETATM   41  C   UNL     1      -9.712   4.924  69.006  1.00  0.00    -0.175 C  
HETATM   42  H   UNL     1      -9.584   2.359  69.365  1.00  0.00     0.000 HD 
BRANCH  33  43
HETATM   43  C   UNL     1      -8.393   6.089  65.088  1.00  0.00    -0.140 C  
HETATM   44  O   UNL     1      -8.702   7.451  64.968  1.00  0.00    -0.355 OA 
HETATM   45  H   UNL     1      -8.677   7.732  64.061  1.00  0.00     0.000 HD 
ENDBRANCH  33  43
ENDBRANCH  30  31
ENDBRANCH  29  30
BRANCH  29  46
HETATM   46  C   UNL     1      -9.622   8.060  71.717  1.00  0.00    -0.176 C  
HETATM   47  O   UNL     1     -10.692   8.933  71.993  1.00  0.00    -0.339 OA 
HETATM   48  H   UNL     1     -10.956   8.871  72.903  1.00  0.00     0.000 HD 
BRANCH  46  49
HETATM   49  C   UNL     1      -8.473   8.199  72.743  1.00  0.00    -0.188 C  
HETATM   50  H   UNL     1      -8.214   7.970  74.667  1.00  0.00     0.000 HD 
HETATM   51  O   UNL     1      -8.919   7.884  74.036  1.00  0.00    -0.267 OA 
ENDBRANCH  46  49
ENDBRANCH  29  46
ENDBRANCH  26  29
ENDBRANCH  23  26
ENDBRANCH  21  23
ENDBRANCH  20  21
ENDBRANCH  19  20
ENDBRANCH  18  19
ENDBRANCH  16  18
ENDBRANCH  13  16
ENDBRANCH  10  13
ENDBRANCH   7  10
ENDBRANCH   4   7
ENDBRANCH   2   4
TORSDOF 17
ENDMDL
MODEL      272
REMARK 921   NORMALIZED FREE ENERGY PREDICTED BY IDOCK:   -3.94 KCAL/MOL
REMARK 922        TOTAL FREE ENERGY PREDICTED BY IDOCK:  -11.30 KCAL/MOL
REMARK 923 INTER-LIGAND FREE ENERGY PREDICTED BY IDOCK:   -9.63 KCAL/MOL
REMARK 924 INTRA-LIGAND FREE ENERGY PREDICTED BY IDOCK:   -1.67 KCAL/MOL
REMARK 927      BINDING AFFINITY PREDICTED BY RF-SCORE:    0.00 PKD
ROOT
HETATM    1  O   UNL     1     -11.319   3.965  64.724  1.00  0.00    -0.688 OA 
HETATM    2  C   UNL     1      -9.923   3.858  64.792  1.00  0.00    -0.200 C  
HETATM    3  H   UNL     1     -11.666   3.278  64.168  1.00  0.00     0.000 HD 
ENDROOT
BRANCH   2   4
HETATM    4  C   UNL     1      -9.361   4.970  65.693  1.00  0.00    -0.154 C  
HETATM    5  O   UNL     1      -9.193   4.472  66.996  1.00  0.00    -0.120 OA 
HETATM    6  H   UNL     1      -8.846   5.159  67.553  1.00  0.00     0.000 HD 
BRANCH   4   7
HETATM    7  C   UNL     1      -8.003   5.502  65.163  1.00  0.00    -0.110 C  
HETATM    8  H   UNL     1      -6.498   4.802  64.150  1.00  0.00     0.000 HD 
HETATM    9  O   UNL     1      -7.330   4.477  64.474  1.00  0.00    -0.068 OA 
BRANCH   7  10
HETATM   10  C   UNL     1      -8.185   6.714  64.213  1.00  0.00     0.028 C  
HETATM   11  H   UNL     1      -8.109   7.018  62.307  1.00  0.00     0.000 HD 
HETATM   12  O   UNL     1      -7.997   6.275  62.889  1.00  0.00    -0.099 OA 
BRANCH  10  13
HETATM   13  C   UNL     1      -7.200   7.880  64.501  1.00  0.00    -0.080 C  
HETATM   14  H   UNL     1      -5.845   8.872  63.524  1.00  0.00     0.000 HD 
HETATM   15  O   UNL     1      -6.448   8.159  63.348  1.00  0.00    -0.075 OA 
BRANCH  13  16
HETATM   16  C   UNL     1      -7.888   9.156  64.926  1.00  0.00    -0.117 C  
HETATM   17  O   UNL     1      -7.224  10.159  65.142  1.00  0.00    -0.134 OA 
BRANCH  16  18
HETATM   18  O   UNL     1      -9.225   9.207  65.084  1.00  0.00    -0.219 OA 
BRANCH  18  19
HETATM   19 CA   UNL     1     -10.279   7.739  66.693  1.00  0.00    -0.176 Ca 
BRANCH  19  20
HETATM   20  O   UNL     1     -11.333   6.270  68.302  1.00  0.00    -0.289 OA 
BRANCH  20  21
HETATM   21  C   UNL     1     -10.736   6.436  69.494  1.00  0.00    -0.289 C  
HETATM   22  O   UNL     1     -10.480   5.440  70.148  1.00  0.00    -0.273 OA 
BRANCH  21  23
HETATM   23  C   UNL     1     -10.539   7.807  70.103  1.00  0.00    -0.237 C  
HETATM   24  H   UNL     1      -9.058   8.810  70.828  1.00  0.00     0.000 HD 
HETATM   25  O   UNL     1      -9.182   7.950  70.446  1.00  0.00    -0.157 OA 
BRANCH  23  26
HETATM   26  C   UNL     1     -11.414   8.092  71.361  1.00  0.00    -0.258 C  
HETATM   27  H   UNL     1     -11.137   8.779  73.153  1.00  0.00     0.000 HD 
HETATM   28  O   UNL     1     -10.603   8.605  72.386  1.00  0.00    -0.331 OA 
BRANCH  26  29
HETATM   29  C   UNL     1     -12.668   9.014  71.171  1.00  0.00    -0.192 C  
BRANCH  29  30
HETATM   30  O   UNL     1     -12.235  10.340  71.435  1.00  0.00    -0.363 OA 
BRANCH  30  31
HETATM   31  C   UNL     1     -12.539  11.297  70.440  1.00  0.00    -0.210 C  
HETATM   32  O   UNL     1     -11.579  11.239  69.399  1.00  0.00    -0.261 OA 
HETATM   33  C   UNL     1     -11.881  12.184  68.384  1.00  0.00    -0.303 C  
HETATM   34  H   UNL     1     -13.404  13.618  72.594  1.00  0.00     0.000 HD 
HETATM   35  C   UNL     1     -11.730  13.625  68.936  1.00  0.00    -0.338 C  
HETATM   36  O   UNL     1     -10.419  13.842  69.399  1.00  0.00    -0.435 OA 
HETATM   37  C   UNL     1     -12.729  13.806  70.098  1.00  0.00    -0.091 C  
HETATM   38  O   UNL     1     -13.431  12.767  72.174  1.00  0.00    -0.530 OA 
HETATM   39  H   UNL     1     -10.327  14.724  69.737  1.00  0.00     0.000 HD 
HETATM   40  O   UNL     1     -12.573  15.054  70.728  1.00  0.00    -0.321 OA 
HETATM   41  C   UNL     1     -12.496  12.686  71.126  1.00  0.00    -0.228 C  
HETATM   42  H   UNL     1     -13.188  15.165  71.443  1.00  0.00     0.000 HD 
BRANCH  33  43
HETATM   43  C   UNL     1     -10.945  11.918  67.195  1.00  0.00    -0.269 C  
HETATM   44  O   UNL     1     -10.699  10.546  67.037  1.00  0.00    -0.262 OA 
HETATM   45  H   UNL     1     -10.122  10.382  66.302  1.00  0.00     0.000 HD 
ENDBRANCH  33  43
ENDBRANCH  30  31
ENDBRANCH  29  30
BRANCH  29  46
HETATM   46  C   UNL     1     -13.937   8.629  72.011  1.00  0.00    -0.446 C  
HETATM   47  O   UNL     1     -13.795   9.032  73.354  1.00  0.00    -1.173 OA 
HETATM   48  H   UNL     1     -14.562   8.799  73.862  1.00  0.00     0.000 HD 
BRANCH  46  49
HETATM   49  C   UNL     1     -14.380   7.153  71.888  1.00  0.00    -0.313 C  
HETATM   50  H   UNL     1     -13.558   5.419  71.513  1.00  0.00     0.000 HD 
HETATM   51  O   UNL     1     -13.286   6.326  71.589  1.00  0.00     0.153 OA 
ENDBRANCH  46  49
ENDBRANCH  29  46
ENDBRANCH  26  29
ENDBRANCH  23  26
ENDBRANCH  21  23
ENDBRANCH  20  21
ENDBRANCH  19  20
ENDBRANCH  18  19
ENDBRANCH  16  18
ENDBRANCH  13  16
ENDBRANCH  10  13
ENDBRANCH   7  10
ENDBRANCH   4   7
ENDBRANCH   2   4
TORSDOF 17
ENDMDL
MODEL      273
REMARK 921   NORMALIZED FREE ENERGY PREDICTED BY IDOCK:   -3.93 KCAL/MOL
REMARK 922        TOTAL FREE ENERGY PREDICTED BY IDOCK:  -11.27 KCAL/MOL
REMARK 923 INTER-LIGAND FREE ENERGY PREDICTED BY IDOCK:   -8.81 KCAL/MOL
REMARK 924 INTRA-LIGAND FREE ENERGY PREDICTED BY IDOCK:   -2.46 KCAL/MOL
REMARK 927      BINDING AFFINITY PREDICTED BY RF-SCORE:    0.00 PKD
ROOT
HETATM    1  O   UNL     1     -10.261  18.689  65.831  1.00  0.00    -0.533 OA 
HETATM    2  C   UNL     1     -10.805  19.324  66.956  1.00  0.00    -0.414 C  
HETATM    3  H   UNL     1     -10.774  18.906  65.062  1.00  0.00     0.000 HD 
ENDROOT
BRANCH   2   4
HETATM    4  C   UNL     1      -9.975  18.973  68.202  1.00  0.00    -0.382 C  
HETATM    5  O   UNL     1     -10.335  19.829  69.257  1.00  0.00    -0.636 OA 
HETATM    6  H   UNL     1      -9.822  19.612  70.026  1.00  0.00     0.000 HD 
BRANCH   4   7
HETATM    7  C   UNL     1     -10.191  17.499  68.634  1.00  0.00    -0.373 C  
HETATM    8  H   UNL     1     -11.466  16.079  68.262  1.00  0.00     0.000 HD 
HETATM    9  O   UNL     1     -11.334  16.981  67.996  1.00  0.00    -0.147 OA 
BRANCH   7  10
HETATM   10  C   UNL     1      -8.970  16.606  68.286  1.00  0.00    -0.214 C  
HETATM   11  H   UNL     1      -8.088  15.079  69.073  1.00  0.00     0.000 HD 
HETATM   12  O   UNL     1      -8.836  15.625  69.286  1.00  0.00    -0.236 OA 
BRANCH  10  13
HETATM   13  C   UNL     1      -7.638  17.397  68.175  1.00  0.00    -0.214 C  
HETATM   14  H   UNL     1      -5.925  17.433  69.089  1.00  0.00     0.000 HD 
HETATM   15  O   UNL     1      -6.740  16.949  69.158  1.00  0.00    -0.209 OA 
BRANCH  13  16
HETATM   16  C   UNL     1      -6.965  17.253  66.831  1.00  0.00    -0.194 C  
HETATM   17  O   UNL     1      -7.209  18.055  65.942  1.00  0.00    -0.389 OA 
BRANCH  16  18
HETATM   18  O   UNL     1      -6.104  16.245  66.587  1.00  0.00    -0.286 OA 
BRANCH  18  19
HETATM   19 CA   UNL     1      -6.420  14.127  67.714  1.00  0.00    -0.085 Ca 
BRANCH  19  20
HETATM   20  O   UNL     1      -6.738  12.009  68.840  1.00  0.00    -0.081 OA 
BRANCH  20  21
HETATM   21  C   UNL     1      -6.774  11.031  67.919  1.00  0.00    -0.063 C  
HETATM   22  O   UNL     1      -7.055  11.337  66.773  1.00  0.00    -0.133 OA 
BRANCH  21  23
HETATM   23  C   UNL     1      -6.647   9.573  68.299  1.00  0.00    -0.057 C  
HETATM   24  H   UNL     1      -5.377   8.154  67.982  1.00  0.00     0.000 HD 
HETATM   25  O   UNL     1      -5.457   9.070  67.743  1.00  0.00    -0.035 OA 
BRANCH  23  26
HETATM   26  C   UNL     1      -7.839   8.676  67.845  1.00  0.00    -0.103 C  
HETATM   27  H   UNL     1      -8.190   6.779  67.651  1.00  0.00     0.000 HD 
HETATM   28  O   UNL     1      -7.463   7.325  67.928  1.00  0.00    -0.097 OA 
BRANCH  26  29
HETATM   29  C   UNL     1      -9.214   8.885  68.569  1.00  0.00    -0.137 C  
BRANCH  29  30
HETATM   30  O   UNL     1      -9.431   7.727  69.361  1.00  0.00    -0.156 OA 
BRANCH  30  31
HETATM   31  C   UNL     1      -9.990   7.951  70.639  1.00  0.00    -0.186 C  
HETATM   32  O   UNL     1      -8.975   7.919  71.629  1.00  0.00    -0.127 OA 
HETATM   33  C   UNL     1      -9.522   8.159  72.917  1.00  0.00    -0.275 C  
HETATM   34  H   UNL     1     -12.649   6.114  70.064  1.00  0.00     0.000 HD 
HETATM   35  C   UNL     1     -10.461   6.993  73.323  1.00  0.00    -0.330 C  
HETATM   36  O   UNL     1      -9.758   5.774  73.334  1.00  0.00    -0.149 OA 
HETATM   37  C   UNL     1     -11.613   6.921  72.299  1.00  0.00    -0.270 C  
HETATM   38  O   UNL     1     -12.024   6.812  69.911  1.00  0.00    -0.244 OA 
HETATM   39  H   UNL     1     -10.334   5.061  73.583  1.00  0.00     0.000 HD 
HETATM   40  O   UNL     1     -12.448   5.814  72.534  1.00  0.00    -0.461 OA 
HETATM   41  C   UNL     1     -11.011   6.812  70.888  1.00  0.00    -0.260 C  
HETATM   42  H   UNL     1     -13.158   5.770  71.904  1.00  0.00     0.000 HD 
BRANCH  33  43
HETATM   43  C   UNL     1      -8.355   8.333  73.901  1.00  0.00    -0.194 C  
HETATM   44  O   UNL     1      -7.344   7.390  73.665  1.00  0.00    -0.090 OA 
HETATM   45  H   UNL     1      -6.623   7.498  74.273  1.00  0.00     0.000 HD 
ENDBRANCH  33  43
ENDBRANCH  30  31
ENDBRANCH  29  30
BRANCH  29  46
HETATM   46  C   UNL     1     -10.438   9.202  67.639  1.00  0.00    -0.261 C  
HETATM   47  O   UNL     1     -10.109   8.998  66.284  1.00  0.00    -0.295 OA 
HETATM   48  H   UNL     1     -10.849   9.189  65.722  1.00  0.00     0.000 HD 
BRANCH  46  49
HETATM   49  C   UNL     1     -11.103  10.577  67.879  1.00  0.00    -0.304 C  
HETATM   50  H   UNL     1     -10.627  12.465  67.714  1.00  0.00     0.000 HD 
HETATM   51  O   UNL     1     -10.218  11.620  67.567  1.00  0.00    -0.191 OA 
ENDBRANCH  46  49
ENDBRANCH  29  46
ENDBRANCH  26  29
ENDBRANCH  23  26
ENDBRANCH  21  23
ENDBRANCH  20  21
ENDBRANCH  19  20
ENDBRANCH  18  19
ENDBRANCH  16  18
ENDBRANCH  13  16
ENDBRANCH  10  13
ENDBRANCH   7  10
ENDBRANCH   4   7
ENDBRANCH   2   4
TORSDOF 17
ENDMDL
MODEL      274
REMARK 921   NORMALIZED FREE ENERGY PREDICTED BY IDOCK:   -3.92 KCAL/MOL
REMARK 922        TOTAL FREE ENERGY PREDICTED BY IDOCK:  -11.26 KCAL/MOL
REMARK 923 INTER-LIGAND FREE ENERGY PREDICTED BY IDOCK:   -8.64 KCAL/MOL
REMARK 924 INTRA-LIGAND FREE ENERGY PREDICTED BY IDOCK:   -2.62 KCAL/MOL
REMARK 927      BINDING AFFINITY PREDICTED BY RF-SCORE:    0.00 PKD
ROOT
HETATM    1  O   UNL     1      -6.167   7.560  68.481  1.00  0.00    -0.030 OA 
HETATM    2  C   UNL     1      -6.522   6.740  67.401  1.00  0.00    -0.049 C  
HETATM    3  H   UNL     1      -5.324   7.965  68.312  1.00  0.00     0.000 HD 
ENDROOT
BRANCH   2   4
HETATM    4  C   UNL     1      -7.887   6.086  67.674  1.00  0.00    -0.101 C  
HETATM    5  O   UNL     1      -8.631   6.047  66.482  1.00  0.00    -0.118 OA 
HETATM    6  H   UNL     1      -9.474   5.643  66.651  1.00  0.00     0.000 HD 
BRANCH   4   7
HETATM    7  C   UNL     1      -7.727   4.647  68.231  1.00  0.00    -0.081 C  
HETATM    8  H   UNL     1      -6.410   3.658  69.264  1.00  0.00     0.000 HD 
HETATM    9  O   UNL     1      -6.507   4.539  68.924  1.00  0.00    -0.034 OA 
BRANCH   7  10
HETATM   10  C   UNL     1      -8.887   4.263  69.188  1.00  0.00    -0.091 C  
HETATM   11  H   UNL     1     -10.681   4.891  69.529  1.00  0.00     0.000 HD 
HETATM   12  O   UNL     1      -9.971   5.126  68.943  1.00  0.00    -0.159 OA 
BRANCH  10  13
HETATM   13  C   UNL     1      -8.504   4.352  70.691  1.00  0.00    -0.082 C  
HETATM   14  H   UNL     1      -8.227   5.752  72.008  1.00  0.00     0.000 HD 
HETATM   15  O   UNL     1      -8.461   5.698  71.089  1.00  0.00    -0.123 OA 
BRANCH  13  16
HETATM   16  C   UNL     1      -9.470   3.629  71.601  1.00  0.00    -0.145 C  
HETATM   17  O   UNL     1      -9.360   2.424  71.765  1.00  0.00    -0.089 OA 
BRANCH  16  18
HETATM   18  O   UNL     1     -10.462   4.290  72.229  1.00  0.00    -0.170 OA 
BRANCH  18  19
HETATM   19 CA   UNL     1     -10.578   6.700  72.039  1.00  0.00    -0.199 Ca 
BRANCH  19  20
HETATM   20  O   UNL     1     -10.694   9.110  71.849  1.00  0.00    -0.357 OA 
BRANCH  20  21
HETATM   21  C   UNL     1     -11.580   9.425  70.888  1.00  0.00    -0.312 C  
HETATM   22  O   UNL     1     -12.762   9.447  71.187  1.00  0.00    -0.315 OA 
BRANCH  21  23
HETATM   23  C   UNL     1     -11.166   9.578  69.442  1.00  0.00    -0.035 C  
HETATM   24  H   UNL     1     -10.340   8.460  68.102  1.00  0.00     0.000 HD 
HETATM   25  O   UNL     1     -10.600   8.364  69.011  1.00  0.00    -0.218 OA 
BRANCH  23  26
HETATM   26  C   UNL     1     -10.155  10.733  69.173  1.00  0.00    -0.205 C  
HETATM   27  H   UNL     1      -8.245  10.905  68.883  1.00  0.00     0.000 HD 
HETATM   28  O   UNL     1      -8.861  10.201  69.047  1.00  0.00    -0.145 OA 
BRANCH  26  29
HETATM   29  C   UNL     1     -10.453  11.683  67.962  1.00  0.00    -0.194 C  
BRANCH  29  30
HETATM   30  O   UNL     1     -11.598  12.443  68.321  1.00  0.00    -0.289 OA 
BRANCH  30  31
HETATM   31  C   UNL     1     -11.464  13.254  69.470  1.00  0.00    -0.234 C  
HETATM   32  O   UNL     1     -12.662  13.229  70.227  1.00  0.00    -0.133 OA 
HETATM   33  C   UNL     1     -12.535  14.029  71.394  1.00  0.00    -0.356 C  
HETATM   34  H   UNL     1      -9.829  15.628  67.899  1.00  0.00     0.000 HD 
HETATM   35  C   UNL     1     -12.385  15.522  71.003  1.00  0.00    -0.416 C  
HETATM   36  O   UNL     1     -13.500  15.953  70.262  1.00  0.00    -0.646 OA 
HETATM   37  C   UNL     1     -11.105  15.673  70.155  1.00  0.00    -0.336 C  
HETATM   38  O   UNL     1     -10.003  14.746  68.204  1.00  0.00    -0.214 OA 
HETATM   39  H   UNL     1     -13.407  16.868  70.023  1.00  0.00     0.000 HD 
HETATM   40  O   UNL     1     -10.959  16.984  69.665  1.00  0.00    -0.379 OA 
HETATM   41  C   UNL     1     -11.181  14.694  68.972  1.00  0.00    -0.269 C  
HETATM   42  H   UNL     1     -10.171  17.077  69.143  1.00  0.00     0.000 HD 
BRANCH  33  43
HETATM   43  C   UNL     1     -13.771  13.781  72.274  1.00  0.00    -0.575 C  
HETATM   44  O   UNL     1     -13.955  12.413  72.520  1.00  0.00    -0.470 OA 
HETATM   45  H   UNL     1     -14.718  12.260  73.064  1.00  0.00     0.000 HD 
ENDBRANCH  33  43
ENDBRANCH  30  31
ENDBRANCH  29  30
BRANCH  29  46
HETATM   46  C   UNL     1     -10.621  10.985  66.567  1.00  0.00    -0.254 C  
HETATM   47  O   UNL     1      -9.843   9.814  66.491  1.00  0.00    -0.196 OA 
HETATM   48  H   UNL     1      -9.945   9.391  65.647  1.00  0.00     0.000 HD 
BRANCH  46  49
HETATM   49  C   UNL     1     -10.411  11.907  65.344  1.00  0.00    -0.267 C  
HETATM   50  H   UNL     1     -10.722  11.849  63.415  1.00  0.00     0.000 HD 
HETATM   51  O   UNL     1     -10.852  11.283  64.167  1.00  0.00    -0.357 OA 
ENDBRANCH  46  49
ENDBRANCH  29  46
ENDBRANCH  26  29
ENDBRANCH  23  26
ENDBRANCH  21  23
ENDBRANCH  20  21
ENDBRANCH  19  20
ENDBRANCH  18  19
ENDBRANCH  16  18
ENDBRANCH  13  16
ENDBRANCH  10  13
ENDBRANCH   7  10
ENDBRANCH   4   7
ENDBRANCH   2   4
TORSDOF 17
ENDMDL
MODEL      275
REMARK 921   NORMALIZED FREE ENERGY PREDICTED BY IDOCK:   -3.91 KCAL/MOL
REMARK 922        TOTAL FREE ENERGY PREDICTED BY IDOCK:  -11.23 KCAL/MOL
REMARK 923 INTER-LIGAND FREE ENERGY PREDICTED BY IDOCK:   -7.21 KCAL/MOL
REMARK 924 INTRA-LIGAND FREE ENERGY PREDICTED BY IDOCK:   -4.02 KCAL/MOL
REMARK 927      BINDING AFFINITY PREDICTED BY RF-SCORE:    0.00 PKD
ROOT
HETATM    1  O   UNL     1     -12.947  11.569  70.995  1.00  0.00    -0.290 OA 
HETATM    2  C   UNL     1     -12.314  10.355  70.698  1.00  0.00    -0.346 C  
HETATM    3  H   UNL     1     -13.813  11.400  71.349  1.00  0.00     0.000 HD 
ENDROOT
BRANCH   2   4
HETATM    4  C   UNL     1     -10.913  10.629  70.125  1.00  0.00    -0.222 C  
HETATM    5  O   UNL     1     -10.038   9.606  70.528  1.00  0.00    -0.264 OA 
HETATM    6  H   UNL     1      -9.172   9.775  70.174  1.00  0.00     0.000 HD 
BRANCH   4   7
HETATM    7  C   UNL     1     -10.936  10.709  68.575  1.00  0.00    -0.248 C  
HETATM    8  H   UNL     1     -12.231  11.143  67.191  1.00  0.00     0.000 HD 
HETATM    9  O   UNL     1     -12.217  11.094  68.140  1.00  0.00    -0.612 OA 
BRANCH   7  10
HETATM   10  C   UNL     1      -9.892  11.719  68.030  1.00  0.00    -0.183 C  
HETATM   11  H   UNL     1      -9.765  12.918  66.521  1.00  0.00     0.000 HD 
HETATM   12  O   UNL     1     -10.405  12.299  66.855  1.00  0.00    -0.215 OA 
BRANCH  10  13
HETATM   13  C   UNL     1      -8.514  11.076  67.714  1.00  0.00    -0.122 C  
HETATM   14  H   UNL     1      -6.834  10.784  68.643  1.00  0.00     0.000 HD 
HETATM   15  O   UNL     1      -7.676  11.178  68.836  1.00  0.00    -0.131 OA 
BRANCH  13  16
HETATM   16  C   UNL     1      -8.606   9.616  67.335  1.00  0.00    -0.125 C  
HETATM   17  O   UNL     1      -8.526   9.289  66.161  1.00  0.00    -0.122 OA 
BRANCH  16  18
HETATM   18  O   UNL     1      -8.788   8.664  68.271  1.00  0.00    -0.140 OA 
BRANCH  18  19
HETATM   19 CA   UNL     1      -7.584   8.824  70.365  1.00  0.00    -0.053 Ca 
BRANCH  19  20
HETATM   20  O   UNL     1      -6.381   8.985  72.458  1.00  0.00    -0.251 OA 
BRANCH  20  21
HETATM   21  C   UNL     1      -7.084   8.349  73.410  1.00  0.00    -0.074 C  
HETATM   22  O   UNL     1      -7.395   8.979  74.407  1.00  0.00    -0.418 OA 
BRANCH  21  23
HETATM   23  C   UNL     1      -7.341   6.860  73.351  1.00  0.00    -0.077 C  
HETATM   24  H   UNL     1      -6.550   5.343  72.456  1.00  0.00     0.000 HD 
HETATM   25  O   UNL     1      -6.389   6.278  72.493  1.00  0.00    -0.055 OA 
BRANCH  23  26
HETATM   26  C   UNL     1      -8.769   6.464  72.868  1.00  0.00    -0.124 C  
HETATM   27  H   UNL     1     -10.339   7.380  72.191  1.00  0.00     0.000 HD 
HETATM   28  O   UNL     1      -9.468   7.621  72.485  1.00  0.00    -0.149 OA 
BRANCH  26  29
HETATM   29  C   UNL     1      -8.873   5.388  71.733  1.00  0.00    -0.135 C  
BRANCH  29  30
HETATM   30  O   UNL     1      -8.928   6.101  70.507  1.00  0.00    -0.144 OA 
BRANCH  30  31
HETATM   31  C   UNL     1      -9.161   5.321  69.351  1.00  0.00    -0.114 C  
HETATM   32  O   UNL     1      -7.973   5.220  68.584  1.00  0.00    -0.086 OA 
HETATM   33  C   UNL     1      -8.188   4.426  67.427  1.00  0.00    -0.100 C  
HETATM   34  H   UNL     1     -12.122   6.617  68.777  1.00  0.00     0.000 HD 
HETATM   35  C   UNL     1      -9.179   5.137  66.469  1.00  0.00    -0.136 C  
HETATM   36  O   UNL     1      -8.677   6.393  66.084  1.00  0.00    -0.138 OA 
HETATM   37  C   UNL     1     -10.522   5.316  67.207  1.00  0.00    -0.173 C  
HETATM   38  O   UNL     1     -11.448   6.173  69.278  1.00  0.00    -0.404 OA 
HETATM   39  H   UNL     1      -9.284   6.829  65.497  1.00  0.00     0.000 HD 
HETATM   40  O   UNL     1     -11.440   6.057  66.442  1.00  0.00    -0.668 OA 
HETATM   41  C   UNL     1     -10.260   6.046  68.535  1.00  0.00    -0.184 C  
HETATM   42  H   UNL     1     -12.267   6.167  66.896  1.00  0.00     0.000 HD 
BRANCH  33  43
HETATM   43  C   UNL     1      -6.824   4.171  66.767  1.00  0.00    -0.055 C  
HETATM   44  O   UNL     1      -6.000   5.303  66.848  1.00  0.00    -0.021 OA 
HETATM   45  H   UNL     1      -5.157   5.145  66.440  1.00  0.00     0.000 HD 
ENDBRANCH  33  43
ENDBRANCH  30  31
ENDBRANCH  29  30
BRANCH  29  46
HETATM   46  C   UNL     1     -10.049   4.357  71.870  1.00  0.00    -0.174 C  
HETATM   47  O   UNL     1     -11.221   4.987  72.330  1.00  0.00    -0.159 OA 
HETATM   48  H   UNL     1     -11.933   4.364  72.413  1.00  0.00     0.000 HD 
BRANCH  46  49
HETATM   49  C   UNL     1      -9.712   3.084  72.681  1.00  0.00    -0.132 C  
HETATM   50  H   UNL     1     -10.464   2.081  74.181  1.00  0.00     0.000 HD 
HETATM   51  O   UNL     1     -10.671   2.863  73.683  1.00  0.00    -0.164 OA 
ENDBRANCH  46  49
ENDBRANCH  29  46
ENDBRANCH  26  29
ENDBRANCH  23  26
ENDBRANCH  21  23
ENDBRANCH  20  21
ENDBRANCH  19  20
ENDBRANCH  18  19
ENDBRANCH  16  18
ENDBRANCH  13  16
ENDBRANCH  10  13
ENDBRANCH   7  10
ENDBRANCH   4   7
ENDBRANCH   2   4
TORSDOF 17
ENDMDL
MODEL      276
REMARK 921   NORMALIZED FREE ENERGY PREDICTED BY IDOCK:   -3.90 KCAL/MOL
REMARK 922        TOTAL FREE ENERGY PREDICTED BY IDOCK:  -11.22 KCAL/MOL
REMARK 923 INTER-LIGAND FREE ENERGY PREDICTED BY IDOCK:  -10.18 KCAL/MOL
REMARK 924 INTRA-LIGAND FREE ENERGY PREDICTED BY IDOCK:   -1.04 KCAL/MOL
REMARK 927      BINDING AFFINITY PREDICTED BY RF-SCORE:    0.00 PKD
ROOT
HETATM    1  O   UNL     1      -9.606   9.946  62.949  1.00  0.00    -0.501 OA 
HETATM    2  C   UNL     1      -8.649   8.925  63.039  1.00  0.00    -0.130 C  
HETATM    3  H   UNL     1     -10.354   9.639  62.450  1.00  0.00     0.000 HD 
ENDROOT
BRANCH   2   4
HETATM    4  C   UNL     1      -7.438   9.420  63.848  1.00  0.00    -0.116 C  
HETATM    5  O   UNL     1      -7.608  10.783  64.150  1.00  0.00    -0.353 OA 
HETATM    6  H   UNL     1      -6.860  11.089  64.650  1.00  0.00     0.000 HD 
BRANCH   4   7
HETATM    7  C   UNL     1      -7.264   8.617  65.163  1.00  0.00    -0.087 C  
HETATM    8  H   UNL     1      -6.138   8.704  66.746  1.00  0.00     0.000 HD 
HETATM    9  O   UNL     1      -6.245   9.197  65.941  1.00  0.00    -0.058 OA 
BRANCH   7  10
HETATM   10  C   UNL     1      -8.573   8.575  65.996  1.00  0.00    -0.143 C  
HETATM   11  H   UNL     1      -9.527   9.786  67.158  1.00  0.00     0.000 HD 
HETATM   12  O   UNL     1      -8.726   9.812  66.649  1.00  0.00    -0.130 OA 
BRANCH  10  13
HETATM   13  C   UNL     1      -8.595   7.440  67.056  1.00  0.00    -0.119 C  
HETATM   14  H   UNL     1      -8.833   7.294  68.979  1.00  0.00     0.000 HD 
HETATM   15  O   UNL     1      -8.819   7.988  68.330  1.00  0.00    -0.133 OA 
BRANCH  13  16
HETATM   16  C   UNL     1      -9.664   6.403  66.803  1.00  0.00    -0.158 C  
HETATM   17  O   UNL     1      -9.351   5.305  66.369  1.00  0.00    -0.137 OA 
BRANCH  16  18
HETATM   18  O   UNL     1     -10.964   6.671  67.037  1.00  0.00    -0.376 OA 
BRANCH  18  19
HETATM   19 CA   UNL     1     -11.619   8.932  67.601  1.00  0.00    -0.514 Ca 
BRANCH  19  20
HETATM   20  O   UNL     1     -12.273  11.192  68.165  1.00  0.00    -0.612 OA 
BRANCH  20  21
HETATM   21  C   UNL     1     -11.345  12.041  67.692  1.00  0.00    -0.307 C  
HETATM   22  O   UNL     1     -10.278  12.106  68.279  1.00  0.00    -0.198 OA 
BRANCH  21  23
HETATM   23  C   UNL     1     -11.652  13.019  66.579  1.00  0.00    -0.356 C  
HETATM   24  H   UNL     1     -12.373  12.915  64.792  1.00  0.00     0.000 HD 
HETATM   25  O   UNL     1     -12.180  12.301  65.490  1.00  0.00    -0.577 OA 
BRANCH  23  26
HETATM   26  C   UNL     1     -10.430  13.855  66.093  1.00  0.00    -0.297 C  
HETATM   27  H   UNL     1      -9.648  14.362  64.392  1.00  0.00     0.000 HD 
HETATM   28  O   UNL     1     -10.392  13.852  64.689  1.00  0.00    -0.432 OA 
BRANCH  26  29
HETATM   29  C   UNL     1     -10.311  15.328  66.618  1.00  0.00    -0.280 C  
BRANCH  29  30
HETATM   30  O   UNL     1      -9.080  15.833  66.120  1.00  0.00    -0.307 OA 
BRANCH  30  31
HETATM   31  C   UNL     1      -8.676  17.085  66.636  1.00  0.00    -0.251 C  
HETATM   32  O   UNL     1      -9.464  18.121  66.074  1.00  0.00    -0.503 OA 
HETATM   33  C   UNL     1      -9.079  19.384  66.594  1.00  0.00    -0.346 C  
HETATM   34  H   UNL     1      -5.475  16.367  66.530  1.00  0.00     0.000 HD 
HETATM   35  C   UNL     1      -7.640  19.734  66.134  1.00  0.00    -0.320 C  
HETATM   36  O   UNL     1      -7.565  19.767  64.730  1.00  0.00     0.065 OA 
HETATM   37  C   UNL     1      -6.681  18.656  66.682  1.00  0.00    -0.195 C  
HETATM   38  O   UNL     1      -6.385  16.251  66.773  1.00  0.00    -0.298 OA 
HETATM   39  H   UNL     1      -6.683  19.981  64.449  1.00  0.00     0.000 HD 
HETATM   40  O   UNL     1      -5.369  18.842  66.212  1.00  0.00    -0.139 OA 
HETATM   41  C   UNL     1      -7.190  17.275  66.239  1.00  0.00    -0.300 C  
HETATM   42  H   UNL     1      -4.779  18.178  66.549  1.00  0.00     0.000 HD 
BRANCH  33  43
HETATM   43  C   UNL     1     -10.107  20.425  66.123  1.00  0.00    -0.181 C  
HETATM   44  O   UNL     1     -11.089  19.839  65.311  1.00  0.00    -0.395 OA 
HETATM   45  H   UNL     1     -11.725  20.482  65.021  1.00  0.00     0.000 HD 
ENDBRANCH  33  43
ENDBRANCH  30  31
ENDBRANCH  29  30
BRANCH  29  46
HETATM   46  C   UNL     1     -10.440  15.515  68.171  1.00  0.00    -0.259 C  
HETATM   47  O   UNL     1     -11.399  16.499  68.483  1.00  0.00    -0.356 OA 
HETATM   48  H   UNL     1     -11.478  16.612  69.422  1.00  0.00     0.000 HD 
BRANCH  46  49
HETATM   49  C   UNL     1      -9.105  15.743  68.916  1.00  0.00    -0.225 C  
HETATM   50  H   UNL     1      -7.506  14.715  69.372  1.00  0.00     0.000 HD 
HETATM   51  O   UNL     1      -8.327  14.575  68.914  1.00  0.00    -0.157 OA 
ENDBRANCH  46  49
ENDBRANCH  29  46
ENDBRANCH  26  29
ENDBRANCH  23  26
ENDBRANCH  21  23
ENDBRANCH  20  21
ENDBRANCH  19  20
ENDBRANCH  18  19
ENDBRANCH  16  18
ENDBRANCH  13  16
ENDBRANCH  10  13
ENDBRANCH   7  10
ENDBRANCH   4   7
ENDBRANCH   2   4
TORSDOF 17
ENDMDL
MODEL      277
REMARK 921   NORMALIZED FREE ENERGY PREDICTED BY IDOCK:   -3.90 KCAL/MOL
REMARK 922        TOTAL FREE ENERGY PREDICTED BY IDOCK:  -11.22 KCAL/MOL
REMARK 923 INTER-LIGAND FREE ENERGY PREDICTED BY IDOCK:   -8.62 KCAL/MOL
REMARK 924 INTRA-LIGAND FREE ENERGY PREDICTED BY IDOCK:   -2.60 KCAL/MOL
REMARK 927      BINDING AFFINITY PREDICTED BY RF-SCORE:    0.00 PKD
ROOT
HETATM    1  O   UNL     1     -11.375   5.230  72.767  1.00  0.00    -0.285 OA 
HETATM    2  C   UNL     1     -12.393   6.189  72.670  1.00  0.00     0.201 C  
HETATM    3  H   UNL     1     -11.457   4.759  73.587  1.00  0.00     0.000 HD 
ENDROOT
BRANCH   2   4
HETATM    4  C   UNL     1     -12.259   6.953  71.341  1.00  0.00    -0.372 C  
HETATM    5  O   UNL     1     -13.491   7.552  71.024  1.00  0.00    -0.594 OA 
HETATM    6  H   UNL     1     -13.408   8.024  70.203  1.00  0.00     0.000 HD 
BRANCH   4   7
HETATM    7  C   UNL     1     -11.158   8.043  71.418  1.00  0.00    -0.241 C  
HETATM    8  H   UNL     1      -9.849   8.655  72.719  1.00  0.00     0.000 HD 
HETATM    9  O   UNL     1     -10.523   7.987  72.672  1.00  0.00    -0.289 OA 
BRANCH   7  10
HETATM   10  C   UNL     1     -10.092   7.871  70.304  1.00  0.00    -0.196 C  
HETATM   11  H   UNL     1      -9.912   8.389  68.452  1.00  0.00     0.000 HD 
HETATM   12  O   UNL     1     -10.565   8.494  69.134  1.00  0.00    -0.223 OA 
BRANCH  10  13
HETATM   13  C   UNL     1      -9.765   6.386  69.985  1.00  0.00    -0.165 C  
HETATM   14  H   UNL     1      -8.995   5.384  68.510  1.00  0.00     0.000 HD 
HETATM   15  O   UNL     1      -9.195   6.293  68.705  1.00  0.00    -0.126 OA 
BRANCH  13  16
HETATM   16  C   UNL     1      -8.804   5.759  70.968  1.00  0.00    -0.138 C  
HETATM   17  O   UNL     1      -8.995   4.617  71.357  1.00  0.00    -0.123 OA 
BRANCH  16  18
HETATM   18  O   UNL     1      -7.740   6.443  71.434  1.00  0.00    -0.096 OA 
BRANCH  18  19
HETATM   19 CA   UNL     1      -6.544   7.925  69.941  1.00  0.00    -0.033 Ca 
BRANCH  19  20
HETATM   20  O   UNL     1      -5.348   9.406  68.448  1.00  0.00    -0.037 OA 
BRANCH  20  21
HETATM   21  C   UNL     1      -5.930  10.618  68.483  1.00  0.00    -0.039 C  
HETATM   22  O   UNL     1      -6.051  11.160  69.569  1.00  0.00    -0.061 OA 
BRANCH  21  23
HETATM   23  C   UNL     1      -6.577  11.228  67.260  1.00  0.00    -0.093 C  
HETATM   24  H   UNL     1      -6.160  12.652  66.026  1.00  0.00     0.000 HD 
HETATM   25  O   UNL     1      -5.753  12.269  66.795  1.00  0.00    -0.307 OA 
BRANCH  23  26
HETATM   26  C   UNL     1      -8.015  11.782  67.493  1.00  0.00    -0.148 C  
HETATM   27  H   UNL     1      -8.928  13.480  67.286  1.00  0.00     0.000 HD 
HETATM   28  O   UNL     1      -8.052  13.142  67.145  1.00  0.00    -0.168 OA 
BRANCH  26  29
HETATM   29  C   UNL     1      -9.199  11.028  66.796  1.00  0.00    -0.161 C  
BRANCH  29  30
HETATM   30  O   UNL     1     -10.334  11.202  67.631  1.00  0.00    -0.182 OA 
BRANCH  30  31
HETATM   31  C   UNL     1     -11.384  11.977  67.089  1.00  0.00    -0.333 C  
HETATM   32  O   UNL     1     -11.144  12.230  65.715  1.00  0.00    -0.298 OA 
HETATM   33  C   UNL     1     -12.200  12.995  65.153  1.00  0.00    -0.459 C  
HETATM   34  H   UNL     1     -11.652  13.905  69.732  1.00  0.00     0.000 HD 
HETATM   35  C   UNL     1     -12.226  14.411  65.783  1.00  0.00    -0.343 C  
HETATM   36  O   UNL     1     -11.004  15.072  65.563  1.00  0.00    -0.328 OA 
HETATM   37  C   UNL     1     -12.472  14.262  67.299  1.00  0.00     0.093 C  
HETATM   38  O   UNL     1     -11.635  13.088  69.249  1.00  0.00    -0.279 OA 
HETATM   39  H   UNL     1     -11.021  15.940  65.949  1.00  0.00     0.000 HD 
HETATM   40  O   UNL     1     -12.396  15.500  67.962  1.00  0.00    -0.277 OA 
HETATM   41  C   UNL     1     -11.412  13.310  67.878  1.00  0.00    -0.306 C  
HETATM   42  H   UNL     1     -12.548  15.408  68.895  1.00  0.00     0.000 HD 
BRANCH  33  43
HETATM   43  C   UNL     1     -11.993  13.041  63.631  1.00  0.00    -0.539 C  
HETATM   44  O   UNL     1     -12.368  14.285  63.104  1.00  0.00    -1.096 OA 
HETATM   45  H   UNL     1     -12.239  14.314  62.163  1.00  0.00     0.000 HD 
ENDBRANCH  33  43
ENDBRANCH  30  31
ENDBRANCH  29  30
BRANCH  29  46
HETATM   46  C   UNL     1      -8.944   9.517  66.454  1.00  0.00    -0.154 C  
HETATM   47  O   UNL     1      -8.321   8.855  67.530  1.00  0.00    -0.109 OA 
HETATM   48  H   UNL     1      -8.167   7.941  67.323  1.00  0.00     0.000 HD 
BRANCH  46  49
HETATM   49  C   UNL     1      -8.221   9.263  65.112  1.00  0.00    -0.141 C  
HETATM   50  H   UNL     1      -8.218  10.006  63.304  1.00  0.00     0.000 HD 
HETATM   51  O   UNL     1      -8.662  10.163  64.129  1.00  0.00    -0.172 OA 
ENDBRANCH  46  49
ENDBRANCH  29  46
ENDBRANCH  26  29
ENDBRANCH  23  26
ENDBRANCH  21  23
ENDBRANCH  20  21
ENDBRANCH  19  20
ENDBRANCH  18  19
ENDBRANCH  16  18
ENDBRANCH  13  16
ENDBRANCH  10  13
ENDBRANCH   7  10
ENDBRANCH   4   7
ENDBRANCH   2   4
TORSDOF 17
ENDMDL
MODEL      278
REMARK 921   NORMALIZED FREE ENERGY PREDICTED BY IDOCK:   -3.90 KCAL/MOL
REMARK 922        TOTAL FREE ENERGY PREDICTED BY IDOCK:  -11.21 KCAL/MOL
REMARK 923 INTER-LIGAND FREE ENERGY PREDICTED BY IDOCK:   -9.11 KCAL/MOL
REMARK 924 INTRA-LIGAND FREE ENERGY PREDICTED BY IDOCK:   -2.10 KCAL/MOL
REMARK 927      BINDING AFFINITY PREDICTED BY RF-SCORE:    0.00 PKD
ROOT
HETATM    1  O   UNL     1     -11.996   6.665  69.285  1.00  0.00    -0.545 OA 
HETATM    2  C   UNL     1     -10.635   6.458  69.018  1.00  0.00    -0.257 C  
HETATM    3  H   UNL     1     -12.223   7.569  69.105  1.00  0.00     0.000 HD 
ENDROOT
BRANCH   2   4
HETATM    4  C   UNL     1     -10.267   4.993  69.308  1.00  0.00    -0.174 C  
HETATM    5  O   UNL     1      -9.438   4.511  68.281  1.00  0.00    -0.134 OA 
HETATM    6  H   UNL     1      -9.210   3.606  68.460  1.00  0.00     0.000 HD 
BRANCH   4   7
HETATM    7  C   UNL     1      -9.540   4.847  70.671  1.00  0.00    -0.186 C  
HETATM    8  H   UNL     1      -8.425   3.522  71.555  1.00  0.00     0.000 HD 
HETATM    9  O   UNL     1      -8.870   3.612  70.720  1.00  0.00    -0.071 OA 
BRANCH   7  10
HETATM   10  C   UNL     1      -8.515   5.988  70.907  1.00  0.00    -0.127 C  
HETATM   11  H   UNL     1      -6.665   6.318  70.457  1.00  0.00     0.000 HD 
HETATM   12  O   UNL     1      -7.293   5.619  70.313  1.00  0.00    -0.071 OA 
BRANCH  10  13
HETATM   13  C   UNL     1      -8.270   6.300  72.409  1.00  0.00    -0.107 C  
HETATM   14  H   UNL     1      -6.749   6.387  73.614  1.00  0.00     0.000 HD 
HETATM   15  O   UNL     1      -6.899   6.197  72.695  1.00  0.00    -0.071 OA 
BRANCH  13  16
HETATM   16  C   UNL     1      -8.727   7.680  72.818  1.00  0.00    -0.140 C  
HETATM   17  O   UNL     1      -9.549   7.805  73.712  1.00  0.00    -0.288 OA 
BRANCH  16  18
HETATM   18  O   UNL     1      -8.251   8.782  72.204  1.00  0.00    -0.340 OA 
BRANCH  18  19
HETATM   19 CA   UNL     1      -8.824   9.181  69.887  1.00  0.00    -0.114 Ca 
BRANCH  19  20
HETATM   20  O   UNL     1      -9.397   9.580  67.570  1.00  0.00    -0.126 OA 
BRANCH  20  21
HETATM   21  C   UNL     1     -10.282  10.590  67.513  1.00  0.00    -0.206 C  
HETATM   22  O   UNL     1     -11.391  10.405  67.985  1.00  0.00    -0.302 OA 
BRANCH  21  23
HETATM   23  C   UNL     1      -9.996  11.858  66.739  1.00  0.00    -0.195 C  
HETATM   24  H   UNL     1      -8.887  12.356  65.240  1.00  0.00     0.000 HD 
HETATM   25  O   UNL     1      -9.067  11.560  65.726  1.00  0.00    -0.209 OA 
BRANCH  23  26
HETATM   26  C   UNL     1      -9.449  13.036  67.600  1.00  0.00    -0.201 C  
HETATM   27  H   UNL     1      -7.812  14.071  67.707  1.00  0.00     0.000 HD 
HETATM   28  O   UNL     1      -8.146  13.352  67.182  1.00  0.00    -0.163 OA 
BRANCH  26  29
HETATM   29  C   UNL     1     -10.313  14.343  67.665  1.00  0.00    -0.237 C  
BRANCH  29  30
HETATM   30  O   UNL     1      -9.818  15.098  68.761  1.00  0.00    -0.208 OA 
BRANCH  30  31
HETATM   31  C   UNL     1      -9.546  16.460  68.498  1.00  0.00    -0.229 C  
HETATM   32  O   UNL     1     -10.196  16.864  67.304  1.00  0.00    -0.284 OA 
HETATM   33  C   UNL     1      -9.944  18.235  67.036  1.00  0.00    -0.342 C  
HETATM   34  H   UNL     1      -6.398  16.258  69.404  1.00  0.00     0.000 HD 
HETATM   35  C   UNL     1      -8.441  18.450  66.721  1.00  0.00    -0.264 C  
HETATM   36  O   UNL     1      -8.055  17.679  65.609  1.00  0.00    -0.518 OA 
HETATM   37  C   UNL     1      -7.622  18.027  67.958  1.00  0.00    -0.244 C  
HETATM   38  O   UNL     1      -7.338  16.179  69.503  1.00  0.00    -0.220 OA 
HETATM   39  H   UNL     1      -7.134  17.811  65.416  1.00  0.00     0.000 HD 
HETATM   40  O   UNL     1      -6.239  18.085  67.710  1.00  0.00    -0.170 OA 
HETATM   41  C   UNL     1      -8.011  16.588  68.336  1.00  0.00    -0.194 C  
HETATM   42  H   UNL     1      -5.735  17.825  68.472  1.00  0.00     0.000 HD 
BRANCH  33  43
HETATM   43  C   UNL     1     -10.848  18.663  65.869  1.00  0.00    -0.073 C  
HETATM   44  O   UNL     1     -10.939  17.654  64.898  1.00  0.00    -0.886 OA 
HETATM   45  H   UNL     1     -11.498  17.918  64.178  1.00  0.00     0.000 HD 
ENDBRANCH  33  43
ENDBRANCH  30  31
ENDBRANCH  29  30
BRANCH  29  46
HETATM   46  C   UNL     1     -11.866  14.135  67.745  1.00  0.00    -0.379 C  
HETATM   47  O   UNL     1     -12.193  13.111  68.656  1.00  0.00    -0.252 OA 
HETATM   48  H   UNL     1     -13.132  12.986  68.704  1.00  0.00     0.000 HD 
BRANCH  46  49
HETATM   49  C   UNL     1     -12.573  13.953  66.382  1.00  0.00    -0.268 C  
HETATM   50  H   UNL     1     -12.413  14.649  64.562  1.00  0.00     0.000 HD 
HETATM   51  O   UNL     1     -11.979  14.760  65.400  1.00  0.00    -0.310 OA 
ENDBRANCH  46  49
ENDBRANCH  29  46
ENDBRANCH  26  29
ENDBRANCH  23  26
ENDBRANCH  21  23
ENDBRANCH  20  21
ENDBRANCH  19  20
ENDBRANCH  18  19
ENDBRANCH  16  18
ENDBRANCH  13  16
ENDBRANCH  10  13
ENDBRANCH   7  10
ENDBRANCH   4   7
ENDBRANCH   2   4
TORSDOF 17
ENDMDL
MODEL      279
REMARK 921   NORMALIZED FREE ENERGY PREDICTED BY IDOCK:   -3.89 KCAL/MOL
REMARK 922        TOTAL FREE ENERGY PREDICTED BY IDOCK:  -11.19 KCAL/MOL
REMARK 923 INTER-LIGAND FREE ENERGY PREDICTED BY IDOCK:   -9.33 KCAL/MOL
REMARK 924 INTRA-LIGAND FREE ENERGY PREDICTED BY IDOCK:   -1.86 KCAL/MOL
REMARK 927      BINDING AFFINITY PREDICTED BY RF-SCORE:    0.00 PKD
ROOT
HETATM    1  O   UNL     1     -13.168  10.901  72.074  1.00  0.00    -0.502 OA 
HETATM    2  C   UNL     1     -12.946   9.576  71.674  1.00  0.00    -0.396 C  
HETATM    3  H   UNL     1     -13.676  10.911  72.876  1.00  0.00     0.000 HD 
ENDROOT
BRANCH   2   4
HETATM    4  C   UNL     1     -12.122   9.558  70.375  1.00  0.00    -0.004 C  
HETATM    5  O   UNL     1     -11.054  10.465  70.490  1.00  0.00    -0.313 OA 
HETATM    6  H   UNL     1     -10.546  10.454  69.687  1.00  0.00     0.000 HD 
BRANCH   4   7
HETATM    7  C   UNL     1     -11.567   8.142  70.071  1.00  0.00     0.189 C  
HETATM    8  H   UNL     1     -10.118   7.375  69.026  1.00  0.00     0.000 HD 
HETATM    9  O   UNL     1     -10.458   8.242  69.212  1.00  0.00    -0.217 OA 
BRANCH   7  10
HETATM   10  C   UNL     1     -11.139   7.397  71.363  1.00  0.00    -0.239 C  
HETATM   11  H   UNL     1     -11.986   6.224  72.643  1.00  0.00     0.000 HD 
HETATM   12  O   UNL     1     -12.248   6.680  71.852  1.00  0.00    -0.336 OA 
BRANCH  10  13
HETATM   13  C   UNL     1     -10.621   8.344  72.480  1.00  0.00    -0.298 C  
HETATM   14  H   UNL     1     -10.643   8.399  74.422  1.00  0.00     0.000 HD 
HETATM   15  O   UNL     1     -10.961   7.820  73.738  1.00  0.00    -0.131 OA 
BRANCH  13  16
HETATM   16  C   UNL     1      -9.124   8.544  72.450  1.00  0.00    -0.238 C  
HETATM   17  O   UNL     1      -8.432   8.070  73.338  1.00  0.00    -0.189 OA 
BRANCH  16  18
HETATM   18  O   UNL     1      -8.535   9.248  71.463  1.00  0.00    -0.320 OA 
BRANCH  18  19
HETATM   19 CA   UNL     1      -8.249   8.221  69.290  1.00  0.00    -0.100 Ca 
BRANCH  19  20
HETATM   20  O   UNL     1      -7.964   7.195  67.118  1.00  0.00    -0.107 OA 
BRANCH  20  21
HETATM   21  C   UNL     1      -7.170   7.981  66.370  1.00  0.00    -0.079 C  
HETATM   22  O   UNL     1      -6.229   8.528  66.919  1.00  0.00    -0.053 OA 
BRANCH  21  23
HETATM   23  C   UNL     1      -7.513   8.329  64.939  1.00  0.00    -0.092 C  
HETATM   24  H   UNL     1      -6.546   8.517  63.279  1.00  0.00     0.000 HD 
HETATM   25  O   UNL     1      -6.330   8.298  64.178  1.00  0.00    -0.065 OA 
BRANCH  23  26
HETATM   26  C   UNL     1      -8.200   9.716  64.754  1.00  0.00    -0.142 C  
HETATM   27  H   UNL     1      -9.538  10.489  63.582  1.00  0.00     0.000 HD 
HETATM   28  O   UNL     1      -9.119   9.644  63.694  1.00  0.00    -0.242 OA 
BRANCH  26  29
HETATM   29  C   UNL     1      -8.895  10.348  66.010  1.00  0.00    -0.160 C  
BRANCH  29  30
HETATM   30  O   UNL     1     -10.103  10.935  65.547  1.00  0.00    -0.242 OA 
BRANCH  30  31
HETATM   31  C   UNL     1     -10.270  12.308  65.837  1.00  0.00    -0.249 C  
HETATM   32  O   UNL     1     -11.140  12.470  66.945  1.00  0.00    -0.255 OA 
HETATM   33  C   UNL     1     -11.305  13.845  67.258  1.00  0.00    -0.323 C  
HETATM   34  H   UNL     1     -10.433  13.204  62.683  1.00  0.00     0.000 HD 
HETATM   35  C   UNL     1     -12.049  14.568  66.105  1.00  0.00    -0.286 C  
HETATM   36  O   UNL     1     -13.311  13.985  65.889  1.00  0.00    -0.609 OA 
HETATM   37  C   UNL     1     -11.193  14.447  64.827  1.00  0.00    -0.387 C  
HETATM   38  O   UNL     1     -10.053  12.804  63.456  1.00  0.00    -0.350 OA 
HETATM   39  H   UNL     1     -13.766  14.428  65.183  1.00  0.00     0.000 HD 
HETATM   40  O   UNL     1     -11.855  14.982  63.707  1.00  0.00    -0.802 OA 
HETATM   41  C   UNL     1     -10.890  12.961  64.576  1.00  0.00    -0.363 C  
HETATM   42  H   UNL     1     -11.328  14.908  62.920  1.00  0.00     0.000 HD 
BRANCH  33  43
HETATM   43  C   UNL     1     -12.067  13.939  68.589  1.00  0.00    -0.302 C  
HETATM   44  O   UNL     1     -11.367  13.302  69.624  1.00  0.00    -0.422 OA 
HETATM   45  H   UNL     1     -11.838  13.361  70.446  1.00  0.00     0.000 HD 
ENDBRANCH  33  43
ENDBRANCH  30  31
ENDBRANCH  29  30
BRANCH  29  46
HETATM   46  C   UNL     1      -8.027  11.360  66.838  1.00  0.00    -0.158 C  
HETATM   47  O   UNL     1      -6.769  11.558  66.235  1.00  0.00    -0.354 OA 
HETATM   48  H   UNL     1      -6.244  12.170  66.736  1.00  0.00     0.000 HD 
BRANCH  46  49
HETATM   49  C   UNL     1      -7.908  11.038  68.346  1.00  0.00    -0.127 C  
HETATM   50  H   UNL     1      -9.001  11.219  69.956  1.00  0.00     0.000 HD 
HETATM   51  O   UNL     1      -9.074  11.416  69.029  1.00  0.00    -0.069 OA 
ENDBRANCH  46  49
ENDBRANCH  29  46
ENDBRANCH  26  29
ENDBRANCH  23  26
ENDBRANCH  21  23
ENDBRANCH  20  21
ENDBRANCH  19  20
ENDBRANCH  18  19
ENDBRANCH  16  18
ENDBRANCH  13  16
ENDBRANCH  10  13
ENDBRANCH   7  10
ENDBRANCH   4   7
ENDBRANCH   2   4
TORSDOF 17
ENDMDL
MODEL      280
REMARK 921   NORMALIZED FREE ENERGY PREDICTED BY IDOCK:   -3.88 KCAL/MOL
REMARK 922        TOTAL FREE ENERGY PREDICTED BY IDOCK:  -11.17 KCAL/MOL
REMARK 923 INTER-LIGAND FREE ENERGY PREDICTED BY IDOCK:   -8.35 KCAL/MOL
REMARK 924 INTRA-LIGAND FREE ENERGY PREDICTED BY IDOCK:   -2.83 KCAL/MOL
REMARK 927      BINDING AFFINITY PREDICTED BY RF-SCORE:    0.00 PKD
ROOT
HETATM    1  O   UNL     1      -8.257  15.553  68.723  1.00  0.00    -0.151 OA 
HETATM    2  C   UNL     1      -7.598  15.176  67.545  1.00  0.00    -0.192 C  
HETATM    3  H   UNL     1      -8.559  16.451  68.648  1.00  0.00     0.000 HD 
ENDROOT
BRANCH   2   4
HETATM    4  C   UNL     1      -7.109  13.723  67.668  1.00  0.00    -0.176 C  
HETATM    5  O   UNL     1      -6.250  13.614  68.776  1.00  0.00    -0.080 OA 
HETATM    6  H   UNL     1      -5.949  12.716  68.851  1.00  0.00     0.000 HD 
BRANCH   4   7
HETATM    7  C   UNL     1      -8.294  12.735  67.833  1.00  0.00    -0.172 C  
HETATM    8  H   UNL     1     -10.127  12.592  67.200  1.00  0.00     0.000 HD 
HETATM    9  O   UNL     1      -9.402  13.197  67.099  1.00  0.00    -0.218 OA 
BRANCH   7  10
HETATM   10  C   UNL     1      -7.929  11.306  67.350  1.00  0.00    -0.132 C  
HETATM   11  H   UNL     1      -6.317  10.252  67.200  1.00  0.00     0.000 HD 
HETATM   12  O   UNL     1      -6.541  11.127  67.495  1.00  0.00    -0.064 OA 
BRANCH  10  13
HETATM   13  C   UNL     1      -8.319  11.034  65.871  1.00  0.00    -0.119 C  
HETATM   14  H   UNL     1      -7.463  10.314  64.284  1.00  0.00     0.000 HD 
HETATM   15  O   UNL     1      -7.224  10.480  65.188  1.00  0.00    -0.113 OA 
BRANCH  13  16
HETATM   16  C   UNL     1      -9.486  10.086  65.723  1.00  0.00    -0.214 C  
HETATM   17  O   UNL     1     -10.627  10.515  65.798  1.00  0.00    -0.176 OA 
BRANCH  16  18
HETATM   18  O   UNL     1      -9.291   8.768  65.518  1.00  0.00    -0.192 OA 
BRANCH  18  19
HETATM   19 CA   UNL     1     -10.083   7.190  67.173  1.00  0.00    -0.140 Ca 
BRANCH  19  20
HETATM   20  O   UNL     1     -10.873   5.611  68.828  1.00  0.00    -0.239 OA 
BRANCH  20  21
HETATM   21  C   UNL     1      -9.813   4.990  69.374  1.00  0.00    -0.203 C  
HETATM   22  O   UNL     1      -9.827   3.771  69.419  1.00  0.00    -0.136 OA 
BRANCH  21  23
HETATM   23  C   UNL     1      -8.713   5.757  70.071  1.00  0.00    -0.132 C  
HETATM   24  H   UNL     1      -7.051   5.321  70.951  1.00  0.00     0.000 HD 
HETATM   25  O   UNL     1      -7.742   4.840  70.513  1.00  0.00    -0.057 OA 
BRANCH  23  26
HETATM   26  C   UNL     1      -9.186   6.618  71.282  1.00  0.00    -0.155 C  
HETATM   27  H   UNL     1      -9.314   6.407  73.205  1.00  0.00     0.000 HD 
HETATM   28  O   UNL     1      -9.026   5.882  72.468  1.00  0.00    -0.133 OA 
BRANCH  26  29
HETATM   29  C   UNL     1      -8.542   8.037  71.452  1.00  0.00    -0.132 C  
BRANCH  29  30
HETATM   30  O   UNL     1      -9.492   8.828  72.152  1.00  0.00    -0.301 OA 
BRANCH  30  31
HETATM   31  C   UNL     1     -10.768   8.929  71.554  1.00  0.00    -0.328 C  
HETATM   32  O   UNL     1     -10.897  10.175  70.889  1.00  0.00    -0.290 OA 
HETATM   33  C   UNL     1     -12.170  10.284  70.271  1.00  0.00    -0.221 C  
HETATM   34  H   UNL     1     -12.331   7.543  74.087  1.00  0.00     0.000 HD 
HETATM   35  C   UNL     1     -13.284  10.332  71.349  1.00  0.00    -0.370 C  
HETATM   36  O   UNL     1     -13.090  11.426  72.211  1.00  0.00    -0.510 OA 
HETATM   37  C   UNL     1     -13.234   9.017  72.155  1.00  0.00    -0.446 C  
HETATM   38  O   UNL     1     -11.694   7.606  73.386  1.00  0.00    -0.043 OA 
HETATM   39  H   UNL     1     -13.773  11.455  72.871  1.00  0.00     0.000 HD 
HETATM   40  O   UNL     1     -14.143   9.032  73.229  1.00  0.00    -1.218 OA 
HETATM   41  C   UNL     1     -11.808   8.828  72.699  1.00  0.00    -0.058 C  
HETATM   42  H   UNL     1     -14.112   8.222  73.725  1.00  0.00     0.000 HD 
BRANCH  33  43
HETATM   43  C   UNL     1     -12.162  11.543  69.390  1.00  0.00    -0.207 C  
HETATM   44  O   UNL     1     -12.253  11.213  68.029  1.00  0.00    -0.676 OA 
HETATM   45  H   UNL     1     -12.248  11.991  67.485  1.00  0.00     0.000 HD 
ENDBRANCH  33  43
ENDBRANCH  30  31
ENDBRANCH  29  30
BRANCH  29  46
HETATM   46  C   UNL     1      -8.055   8.732  70.132  1.00  0.00    -0.114 C  
HETATM   47  O   UNL     1      -8.970   8.521  69.082  1.00  0.00    -0.144 OA 
HETATM   48  H   UNL     1      -8.675   8.942  68.284  1.00  0.00     0.000 HD 
BRANCH  46  49
HETATM   49  C   UNL     1      -6.602   8.402  69.716  1.00  0.00    -0.039 C  
HETATM   50  H   UNL     1      -5.664   7.724  68.141  1.00  0.00     0.000 HD 
HETATM   51  O   UNL     1      -6.557   7.927  68.396  1.00  0.00    -0.058 OA 
ENDBRANCH  46  49
ENDBRANCH  29  46
ENDBRANCH  26  29
ENDBRANCH  23  26
ENDBRANCH  21  23
ENDBRANCH  20  21
ENDBRANCH  19  20
ENDBRANCH  18  19
ENDBRANCH  16  18
ENDBRANCH  13  16
ENDBRANCH  10  13
ENDBRANCH   7  10
ENDBRANCH   4   7
ENDBRANCH   2   4
TORSDOF 17
ENDMDL
MODEL      281
REMARK 921   NORMALIZED FREE ENERGY PREDICTED BY IDOCK:   -3.87 KCAL/MOL
REMARK 922        TOTAL FREE ENERGY PREDICTED BY IDOCK:  -11.16 KCAL/MOL
REMARK 923 INTER-LIGAND FREE ENERGY PREDICTED BY IDOCK:   -9.81 KCAL/MOL
REMARK 924 INTRA-LIGAND FREE ENERGY PREDICTED BY IDOCK:   -1.35 KCAL/MOL
REMARK 927      BINDING AFFINITY PREDICTED BY RF-SCORE:    0.00 PKD
ROOT
HETATM    1  O   UNL     1     -10.749  20.345  69.650  1.00  0.00    -0.454 OA 
HETATM    2  C   UNL     1      -9.854  19.924  68.657  1.00  0.00    -0.335 C  
HETATM    3  H   UNL     1     -10.289  20.442  70.476  1.00  0.00     0.000 HD 
ENDROOT
BRANCH   2   4
HETATM    4  C   UNL     1     -10.599  19.768  67.320  1.00  0.00    -0.434 C  
HETATM    5  O   UNL     1     -10.138  20.740  66.416  1.00  0.00    -0.468 OA 
HETATM    6  H   UNL     1     -10.598  20.644  65.590  1.00  0.00     0.000 HD 
BRANCH   4   7
HETATM    7  C   UNL     1     -10.391  18.356  66.713  1.00  0.00    -0.394 C  
HETATM    8  H   UNL     1     -10.558  17.519  64.966  1.00  0.00     0.000 HD 
HETATM    9  O   UNL     1     -10.685  18.384  65.338  1.00  0.00    -0.594 OA 
BRANCH   7  10
HETATM   10  C   UNL     1      -8.937  17.849  66.908  1.00  0.00    -0.257 C  
HETATM   11  H   UNL     1      -7.305  17.859  65.875  1.00  0.00     0.000 HD 
HETATM   12  O   UNL     1      -8.195  18.169  65.756  1.00  0.00    -0.509 OA 
BRANCH  10  13
HETATM   13  C   UNL     1      -8.843  16.318  67.157  1.00  0.00    -0.193 C  
HETATM   14  H   UNL     1      -7.538  14.909  66.875  1.00  0.00     0.000 HD 
HETATM   15  O   UNL     1      -7.595  15.845  66.722  1.00  0.00    -0.226 OA 
BRANCH  13  16
HETATM   16  C   UNL     1      -9.005  15.936  68.609  1.00  0.00    -0.203 C  
HETATM   17  O   UNL     1      -9.934  16.395  69.256  1.00  0.00    -0.260 OA 
BRANCH  16  18
HETATM   18  O   UNL     1      -8.134  15.101  69.211  1.00  0.00    -0.199 OA 
BRANCH  18  19
HETATM   19 CA   UNL     1      -7.399  13.117  68.036  1.00  0.00    -0.075 Ca 
BRANCH  19  20
HETATM   20  O   UNL     1      -6.662  11.134  66.862  1.00  0.00    -0.107 OA 
BRANCH  20  21
HETATM   21  C   UNL     1      -7.743  10.473  66.411  1.00  0.00    -0.135 C  
HETATM   22  O   UNL     1      -8.598  11.112  65.823  1.00  0.00    -0.176 OA 
BRANCH  21  23
HETATM   23  C   UNL     1      -7.995   9.024  66.762  1.00  0.00    -0.107 C  
HETATM   24  H   UNL     1      -9.265   7.665  66.248  1.00  0.00     0.000 HD 
HETATM   25  O   UNL     1      -9.107   8.575  66.027  1.00  0.00    -0.175 OA 
BRANCH  23  26
HETATM   26  C   UNL     1      -8.245   8.756  68.278  1.00  0.00    -0.118 C  
HETATM   27  H   UNL     1      -7.165   8.477  69.864  1.00  0.00     0.000 HD 
HETATM   28  O   UNL     1      -7.012   8.640  68.941  1.00  0.00    -0.060 OA 
BRANCH  26  29
HETATM   29  C   UNL     1      -9.162   9.770  69.046  1.00  0.00    -0.165 C  
BRANCH  29  30
HETATM   30  O   UNL     1      -8.955   9.529  70.430  1.00  0.00    -0.237 OA 
BRANCH  30  31
HETATM   31  C   UNL     1      -9.306   8.240  70.890  1.00  0.00    -0.159 C  
HETATM   32  O   UNL     1     -10.713   8.143  71.042  1.00  0.00    -0.212 OA 
HETATM   33  C   UNL     1     -11.081   6.848  71.489  1.00  0.00    -0.244 C  
HETATM   34  H   UNL     1      -6.785   8.035  72.982  1.00  0.00     0.000 HD 
HETATM   35  C   UNL     1     -10.545   6.606  72.924  1.00  0.00    -0.245 C  
HETATM   36  O   UNL     1     -11.059   7.569  73.812  1.00  0.00    -0.522 OA 
HETATM   37  C   UNL     1      -9.005   6.700  72.887  1.00  0.00    -0.128 C  
HETATM   38  O   UNL     1      -7.212   8.153  72.142  1.00  0.00    -0.078 OA 
HETATM   39  H   UNL     1     -10.730   7.420  74.690  1.00  0.00     0.000 HD 
HETATM   40  O   UNL     1      -8.448   6.605  74.175  1.00  0.00    -0.126 OA 
HETATM   41  C   UNL     1      -8.610   8.048  72.261  1.00  0.00    -0.157 C  
HETATM   42  H   UNL     1      -7.500   6.662  74.152  1.00  0.00     0.000 HD 
BRANCH  33  43
HETATM   43  C   UNL     1     -12.613   6.740  71.417  1.00  0.00    -0.297 C  
HETATM   44  O   UNL     1     -13.195   7.971  71.082  1.00  0.00    -0.515 OA 
HETATM   45  H   UNL     1     -14.141   7.904  71.037  1.00  0.00     0.000 HD 
ENDBRANCH  33  43
ENDBRANCH  30  31
ENDBRANCH  29  30
BRANCH  29  46
HETATM   46  C   UNL     1     -10.684   9.744  68.664  1.00  0.00    -0.216 C  
HETATM   47  O   UNL     1     -11.010   8.565  67.965  1.00  0.00    -0.475 OA 
HETATM   48  H   UNL     1     -11.930   8.550  67.734  1.00  0.00     0.000 HD 
BRANCH  46  49
HETATM   49  C   UNL     1     -11.200  11.012  67.944  1.00  0.00    -0.310 C  
HETATM   50  H   UNL     1     -11.731  12.832  68.419  1.00  0.00     0.000 HD 
HETATM   51  O   UNL     1     -11.414  12.053  68.861  1.00  0.00    -0.250 OA 
ENDBRANCH  46  49
ENDBRANCH  29  46
ENDBRANCH  26  29
ENDBRANCH  23  26
ENDBRANCH  21  23
ENDBRANCH  20  21
ENDBRANCH  19  20
ENDBRANCH  18  19
ENDBRANCH  16  18
ENDBRANCH  13  16
ENDBRANCH  10  13
ENDBRANCH   7  10
ENDBRANCH   4   7
ENDBRANCH   2   4
TORSDOF 17
ENDMDL
MODEL      282
REMARK 921   NORMALIZED FREE ENERGY PREDICTED BY IDOCK:   -3.87 KCAL/MOL
REMARK 922        TOTAL FREE ENERGY PREDICTED BY IDOCK:  -11.16 KCAL/MOL
REMARK 923 INTER-LIGAND FREE ENERGY PREDICTED BY IDOCK:   -8.26 KCAL/MOL
REMARK 924 INTRA-LIGAND FREE ENERGY PREDICTED BY IDOCK:   -2.90 KCAL/MOL
REMARK 927      BINDING AFFINITY PREDICTED BY RF-SCORE:    0.00 PKD
ROOT
HETATM    1  O   UNL     1     -11.174   4.137  64.423  1.00  0.00    -0.708 OA 
HETATM    2  C   UNL     1     -10.389   4.030  65.579  1.00  0.00    -0.041 C  
HETATM    3  H   UNL     1     -11.509   3.281  64.184  1.00  0.00     0.000 HD 
ENDROOT
BRANCH   2   4
HETATM    4  C   UNL     1      -9.846   5.417  65.967  1.00  0.00    -0.094 C  
HETATM    5  O   UNL     1     -10.041   5.624  67.344  1.00  0.00    -0.142 OA 
HETATM    6  H   UNL     1      -9.706   6.480  67.583  1.00  0.00     0.000 HD 
BRANCH   4   7
HETATM    7  C   UNL     1      -8.337   5.553  65.632  1.00  0.00    -0.133 C  
HETATM    8  H   UNL     1      -6.784   4.385  65.560  1.00  0.00     0.000 HD 
HETATM    9  O   UNL     1      -7.708   4.301  65.765  1.00  0.00    -0.088 OA 
BRANCH   7  10
HETATM   10  C   UNL     1      -8.108   6.082  64.191  1.00  0.00    -0.095 C  
HETATM   11  H   UNL     1      -7.583   5.326  62.493  1.00  0.00     0.000 HD 
HETATM   12  O   UNL     1      -7.724   5.002  63.375  1.00  0.00    -0.066 OA 
BRANCH  10  13
HETATM   13  C   UNL     1      -7.022   7.190  64.104  1.00  0.00    -0.056 C  
HETATM   14  H   UNL     1      -5.592   7.687  62.888  1.00  0.00     0.000 HD 
HETATM   15  O   UNL     1      -6.256   7.009  62.941  1.00  0.00    -0.043 OA 
BRANCH  13  16
HETATM   16  C   UNL     1      -7.593   8.588  64.071  1.00  0.00    -0.124 C  
HETATM   17  O   UNL     1      -6.862   9.534  63.821  1.00  0.00    -0.098 OA 
BRANCH  16  18
HETATM   18  O   UNL     1      -8.897   8.814  64.326  1.00  0.00    -0.078 OA 
BRANCH  18  19
HETATM   19 CA   UNL     1      -9.766   8.347  66.536  1.00  0.00    -0.147 Ca 
BRANCH  19  20
HETATM   20  O   UNL     1     -10.634   7.880  68.745  1.00  0.00    -0.200 OA 
BRANCH  20  21
HETATM   21  C   UNL     1      -9.770   8.355  69.659  1.00  0.00    -0.173 C  
HETATM   22  O   UNL     1      -9.865   7.944  70.803  1.00  0.00    -0.179 OA 
BRANCH  21  23
HETATM   23  C   UNL     1      -8.819   9.488  69.343  1.00  0.00    -0.170 C  
HETATM   24  H   UNL     1      -7.530  10.540  70.321  1.00  0.00     0.000 HD 
HETATM   25  O   UNL     1      -8.127   9.828  70.519  1.00  0.00    -0.222 OA 
BRANCH  23  26
HETATM   26  C   UNL     1      -9.500  10.766  68.766  1.00  0.00    -0.182 C  
HETATM   27  H   UNL     1     -10.831  12.049  69.352  1.00  0.00     0.000 HD 
HETATM   28  O   UNL     1     -10.417  11.270  69.704  1.00  0.00    -0.070 OA 
BRANCH  26  29
HETATM   29  C   UNL     1      -8.562  11.922  68.275  1.00  0.00    -0.162 C  
BRANCH  29  30
HETATM   30  O   UNL     1      -9.409  12.920  67.724  1.00  0.00    -0.188 OA 
BRANCH  30  31
HETATM   31  C   UNL     1     -10.301  12.483  66.719  1.00  0.00    -0.226 C  
HETATM   32  O   UNL     1      -9.642  12.446  65.464  1.00  0.00    -0.184 OA 
HETATM   33  C   UNL     1     -10.524  11.994  64.447  1.00  0.00    -0.312 C  
HETATM   34  H   UNL     1     -12.842  14.200  67.891  1.00  0.00     0.000 HD 
HETATM   35  C   UNL     1     -11.660  13.026  64.229  1.00  0.00    -0.385 C  
HETATM   36  O   UNL     1     -11.129  14.276  63.862  1.00  0.00    -0.447 OA 
HETATM   37  C   UNL     1     -12.450  13.162  65.548  1.00  0.00    -0.458 C  
HETATM   38  O   UNL     1     -12.129  13.574  67.916  1.00  0.00    -0.346 OA 
HETATM   39  H   UNL     1     -11.825  14.908  63.729  1.00  0.00     0.000 HD 
HETATM   40  O   UNL     1     -13.430  14.167  65.464  1.00  0.00    -0.710 OA 
HETATM   41  C   UNL     1     -11.465  13.506  66.677  1.00  0.00    -0.339 C  
HETATM   42  H   UNL     1     -13.916  14.251  66.276  1.00  0.00     0.000 HD 
BRANCH  33  43
HETATM   43  C   UNL     1      -9.697  11.763  63.172  1.00  0.00    -0.293 C  
HETATM   44  O   UNL     1     -10.148  10.637  62.469  1.00  0.00    -0.736 OA 
HETATM   45  H   UNL     1      -9.638  10.495  61.681  1.00  0.00     0.000 HD 
ENDBRANCH  33  43
ENDBRANCH  30  31
ENDBRANCH  29  30
BRANCH  29  46
HETATM   46  C   UNL     1      -7.419  11.504  67.283  1.00  0.00    -0.139 C  
HETATM   47  O   UNL     1      -7.832  10.442  66.456  1.00  0.00    -0.115 OA 
HETATM   48  H   UNL     1      -7.142  10.189  65.856  1.00  0.00     0.000 HD 
BRANCH  46  49
HETATM   49  C   UNL     1      -6.047  11.233  67.942  1.00  0.00    -0.050 C  
HETATM   50  H   UNL     1      -4.991  11.932  69.431  1.00  0.00     0.000 HD 
HETATM   51  O   UNL     1      -5.835  12.099  69.026  1.00  0.00    -0.059 OA 
ENDBRANCH  46  49
ENDBRANCH  29  46
ENDBRANCH  26  29
ENDBRANCH  23  26
ENDBRANCH  21  23
ENDBRANCH  20  21
ENDBRANCH  19  20
ENDBRANCH  18  19
ENDBRANCH  16  18
ENDBRANCH  13  16
ENDBRANCH  10  13
ENDBRANCH   7  10
ENDBRANCH   4   7
ENDBRANCH   2   4
TORSDOF 17
ENDMDL
MODEL      283
REMARK 921   NORMALIZED FREE ENERGY PREDICTED BY IDOCK:   -3.83 KCAL/MOL
REMARK 922        TOTAL FREE ENERGY PREDICTED BY IDOCK:  -11.07 KCAL/MOL
REMARK 923 INTER-LIGAND FREE ENERGY PREDICTED BY IDOCK:   -9.11 KCAL/MOL
REMARK 924 INTRA-LIGAND FREE ENERGY PREDICTED BY IDOCK:   -1.96 KCAL/MOL
REMARK 927      BINDING AFFINITY PREDICTED BY RF-SCORE:    0.00 PKD
ROOT
HETATM    1  O   UNL     1      -8.122  10.810  63.470  1.00  0.00    -0.350 OA 
HETATM    2  C   UNL     1      -9.092   9.837  63.747  1.00  0.00    -0.230 C  
HETATM    3  H   UNL     1      -8.511  11.515  62.964  1.00  0.00     0.000 HD 
ENDROOT
BRANCH   2   4
HETATM    4  C   UNL     1      -8.463   8.697  64.565  1.00  0.00    -0.110 C  
HETATM    5  O   UNL     1      -7.065   8.850  64.575  1.00  0.00    -0.087 OA 
HETATM    6  H   UNL     1      -6.676   8.145  65.081  1.00  0.00     0.000 HD 
BRANCH   4   7
HETATM    7  C   UNL     1      -8.992   8.683  66.024  1.00  0.00    -0.184 C  
HETATM    8  H   UNL     1     -10.609   9.224  66.957  1.00  0.00     0.000 HD 
HETATM    9  O   UNL     1     -10.286   9.233  66.064  1.00  0.00    -0.269 OA 
BRANCH   7  10
HETATM   10  C   UNL     1      -9.035   7.247  66.610  1.00  0.00    -0.150 C  
HETATM   11  H   UNL     1      -8.704   5.460  65.955  1.00  0.00     0.000 HD 
HETATM   12  O   UNL     1      -8.677   6.339  65.596  1.00  0.00    -0.154 OA 
BRANCH  10  13
HETATM   13  C   UNL     1     -10.429   6.849  67.171  1.00  0.00    -0.303 C  
HETATM   14  H   UNL     1     -11.733   5.441  66.873  1.00  0.00     0.000 HD 
HETATM   15  O   UNL     1     -10.881   5.684  66.531  1.00  0.00    -0.284 OA 
BRANCH  13  16
HETATM   16  C   UNL     1     -10.426   6.590  68.659  1.00  0.00    -0.218 C  
HETATM   17  O   UNL     1     -10.884   5.544  69.092  1.00  0.00    -0.251 OA 
BRANCH  16  18
HETATM   18  O   UNL     1      -9.935   7.501  69.523  1.00  0.00    -0.175 OA 
BRANCH  18  19
HETATM   19 CA   UNL     1     -11.472   8.934  70.724  1.00  0.00    -0.241 Ca 
BRANCH  19  20
HETATM   20  O   UNL     1     -13.009  10.367  71.924  1.00  0.00    -0.438 OA 
BRANCH  20  21
HETATM   21  C   UNL     1     -12.978  11.592  71.372  1.00  0.00    -0.348 C  
HETATM   22  O   UNL     1     -13.411  12.524  72.027  1.00  0.00    -0.502 OA 
BRANCH  21  23
HETATM   23  C   UNL     1     -12.589  11.805  69.926  1.00  0.00     0.104 C  
HETATM   24  H   UNL     1     -12.633  10.762  68.302  1.00  0.00     0.000 HD 
HETATM   25  O   UNL     1     -12.877  10.629  69.210  1.00  0.00    -0.103 OA 
BRANCH  23  26
HETATM   26  C   UNL     1     -11.093  12.182  69.704  1.00  0.00     0.022 C  
HETATM   27  H   UNL     1      -9.456  11.258  69.227  1.00  0.00     0.000 HD 
HETATM   28  O   UNL     1     -10.367  11.028  69.362  1.00  0.00    -0.196 OA 
BRANCH  26  29
HETATM   29  C   UNL     1     -10.783  13.322  68.674  1.00  0.00    -0.259 C  
BRANCH  29  30
HETATM   30  O   UNL     1     -11.860  14.244  68.759  1.00  0.00    -0.316 OA 
BRANCH  30  31
HETATM   31  C   UNL     1     -11.663  15.483  68.109  1.00  0.00    -0.229 C  
HETATM   32  O   UNL     1     -11.313  15.272  66.752  1.00  0.00    -0.291 OA 
HETATM   33  C   UNL     1     -11.127  16.510  66.083  1.00  0.00     0.233 C  
HETATM   34  H   UNL     1     -10.110  16.847  70.660  1.00  0.00     0.000 HD 
HETATM   35  C   UNL     1      -9.893  17.249  66.664  1.00  0.00    -0.295 C  
HETATM   36  O   UNL     1      -8.735  16.464  66.521  1.00  0.00    -0.231 OA 
HETATM   37  C   UNL     1     -10.155  17.526  68.159  1.00  0.00    -0.341 C  
HETATM   38  O   UNL     1     -10.819  16.409  70.206  1.00  0.00    -0.309 OA 
HETATM   39  H   UNL     1      -7.980  16.917  66.877  1.00  0.00     0.000 HD 
HETATM   40  O   UNL     1      -9.031  18.095  68.786  1.00  0.00    -0.295 OA 
HETATM   41  C   UNL     1     -10.505  16.198  68.851  1.00  0.00    -0.258 C  
HETATM   42  H   UNL     1      -9.193  18.265  69.706  1.00  0.00     0.000 HD 
BRANCH  33  43
HETATM   43  C   UNL     1     -10.974  16.219  64.582  1.00  0.00    -0.194 C  
HETATM   44  O   UNL     1     -12.221  16.012  63.974  1.00  0.00    -1.003 OA 
HETATM   45  H   UNL     1     -12.127  15.833  63.046  1.00  0.00     0.000 HD 
ENDBRANCH  33  43
ENDBRANCH  30  31
ENDBRANCH  29  30
BRANCH  29  46
HETATM   46  C   UNL     1     -10.517  12.860  67.197  1.00  0.00    -0.238 C  
HETATM   47  O   UNL     1     -11.032  11.568  66.972  1.00  0.00    -0.264 OA 
HETATM   48  H   UNL     1     -10.871  11.289  66.079  1.00  0.00     0.000 HD 
BRANCH  46  49
HETATM   49  C   UNL     1      -9.053  12.998  66.722  1.00  0.00    -0.210 C  
HETATM   50  H   UNL     1      -7.293  12.317  67.234  1.00  0.00     0.000 HD 
HETATM   51  O   UNL     1      -8.194  12.233  67.526  1.00  0.00    -0.150 OA 
ENDBRANCH  46  49
ENDBRANCH  29  46
ENDBRANCH  26  29
ENDBRANCH  23  26
ENDBRANCH  21  23
ENDBRANCH  20  21
ENDBRANCH  19  20
ENDBRANCH  18  19
ENDBRANCH  16  18
ENDBRANCH  13  16
ENDBRANCH  10  13
ENDBRANCH   7  10
ENDBRANCH   4   7
ENDBRANCH   2   4
TORSDOF 17
ENDMDL
MODEL      284
REMARK 921   NORMALIZED FREE ENERGY PREDICTED BY IDOCK:   -3.82 KCAL/MOL
REMARK 922        TOTAL FREE ENERGY PREDICTED BY IDOCK:  -11.06 KCAL/MOL
REMARK 923 INTER-LIGAND FREE ENERGY PREDICTED BY IDOCK:  -10.96 KCAL/MOL
REMARK 924 INTRA-LIGAND FREE ENERGY PREDICTED BY IDOCK:   -0.10 KCAL/MOL
REMARK 927      BINDING AFFINITY PREDICTED BY RF-SCORE:    0.00 PKD
ROOT
HETATM    1  O   UNL     1     -13.544   7.411  71.146  1.00  0.00    -0.584 OA 
HETATM    2  C   UNL     1     -12.288   6.901  70.792  1.00  0.00    -0.262 C  
HETATM    3  H   UNL     1     -14.162   6.696  71.250  1.00  0.00     0.000 HD 
ENDROOT
BRANCH   2   4
HETATM    4  C   UNL     1     -11.289   8.059  70.624  1.00  0.00    -0.252 C  
HETATM    5  O   UNL     1     -11.884   9.080  69.863  1.00  0.00    -0.429 OA 
HETATM    6  H   UNL     1     -11.267   9.795  69.760  1.00  0.00     0.000 HD 
BRANCH   4   7
HETATM    7  C   UNL     1     -10.841   8.629  71.995  1.00  0.00    -0.360 C  
HETATM    8  H   UNL     1     -11.179   8.252  73.873  1.00  0.00     0.000 HD 
HETATM    9  O   UNL     1     -11.453   7.902  73.033  1.00  0.00    -0.383 OA 
BRANCH   7  10
HETATM   10  C   UNL     1      -9.301   8.568  72.175  1.00  0.00    -0.283 C  
HETATM   11  H   UNL     1      -7.757   8.610  71.015  1.00  0.00     0.000 HD 
HETATM   12  O   UNL     1      -8.701   8.648  70.905  1.00  0.00    -0.148 OA 
BRANCH  10  13
HETATM   13  C   UNL     1      -8.812   7.273  72.882  1.00  0.00    -0.132 C  
HETATM   14  H   UNL     1      -9.070   6.407  74.601  1.00  0.00     0.000 HD 
HETATM   15  O   UNL     1      -9.369   7.199  74.169  1.00  0.00    -0.229 OA 
BRANCH  13  16
HETATM   16  C   UNL     1      -9.182   6.009  72.142  1.00  0.00    -0.145 C  
HETATM   17  O   UNL     1     -10.048   5.275  72.593  1.00  0.00    -0.166 OA 
BRANCH  16  18
HETATM   18  O   UNL     1      -8.565   5.668  70.993  1.00  0.00    -0.124 OA 
BRANCH  18  19
HETATM   19 CA   UNL     1      -8.553   7.237  69.150  1.00  0.00    -0.120 Ca 
BRANCH  19  20
HETATM   20  O   UNL     1      -8.543   8.804  67.307  1.00  0.00    -0.120 OA 
BRANCH  20  21
HETATM   21  C   UNL     1      -9.787   9.286  67.142  1.00  0.00    -0.195 C  
HETATM   22  O   UNL     1     -10.559   8.646  66.449  1.00  0.00    -0.115 OA 
BRANCH  21  23
HETATM   23  C   UNL     1     -10.183  10.656  67.643  1.00  0.00    -0.194 C  
HETATM   24  H   UNL     1     -11.805  11.701  67.710  1.00  0.00     0.000 HD 
HETATM   25  O   UNL     1     -11.556  10.840  67.395  1.00  0.00    -0.485 OA 
BRANCH  23  26
HETATM   26  C   UNL     1      -9.389  11.837  67.006  1.00  0.00    -0.184 C  
HETATM   27  H   UNL     1      -7.600  12.133  66.320  1.00  0.00     0.000 HD 
HETATM   28  O   UNL     1      -8.083  11.414  66.709  1.00  0.00    -0.152 OA 
BRANCH  26  29
HETATM   29  C   UNL     1     -10.017  12.529  65.746  1.00  0.00    -0.259 C  
BRANCH  29  30
HETATM   30  O   UNL     1     -10.646  13.714  66.211  1.00  0.00    -0.283 OA 
BRANCH  30  31
HETATM   31  C   UNL     1      -9.822  14.860  66.287  1.00  0.00    -0.294 C  
HETATM   32  O   UNL     1      -9.381  15.056  67.620  1.00  0.00    -0.191 OA 
HETATM   33  C   UNL     1      -8.539  16.196  67.708  1.00  0.00    -0.167 C  
HETATM   34  H   UNL     1     -11.675  16.626  64.232  1.00  0.00     0.000 HD 
HETATM   35  C   UNL     1      -9.349  17.482  67.400  1.00  0.00    -0.249 C  
HETATM   36  O   UNL     1     -10.416  17.621  68.306  1.00  0.00    -0.366 OA 
HETATM   37  C   UNL     1      -9.896  17.377  65.961  1.00  0.00    -0.183 C  
HETATM   38  O   UNL     1     -11.147  15.888  64.512  1.00  0.00    -0.495 OA 
HETATM   39  H   UNL     1     -10.912  18.410  68.117  1.00  0.00     0.000 HD 
HETATM   40  O   UNL     1     -10.739  18.458  65.646  1.00  0.00    -0.548 OA 
HETATM   41  C   UNL     1     -10.684  16.063  65.829  1.00  0.00    -0.301 C  
HETATM   42  H   UNL     1     -11.075  18.394  64.761  1.00  0.00     0.000 HD 
BRANCH  33  43
HETATM   43  C   UNL     1      -7.922  16.221  69.115  1.00  0.00    -0.221 C  
HETATM   44  O   UNL     1      -8.007  14.965  69.732  1.00  0.00    -0.406 OA 
HETATM   45  H   UNL     1      -7.626  14.981  70.601  1.00  0.00     0.000 HD 
ENDBRANCH  33  43
ENDBRANCH  30  31
ENDBRANCH  29  30
BRANCH  29  46
HETATM   46  C   UNL     1     -10.987  11.643  64.888  1.00  0.00    -0.284 C  
HETATM   47  O   UNL     1     -10.267  10.730  64.093  1.00  0.00    -0.336 OA 
HETATM   48  H   UNL     1     -10.854  10.194  63.574  1.00  0.00     0.000 HD 
BRANCH  46  49
HETATM   49  C   UNL     1     -12.039  12.428  64.071  1.00  0.00    -0.475 C  
HETATM   50  H   UNL     1     -13.911  12.963  64.253  1.00  0.00     0.000 HD 
HETATM   51  O   UNL     1     -13.264  12.481  64.755  1.00  0.00    -0.839 OA 
ENDBRANCH  46  49
ENDBRANCH  29  46
ENDBRANCH  26  29
ENDBRANCH  23  26
ENDBRANCH  21  23
ENDBRANCH  20  21
ENDBRANCH  19  20
ENDBRANCH  18  19
ENDBRANCH  16  18
ENDBRANCH  13  16
ENDBRANCH  10  13
ENDBRANCH   7  10
ENDBRANCH   4   7
ENDBRANCH   2   4
TORSDOF 17
ENDMDL
MODEL      285
REMARK 921   NORMALIZED FREE ENERGY PREDICTED BY IDOCK:   -3.81 KCAL/MOL
REMARK 922        TOTAL FREE ENERGY PREDICTED BY IDOCK:  -11.05 KCAL/MOL
REMARK 923 INTER-LIGAND FREE ENERGY PREDICTED BY IDOCK:   -7.58 KCAL/MOL
REMARK 924 INTRA-LIGAND FREE ENERGY PREDICTED BY IDOCK:   -3.47 KCAL/MOL
REMARK 927      BINDING AFFINITY PREDICTED BY RF-SCORE:    0.00 PKD
ROOT
HETATM    1  O   UNL     1      -8.578   8.890  69.069  1.00  0.00    -0.134 OA 
HETATM    2  C   UNL     1      -8.272  10.252  68.943  1.00  0.00    -0.130 C  
HETATM    3  H   UNL     1      -7.782   8.397  69.232  1.00  0.00     0.000 HD 
ENDROOT
BRANCH   2   4
HETATM    4  C   UNL     1      -9.561  11.049  68.679  1.00  0.00    -0.195 C  
HETATM    5  O   UNL     1      -9.779  11.135  67.293  1.00  0.00    -0.165 OA 
HETATM    6  H   UNL     1     -10.575  11.627  67.130  1.00  0.00     0.000 HD 
BRANCH   4   7
HETATM    7  C   UNL     1     -10.790  10.387  69.356  1.00  0.00    -0.248 C  
HETATM    8  H   UNL     1     -11.239   9.675  71.109  1.00  0.00     0.000 HD 
HETATM    9  O   UNL     1     -10.486  10.081  70.695  1.00  0.00    -0.276 OA 
BRANCH   7  10
HETATM   10  C   UNL     1     -12.039  11.307  69.318  1.00  0.00    -0.303 C  
HETATM   11  H   UNL     1     -13.022  12.272  67.964  1.00  0.00     0.000 HD 
HETATM   12  O   UNL     1     -12.257  11.709  67.987  1.00  0.00    -0.551 OA 
BRANCH  10  13
HETATM   13  C   UNL     1     -11.902  12.572  70.209  1.00  0.00    -0.223 C  
HETATM   14  H   UNL     1     -11.819  14.495  69.946  1.00  0.00     0.000 HD 
HETATM   15  O   UNL     1     -11.903  13.721  69.401  1.00  0.00    -0.297 OA 
BRANCH  13  16
HETATM   16  C   UNL     1     -13.014  12.716  71.222  1.00  0.00    -0.214 C  
HETATM   17  O   UNL     1     -13.656  13.754  71.272  1.00  0.00    -0.237 OA 
BRANCH  16  18
HETATM   18  O   UNL     1     -13.305  11.721  72.083  1.00  0.00    -0.497 OA 
BRANCH  18  19
HETATM   19 CA   UNL     1     -12.793   9.438  71.462  1.00  0.00    -0.277 Ca 
BRANCH  19  20
HETATM   20  O   UNL     1     -12.280   7.156  70.841  1.00  0.00    -0.344 OA 
BRANCH  20  21
HETATM   21  C   UNL     1     -11.304   6.699  71.644  1.00  0.00    -0.276 C  
HETATM   22  O   UNL     1     -11.205   7.187  72.757  1.00  0.00    -0.281 OA 
BRANCH  21  23
HETATM   23  C   UNL     1     -10.245   5.742  71.145  1.00  0.00    -0.218 C  
HETATM   24  H   UNL     1      -9.833   3.871  71.383  1.00  0.00     0.000 HD 
HETATM   25  O   UNL     1     -10.498   4.472  71.697  1.00  0.00    -0.134 OA 
BRANCH  23  26
HETATM   26  C   UNL     1      -8.781   6.159  71.482  1.00  0.00    -0.135 C  
HETATM   27  H   UNL     1      -7.416   5.634  72.755  1.00  0.00     0.000 HD 
HETATM   28  O   UNL     1      -8.308   5.380  72.551  1.00  0.00    -0.113 OA 
BRANCH  26  29
HETATM   29  C   UNL     1      -7.738   6.133  70.311  1.00  0.00    -0.097 C  
BRANCH  29  30
HETATM   30  O   UNL     1      -8.041   4.986  69.529  1.00  0.00    -0.077 OA 
BRANCH  30  31
HETATM   31  C   UNL     1      -8.085   5.188  68.131  1.00  0.00    -0.094 C  
HETATM   32  O   UNL     1      -7.788   6.540  67.825  1.00  0.00    -0.107 OA 
HETATM   33  C   UNL     1      -7.813   6.754  66.422  1.00  0.00    -0.104 C  
HETATM   34  H   UNL     1     -10.733   3.298  67.697  1.00  0.00     0.000 HD 
HETATM   35  C   UNL     1      -9.254   6.568  65.880  1.00  0.00     0.012 C  
HETATM   36  O   UNL     1     -10.136   7.468  66.504  1.00  0.00    -0.411 OA 
HETATM   37  C   UNL     1      -9.696   5.119  66.170  1.00  0.00    -0.176 C  
HETATM   38  O   UNL     1      -9.852   3.510  67.978  1.00  0.00    -0.082 OA 
HETATM   39  H   UNL     1     -11.019   7.354  66.171  1.00  0.00     0.000 HD 
HETATM   40  O   UNL     1     -11.039   4.904  65.809  1.00  0.00    -0.782 OA 
HETATM   41  C   UNL     1      -9.524   4.844  67.673  1.00  0.00    -0.141 C  
HETATM   42  H   UNL     1     -11.311   4.011  65.987  1.00  0.00     0.000 HD 
BRANCH  33  43
HETATM   43  C   UNL     1      -7.268   8.165  66.148  1.00  0.00    -0.066 C  
HETATM   44  O   UNL     1      -7.053   8.371  64.777  1.00  0.00    -0.077 OA 
HETATM   45  H   UNL     1      -6.717   9.243  64.608  1.00  0.00     0.000 HD 
ENDBRANCH  33  43
ENDBRANCH  30  31
ENDBRANCH  29  30
BRANCH  29  46
HETATM   46  C   UNL     1      -6.228   6.175  70.736  1.00  0.00    -0.039 C  
HETATM   47  O   UNL     1      -5.820   4.939  71.274  1.00  0.00    -0.015 OA 
HETATM   48  H   UNL     1      -4.906   4.964  71.531  1.00  0.00     0.000 HD 
BRANCH  46  49
HETATM   49  C   UNL     1      -5.836   7.365  71.641  1.00  0.00    -0.036 C  
HETATM   50  H   UNL     1      -6.122   9.298  71.697  1.00  0.00     0.000 HD 
HETATM   51  O   UNL     1      -6.363   8.567  71.141  1.00  0.00    -0.036 OA 
ENDBRANCH  46  49
ENDBRANCH  29  46
ENDBRANCH  26  29
ENDBRANCH  23  26
ENDBRANCH  21  23
ENDBRANCH  20  21
ENDBRANCH  19  20
ENDBRANCH  18  19
ENDBRANCH  16  18
ENDBRANCH  13  16
ENDBRANCH  10  13
ENDBRANCH   7  10
ENDBRANCH   4   7
ENDBRANCH   2   4
TORSDOF 17
ENDMDL
MODEL      286
REMARK 921   NORMALIZED FREE ENERGY PREDICTED BY IDOCK:   -3.80 KCAL/MOL
REMARK 922        TOTAL FREE ENERGY PREDICTED BY IDOCK:  -11.02 KCAL/MOL
REMARK 923 INTER-LIGAND FREE ENERGY PREDICTED BY IDOCK:  -10.18 KCAL/MOL
REMARK 924 INTRA-LIGAND FREE ENERGY PREDICTED BY IDOCK:   -0.84 KCAL/MOL
REMARK 927      BINDING AFFINITY PREDICTED BY RF-SCORE:    0.00 PKD
ROOT
HETATM    1  O   UNL     1     -10.176  17.143  68.993  1.00  0.00    -0.302 OA 
HETATM    2  C   UNL     1      -9.228  16.460  68.218  1.00  0.00    -0.207 C  
HETATM    3  H   UNL     1      -9.733  17.693  69.628  1.00  0.00     0.000 HD 
ENDROOT
BRANCH   2   4
HETATM    4  C   UNL     1      -9.946  15.569  67.190  1.00  0.00    -0.242 C  
HETATM    5  O   UNL     1     -10.696  14.591  67.867  1.00  0.00    -0.241 OA 
HETATM    6  H   UNL     1     -11.139  14.040  67.232  1.00  0.00     0.000 HD 
BRANCH   4   7
HETATM    7  C   UNL     1     -10.885  16.397  66.274  1.00  0.00    -0.066 C  
HETATM    8  H   UNL     1     -11.000  18.232  65.641  1.00  0.00     0.000 HD 
HETATM    9  O   UNL     1     -10.425  17.725  66.202  1.00  0.00    -0.366 OA 
BRANCH   7  10
HETATM   10  C   UNL     1     -10.961  15.811  64.839  1.00  0.00    -0.427 C  
HETATM   11  H   UNL     1     -11.421  16.471  63.083  1.00  0.00     0.000 HD 
HETATM   12  O   UNL     1     -11.374  16.831  63.962  1.00  0.00    -1.153 OA 
BRANCH  10  13
HETATM   13  C   UNL     1     -11.939  14.611  64.712  1.00  0.00    -0.433 C  
HETATM   14  H   UNL     1     -13.388  14.075  63.535  1.00  0.00     0.000 HD 
HETATM   15  O   UNL     1     -12.790  14.809  63.613  1.00  0.00    -0.619 OA 
BRANCH  13  16
HETATM   16  C   UNL     1     -11.241  13.284  64.526  1.00  0.00    -0.362 C  
HETATM   17  O   UNL     1     -10.044  13.259  64.287  1.00  0.00    -0.338 OA 
BRANCH  16  18
HETATM   18  O   UNL     1     -11.920  12.122  64.608  1.00  0.00    -0.366 OA 
BRANCH  18  19
HETATM   19 CA   UNL     1     -10.773  10.139  65.388  1.00  0.00    -0.265 Ca 
BRANCH  19  20
HETATM   20  O   UNL     1      -9.626   8.156  66.167  1.00  0.00    -0.195 OA 
BRANCH  20  21
HETATM   21  C   UNL     1     -10.254   7.697  67.264  1.00  0.00    -0.272 C  
HETATM   22  O   UNL     1     -10.473   6.500  67.337  1.00  0.00    -0.183 OA 
BRANCH  21  23
HETATM   23  C   UNL     1     -10.834   8.634  68.300  1.00  0.00     0.053 C  
HETATM   24  H   UNL     1     -11.153  10.532  68.441  1.00  0.00     0.000 HD 
HETATM   25  O   UNL     1     -10.789   9.944  67.790  1.00  0.00    -0.268 OA 
BRANCH  23  26
HETATM   26  C   UNL     1     -10.113   8.601  69.682  1.00  0.00    -0.201 C  
HETATM   27  H   UNL     1      -8.851   9.714  70.647  1.00  0.00     0.000 HD 
HETATM   28  O   UNL     1      -9.291   9.734  69.805  1.00  0.00    -0.199 OA 
BRANCH  26  29
HETATM   29  C   UNL     1     -11.011   8.462  70.959  1.00  0.00    -0.246 C  
BRANCH  29  30
HETATM   30  O   UNL     1     -10.133   8.511  72.075  1.00  0.00    -0.258 OA 
BRANCH  30  31
HETATM   31  C   UNL     1      -9.365   7.348  72.306  1.00  0.00    -0.142 C  
HETATM   32  O   UNL     1      -8.975   6.768  71.072  1.00  0.00    -0.144 OA 
HETATM   33  C   UNL     1      -8.190   5.606  71.290  1.00  0.00    -0.125 C  
HETATM   34  H   UNL     1     -11.235   6.317  74.800  1.00  0.00     0.000 HD 
HETATM   35  C   UNL     1      -9.048   4.499  71.955  1.00  0.00    -0.130 C  
HETATM   36  O   UNL     1     -10.148   4.172  71.141  1.00  0.00    -0.169 OA 
HETATM   37  C   UNL     1      -9.546   5.025  73.317  1.00  0.00    -0.140 C  
HETATM   38  O   UNL     1     -10.682   6.920  74.317  1.00  0.00    -0.148 OA 
HETATM   39  H   UNL     1     -10.674   3.494  71.549  1.00  0.00     0.000 HD 
HETATM   40  O   UNL     1     -10.428   4.119  73.933  1.00  0.00    -0.165 OA 
HETATM   41  C   UNL     1     -10.268   6.364  73.093  1.00  0.00    -0.205 C  
HETATM   42  H   UNL     1     -10.734   4.443  74.772  1.00  0.00     0.000 HD 
BRANCH  33  43
HETATM   43  C   UNL     1      -7.618   5.160  69.935  1.00  0.00    -0.064 C  
HETATM   44  O   UNL     1      -8.548   5.347  68.903  1.00  0.00    -0.099 OA 
HETATM   45  H   UNL     1      -8.195   5.073  68.065  1.00  0.00     0.000 HD 
ENDBRANCH  33  43
ENDBRANCH  30  31
ENDBRANCH  29  30
BRANCH  29  46
HETATM   46  C   UNL     1     -11.951   7.206  71.004  1.00  0.00    -0.347 C  
HETATM   47  O   UNL     1     -11.758   6.390  69.871  1.00  0.00    -0.528 OA 
HETATM   48  H   UNL     1     -12.326   5.630  69.898  1.00  0.00     0.000 HD 
BRANCH  46  49
HETATM   49  C   UNL     1     -13.445   7.515  71.254  1.00  0.00    -0.253 C  
HETATM   50  H   UNL     1     -14.508   8.839  72.223  1.00  0.00     0.000 HD 
HETATM   51  O   UNL     1     -13.590   8.649  72.069  1.00  0.00    -0.365 OA 
ENDBRANCH  46  49
ENDBRANCH  29  46
ENDBRANCH  26  29
ENDBRANCH  23  26
ENDBRANCH  21  23
ENDBRANCH  20  21
ENDBRANCH  19  20
ENDBRANCH  18  19
ENDBRANCH  16  18
ENDBRANCH  13  16
ENDBRANCH  10  13
ENDBRANCH   7  10
ENDBRANCH   4   7
ENDBRANCH   2   4
TORSDOF 17
ENDMDL
MODEL      287
REMARK 921   NORMALIZED FREE ENERGY PREDICTED BY IDOCK:   -3.79 KCAL/MOL
REMARK 922        TOTAL FREE ENERGY PREDICTED BY IDOCK:  -10.99 KCAL/MOL
REMARK 923 INTER-LIGAND FREE ENERGY PREDICTED BY IDOCK:   -8.69 KCAL/MOL
REMARK 924 INTRA-LIGAND FREE ENERGY PREDICTED BY IDOCK:   -2.31 KCAL/MOL
REMARK 927      BINDING AFFINITY PREDICTED BY RF-SCORE:    0.00 PKD
ROOT
HETATM    1  O   UNL     1     -14.396   6.247  72.493  1.00  0.00    -0.692 OA 
HETATM    2  C   UNL     1     -14.260   7.202  71.477  1.00  0.00    -0.333 C  
HETATM    3  H   UNL     1     -15.308   5.994  72.575  1.00  0.00     0.000 HD 
ENDROOT
BRANCH   2   4
HETATM    4  C   UNL     1     -12.784   7.612  71.344  1.00  0.00    -0.327 C  
HETATM    5  O   UNL     1     -12.402   8.347  72.480  1.00  0.00    -0.467 OA 
HETATM    6  H   UNL     1     -11.489   8.599  72.398  1.00  0.00     0.000 HD 
BRANCH   4   7
HETATM    7  C   UNL     1     -11.860   6.374  71.195  1.00  0.00    -0.263 C  
HETATM    8  H   UNL     1     -10.798   5.551  69.790  1.00  0.00     0.000 HD 
HETATM    9  O   UNL     1     -11.363   6.309  69.881  1.00  0.00    -0.397 OA 
BRANCH   7  10
HETATM   10  C   UNL     1     -10.666   6.418  72.185  1.00  0.00    -0.227 C  
HETATM   11  H   UNL     1      -8.757   6.686  72.060  1.00  0.00     0.000 HD 
HETATM   12  O   UNL     1      -9.489   6.659  71.453  1.00  0.00    -0.159 OA 
BRANCH  10  13
HETATM   13  C   UNL     1     -10.491   5.109  73.003  1.00  0.00    -0.210 C  
HETATM   14  H   UNL     1     -11.641   3.726  73.738  1.00  0.00     0.000 HD 
HETATM   15  O   UNL     1     -11.748   4.527  73.238  1.00  0.00    -0.262 OA 
BRANCH  13  16
HETATM   16  C   UNL     1      -9.626   4.081  72.312  1.00  0.00    -0.144 C  
HETATM   17  O   UNL     1      -8.611   3.678  72.859  1.00  0.00    -0.092 OA 
BRANCH  16  18
HETATM   18  O   UNL     1      -9.948   3.605  71.093  1.00  0.00    -0.167 OA 
BRANCH  18  19
HETATM   19 CA   UNL     1      -8.942   4.608  69.133  1.00  0.00    -0.085 Ca 
BRANCH  19  20
HETATM   20  O   UNL     1      -7.936   5.609  67.174  1.00  0.00    -0.101 OA 
BRANCH  20  21
HETATM   21  C   UNL     1      -8.715   6.622  66.758  1.00  0.00    -0.121 C  
HETATM   22  O   UNL     1      -9.920   6.435  66.717  1.00  0.00    -0.162 OA 
BRANCH  21  23
HETATM   23  C   UNL     1      -8.132   7.896  66.189  1.00  0.00    -0.109 C  
HETATM   24  H   UNL     1      -6.642   8.361  65.052  1.00  0.00     0.000 HD 
HETATM   25  O   UNL     1      -7.009   7.561  65.410  1.00  0.00    -0.057 OA 
BRANCH  23  26
HETATM   26  C   UNL     1      -7.713   8.953  67.255  1.00  0.00    -0.092 C  
HETATM   27  H   UNL     1      -6.076   9.828  67.816  1.00  0.00     0.000 HD 
HETATM   28  O   UNL     1      -6.331   9.183  67.166  1.00  0.00    -0.058 OA 
BRANCH  26  29
HETATM   29  C   UNL     1      -8.476  10.323  67.248  1.00  0.00    -0.125 C  
BRANCH  29  30
HETATM   30  O   UNL     1      -9.686  10.105  66.538  1.00  0.00    -0.182 OA 
BRANCH  30  31
HETATM   31  C   UNL     1     -10.849  10.663  67.116  1.00  0.00    -0.270 C  
HETATM   32  O   UNL     1     -10.902  12.056  66.856  1.00  0.00    -0.238 OA 
HETATM   33  C   UNL     1     -12.074  12.627  67.419  1.00  0.00    -0.111 C  
HETATM   34  H   UNL     1     -10.630   8.881  69.864  1.00  0.00     0.000 HD 
HETATM   35  C   UNL     1     -12.014  12.549  68.966  1.00  0.00    -0.233 C  
HETATM   36  O   UNL     1     -10.884  13.232  69.452  1.00  0.00    -0.440 OA 
HETATM   37  C   UNL     1     -11.940  11.063  69.374  1.00  0.00    -0.337 C  
HETATM   38  O   UNL     1     -10.686   9.035  68.929  1.00  0.00    -0.205 OA 
HETATM   39  H   UNL     1     -10.848  13.184  70.400  1.00  0.00     0.000 HD 
HETATM   40  O   UNL     1     -11.768  10.913  70.762  1.00  0.00    -0.328 OA 
HETATM   41  C   UNL     1     -10.755  10.411  68.642  1.00  0.00    -0.218 C  
HETATM   42  H   UNL     1     -11.723   9.998  71.013  1.00  0.00     0.000 HD 
BRANCH  33  43
HETATM   43  C   UNL     1     -12.184  14.074  66.914  1.00  0.00    -0.380 C  
HETATM   44  O   UNL     1     -10.982  14.772  67.101  1.00  0.00    -0.303 OA 
HETATM   45  H   UNL     1     -11.051  15.666  66.789  1.00  0.00     0.000 HD 
ENDBRANCH  33  43
ENDBRANCH  30  31
ENDBRANCH  29  30
BRANCH  29  46
HETATM   46  C   UNL     1      -7.676  11.551  66.688  1.00  0.00    -0.101 C  
HETATM   47  O   UNL     1      -6.748  11.145  65.709  1.00  0.00    -0.355 OA 
HETATM   48  H   UNL     1      -6.264  11.888  65.370  1.00  0.00     0.000 HD 
BRANCH  46  49
HETATM   49  C   UNL     1      -7.033  12.459  67.763  1.00  0.00    -0.118 C  
HETATM   50  H   UNL     1      -6.272  14.256  67.875  1.00  0.00     0.000 HD 
HETATM   51  O   UNL     1      -6.668  13.698  67.214  1.00  0.00    -0.222 OA 
ENDBRANCH  46  49
ENDBRANCH  29  46
ENDBRANCH  26  29
ENDBRANCH  23  26
ENDBRANCH  21  23
ENDBRANCH  20  21
ENDBRANCH  19  20
ENDBRANCH  18  19
ENDBRANCH  16  18
ENDBRANCH  13  16
ENDBRANCH  10  13
ENDBRANCH   7  10
ENDBRANCH   4   7
ENDBRANCH   2   4
TORSDOF 17
ENDMDL
MODEL      288
REMARK 921   NORMALIZED FREE ENERGY PREDICTED BY IDOCK:   -3.76 KCAL/MOL
REMARK 922        TOTAL FREE ENERGY PREDICTED BY IDOCK:  -10.94 KCAL/MOL
REMARK 923 INTER-LIGAND FREE ENERGY PREDICTED BY IDOCK:  -10.07 KCAL/MOL
REMARK 924 INTRA-LIGAND FREE ENERGY PREDICTED BY IDOCK:   -0.87 KCAL/MOL
REMARK 927      BINDING AFFINITY PREDICTED BY RF-SCORE:    0.00 PKD
ROOT
HETATM    1  O   UNL     1     -10.783  13.748  69.691  1.00  0.00    -0.447 OA 
HETATM    2  C   UNL     1     -10.078  14.063  68.522  1.00  0.00    -0.236 C  
HETATM    3  H   UNL     1     -11.423  13.071  69.507  1.00  0.00     0.000 HD 
ENDROOT
BRANCH   2   4
HETATM    4  C   UNL     1      -9.040  15.158  68.821  1.00  0.00    -0.200 C  
HETATM    5  O   UNL     1      -8.121  14.680  69.771  1.00  0.00    -0.404 OA 
HETATM    6  H   UNL     1      -7.480  15.357  69.956  1.00  0.00     0.000 HD 
BRANCH   4   7
HETATM    7  C   UNL     1      -8.281  15.591  67.539  1.00  0.00    -0.163 C  
HETATM    8  H   UNL     1      -8.662  15.728  65.637  1.00  0.00     0.000 HD 
HETATM    9  O   UNL     1      -9.128  15.463  66.422  1.00  0.00    -0.270 OA 
BRANCH   7  10
HETATM   10  C   UNL     1      -7.780  17.056  67.628  1.00  0.00    -0.170 C  
HETATM   11  H   UNL     1      -7.877  18.489  68.920  1.00  0.00     0.000 HD 
HETATM   12  O   UNL     1      -8.185  17.591  68.865  1.00  0.00    -0.253 OA 
BRANCH  10  13
HETATM   13  C   UNL     1      -8.317  17.965  66.488  1.00  0.00    -0.262 C  
HETATM   14  H   UNL     1      -9.419  17.756  64.902  1.00  0.00     0.000 HD 
HETATM   15  O   UNL     1      -9.090  17.200  65.600  1.00  0.00    -0.500 OA 
BRANCH  13  16
HETATM   16  C   UNL     1      -9.172  19.107  66.983  1.00  0.00    -0.296 C  
HETATM   17  O   UNL     1      -8.661  20.195  67.202  1.00  0.00    -0.321 OA 
BRANCH  16  18
HETATM   18  O   UNL     1     -10.492  18.946  67.199  1.00  0.00    -0.392 OA 
BRANCH  18  19
HETATM   19 CA   UNL     1     -11.507  16.795  66.749  1.00  0.00    -0.107 Ca 
BRANCH  19  20
HETATM   20  O   UNL     1     -12.520  14.645  66.300  1.00  0.00    -0.213 OA 
BRANCH  20  21
HETATM   21  C   UNL     1     -12.115  14.221  65.090  1.00  0.00    -0.410 C  
HETATM   22  O   UNL     1     -12.123  15.023  64.172  1.00  0.00    -0.524 OA 
BRANCH  21  23
HETATM   23  C   UNL     1     -11.824  12.763  64.813  1.00  0.00    -0.374 C  
HETATM   24  H   UNL     1     -12.830  11.230  64.209  1.00  0.00     0.000 HD 
HETATM   25  O   UNL     1     -13.013  12.146  64.383  1.00  0.00    -0.680 OA 
BRANCH  23  26
HETATM   26  C   UNL     1     -11.251  11.972  66.028  1.00  0.00    -0.335 C  
HETATM   27  H   UNL     1     -11.889  11.382  67.762  1.00  0.00     0.000 HD 
HETATM   28  O   UNL     1     -12.238  11.864  67.021  1.00  0.00    -0.492 OA 
BRANCH  26  29
HETATM   29  C   UNL     1     -10.638  10.558  65.741  1.00  0.00    -0.066 C  
BRANCH  29  30
HETATM   30  O   UNL     1     -11.001   9.732  66.838  1.00  0.00    -0.117 OA 
BRANCH  30  31
HETATM   31  C   UNL     1      -9.928   9.171  67.568  1.00  0.00    -0.205 C  
HETATM   32  O   UNL     1      -9.859   7.774  67.336  1.00  0.00    -0.151 OA 
HETATM   33  C   UNL     1      -8.776   7.200  68.051  1.00  0.00    -0.127 C  
HETATM   34  H   UNL     1     -10.472  10.999  70.240  1.00  0.00     0.000 HD 
HETATM   35  C   UNL     1      -9.030   7.302  69.578  1.00  0.00    -0.144 C  
HETATM   36  O   UNL     1     -10.221   6.639  69.925  1.00  0.00    -0.180 OA 
HETATM   37  C   UNL     1      -9.137   8.795  69.952  1.00  0.00    -0.157 C  
HETATM   38  O   UNL     1     -10.299  10.829  69.322  1.00  0.00    -0.213 OA 
HETATM   39  H   UNL     1     -10.377   6.702  70.860  1.00  0.00     0.000 HD 
HETATM   40  O   UNL     1      -9.482   8.968  71.304  1.00  0.00    -0.247 OA 
HETATM   41  C   UNL     1     -10.211   9.448  69.066  1.00  0.00    -0.205 C  
HETATM   42  H   UNL     1      -9.547   9.888  71.534  1.00  0.00     0.000 HD 
BRANCH  33  43
HETATM   43  C   UNL     1      -8.621   5.743  67.586  1.00  0.00    -0.101 C  
HETATM   44  O   UNL     1      -9.869   5.135  67.389  1.00  0.00    -0.146 OA 
HETATM   45  H   UNL     1      -9.773   4.236  67.101  1.00  0.00     0.000 HD 
ENDBRANCH  33  43
ENDBRANCH  30  31
ENDBRANCH  29  30
BRANCH  29  46
HETATM   46  C   UNL     1      -9.094  10.523  65.462  1.00  0.00    -0.186 C  
HETATM   47  O   UNL     1      -8.540  11.817  65.523  1.00  0.00    -0.384 OA 
HETATM   48  H   UNL     1      -7.606  11.796  65.355  1.00  0.00     0.000 HD 
BRANCH  46  49
HETATM   49  C   UNL     1      -8.677   9.768  64.178  1.00  0.00    -0.213 C  
HETATM   50  H   UNL     1      -8.402  10.172  62.286  1.00  0.00     0.000 HD 
HETATM   51  O   UNL     1      -8.658  10.635  63.075  1.00  0.00    -0.176 OA 
ENDBRANCH  46  49
ENDBRANCH  29  46
ENDBRANCH  26  29
ENDBRANCH  23  26
ENDBRANCH  21  23
ENDBRANCH  20  21
ENDBRANCH  19  20
ENDBRANCH  18  19
ENDBRANCH  16  18
ENDBRANCH  13  16
ENDBRANCH  10  13
ENDBRANCH   7  10
ENDBRANCH   4   7
ENDBRANCH   2   4
TORSDOF 17
ENDMDL
MODEL      289
REMARK 921   NORMALIZED FREE ENERGY PREDICTED BY IDOCK:   -3.76 KCAL/MOL
REMARK 922        TOTAL FREE ENERGY PREDICTED BY IDOCK:  -10.93 KCAL/MOL
REMARK 923 INTER-LIGAND FREE ENERGY PREDICTED BY IDOCK:   -8.70 KCAL/MOL
REMARK 924 INTRA-LIGAND FREE ENERGY PREDICTED BY IDOCK:   -2.23 KCAL/MOL
REMARK 927      BINDING AFFINITY PREDICTED BY RF-SCORE:    0.00 PKD
ROOT
HETATM    1  O   UNL     1      -7.363   4.744  69.182  1.00  0.00    -0.052 OA 
HETATM    2  C   UNL     1      -7.102   5.568  70.285  1.00  0.00    -0.062 C  
HETATM    3  H   UNL     1      -6.607   4.197  69.005  1.00  0.00     0.000 HD 
ENDROOT
BRANCH   2   4
HETATM    4  C   UNL     1      -8.327   6.452  70.572  1.00  0.00    -0.129 C  
HETATM    5  O   UNL     1      -7.913   7.789  70.706  1.00  0.00    -0.097 OA 
HETATM    6  H   UNL     1      -8.670   8.336  70.883  1.00  0.00     0.000 HD 
BRANCH   4   7
HETATM    7  C   UNL     1      -9.383   6.348  69.440  1.00  0.00    -0.141 C  
HETATM    8  H   UNL     1     -11.227   5.758  69.263  1.00  0.00     0.000 HD 
HETATM    9  O   UNL     1     -10.581   5.822  69.957  1.00  0.00    -0.255 OA 
BRANCH   7  10
HETATM   10  C   UNL     1      -9.676   7.728  68.792  1.00  0.00    -0.157 C  
HETATM   11  H   UNL     1     -11.235   8.829  68.497  1.00  0.00     0.000 HD 
HETATM   12  O   UNL     1     -11.056   7.984  68.894  1.00  0.00     0.064 OA 
BRANCH  10  13
HETATM   13  C   UNL     1      -9.258   7.810  67.297  1.00  0.00    -0.139 C  
HETATM   14  H   UNL     1     -10.087   8.314  65.615  1.00  0.00     0.000 HD 
HETATM   15  O   UNL     1     -10.343   8.263  66.529  1.00  0.00    -0.276 OA 
BRANCH  13  16
HETATM   16  C   UNL     1      -8.093   8.739  67.050  1.00  0.00    -0.099 C  
HETATM   17  O   UNL     1      -7.176   8.787  67.855  1.00  0.00    -0.081 OA 
BRANCH  16  18
HETATM   18  O   UNL     1      -8.052   9.529  65.959  1.00  0.00    -0.109 OA 
BRANCH  18  19
HETATM   19 CA   UNL     1     -10.116  10.442  65.086  1.00  0.00    -0.207 Ca 
BRANCH  19  20
HETATM   20  O   UNL     1     -12.180  11.356  64.213  1.00  0.00     0.069 OA 
BRANCH  20  21
HETATM   21  C   UNL     1     -12.090  12.698  64.208  1.00  0.00    -0.426 C  
HETATM   22  O   UNL     1     -12.733  13.309  63.372  1.00  0.00    -0.695 OA 
BRANCH  21  23
HETATM   23  C   UNL     1     -11.100  13.433  65.083  1.00  0.00    -0.301 C  
HETATM   24  H   UNL     1      -9.312  14.133  64.881  1.00  0.00     0.000 HD 
HETATM   25  O   UNL     1      -9.934  13.671  64.332  1.00  0.00    -0.268 OA 
BRANCH  23  26
HETATM   26  C   UNL     1     -10.714  12.689  66.397  1.00  0.00    -0.255 C  
HETATM   27  H   UNL     1      -9.125  11.869  67.146  1.00  0.00     0.000 HD 
HETATM   28  O   UNL     1      -9.359  12.323  66.345  1.00  0.00    -0.223 OA 
BRANCH  26  29
HETATM   29  C   UNL     1     -11.010  13.421  67.752  1.00  0.00    -0.262 C  
BRANCH  29  30
HETATM   30  O   UNL     1      -9.873  14.227  68.029  1.00  0.00    -0.213 OA 
BRANCH  30  31
HETATM   31  C   UNL     1     -10.064  15.622  67.912  1.00  0.00    -0.225 C  
HETATM   32  O   UNL     1     -10.265  15.974  66.553  1.00  0.00    -0.273 OA 
HETATM   33  C   UNL     1     -10.474  17.372  66.423  1.00  0.00    -0.267 C  
HETATM   34  H   UNL     1      -7.757  16.368  70.125  1.00  0.00     0.000 HD 
HETATM   35  C   UNL     1      -9.185  18.142  66.810  1.00  0.00    -0.279 C  
HETATM   36  O   UNL     1      -8.112  17.753  65.987  1.00  0.00    -0.484 OA 
HETATM   37  C   UNL     1      -8.854  17.824  68.283  1.00  0.00    -0.277 C  
HETATM   38  O   UNL     1      -8.545  15.954  69.795  1.00  0.00    -0.079 OA 
HETATM   39  H   UNL     1      -7.323  18.225  66.224  1.00  0.00     0.000 HD 
HETATM   40  O   UNL     1      -7.632  18.397  68.676  1.00  0.00    -0.292 OA 
HETATM   41  C   UNL     1      -8.778  16.297  68.451  1.00  0.00    -0.205 C  
HETATM   42  H   UNL     1      -7.428  18.201  69.583  1.00  0.00     0.000 HD 
BRANCH  33  43
HETATM   43  C   UNL     1     -10.906  17.653  64.975  1.00  0.00     0.541 C  
HETATM   44  O   UNL     1     -11.102  16.462  64.261  1.00  0.00    -1.168 OA 
HETATM   45  H   UNL     1     -11.369  16.636  63.367  1.00  0.00     0.000 HD 
ENDBRANCH  33  43
ENDBRANCH  30  31
ENDBRANCH  29  30
BRANCH  29  46
HETATM   46  C   UNL     1     -11.387  12.498  68.963  1.00  0.00    -0.290 C  
HETATM   47  O   UNL     1     -12.273  11.478  68.564  1.00  0.00    -0.524 OA 
HETATM   48  H   UNL     1     -12.501  10.919  69.296  1.00  0.00     0.000 HD 
BRANCH  46  49
HETATM   49  C   UNL     1     -11.884  13.242  70.224  1.00  0.00    -0.234 C  
HETATM   50  H   UNL     1     -13.019  12.873  71.772  1.00  0.00     0.000 HD 
HETATM   51  O   UNL     1     -12.714  12.415  70.997  1.00  0.00    -0.326 OA 
ENDBRANCH  46  49
ENDBRANCH  29  46
ENDBRANCH  26  29
ENDBRANCH  23  26
ENDBRANCH  21  23
ENDBRANCH  20  21
ENDBRANCH  19  20
ENDBRANCH  18  19
ENDBRANCH  16  18
ENDBRANCH  13  16
ENDBRANCH  10  13
ENDBRANCH   7  10
ENDBRANCH   4   7
ENDBRANCH   2   4
TORSDOF 17
ENDMDL
MODEL      290
REMARK 921   NORMALIZED FREE ENERGY PREDICTED BY IDOCK:   -3.76 KCAL/MOL
REMARK 922        TOTAL FREE ENERGY PREDICTED BY IDOCK:  -10.93 KCAL/MOL
REMARK 923 INTER-LIGAND FREE ENERGY PREDICTED BY IDOCK:   -9.98 KCAL/MOL
REMARK 924 INTRA-LIGAND FREE ENERGY PREDICTED BY IDOCK:   -0.96 KCAL/MOL
REMARK 927      BINDING AFFINITY PREDICTED BY RF-SCORE:    0.00 PKD
ROOT
HETATM    1  O   UNL     1      -8.487   8.227  68.730  1.00  0.00    -0.123 OA 
HETATM    2  C   UNL     1      -7.195   7.755  68.460  1.00  0.00    -0.086 C  
HETATM    3  H   UNL     1      -8.556   9.138  68.469  1.00  0.00     0.000 HD 
ENDROOT
BRANCH   2   4
HETATM    4  C   UNL     1      -7.084   6.280  68.881  1.00  0.00    -0.082 C  
HETATM    5  O   UNL     1      -6.005   5.684  68.206  1.00  0.00    -0.016 OA 
HETATM    6  H   UNL     1      -5.937   4.772  68.467  1.00  0.00     0.000 HD 
BRANCH   4   7
HETATM    7  C   UNL     1      -6.877   6.139  70.413  1.00  0.00    -0.054 C  
HETATM    8  H   UNL     1      -7.679   6.861  72.030  1.00  0.00     0.000 HD 
HETATM    9  O   UNL     1      -7.806   6.948  71.093  1.00  0.00    -0.098 OA 
BRANCH   7  10
HETATM   10  C   UNL     1      -7.043   4.671  70.888  1.00  0.00    -0.037 C  
HETATM   11  H   UNL     1      -7.285   2.950  70.045  1.00  0.00     0.000 HD 
HETATM   12  O   UNL     1      -7.183   3.849  69.754  1.00  0.00    -0.042 OA 
BRANCH  10  13
HETATM   13  C   UNL     1      -8.268   4.456  71.819  1.00  0.00    -0.101 C  
HETATM   14  H   UNL     1      -9.330   5.528  73.042  1.00  0.00     0.000 HD 
HETATM   15  O   UNL     1      -8.580   5.659  72.473  1.00  0.00    -0.124 OA 
BRANCH  13  16
HETATM   16  C   UNL     1      -9.505   3.993  71.086  1.00  0.00    -0.160 C  
HETATM   17  O   UNL     1      -9.983   2.897  71.338  1.00  0.00    -0.143 OA 
BRANCH  16  18
HETATM   18  O   UNL     1     -10.088   4.763  70.146  1.00  0.00    -0.242 OA 
BRANCH  18  19
HETATM   19 CA   UNL     1     -10.008   7.171  70.380  1.00  0.00    -0.176 Ca 
BRANCH  19  20
HETATM   20  O   UNL     1      -9.927   9.578  70.614  1.00  0.00    -0.263 OA 
BRANCH  20  21
HETATM   21  C   UNL     1     -11.066   9.994  71.194  1.00  0.00    -0.200 C  
HETATM   22  O   UNL     1     -11.588   9.261  72.017  1.00  0.00    -0.356 OA 
BRANCH  21  23
HETATM   23  C   UNL     1     -11.788  11.239  70.730  1.00  0.00    -0.183 C  
HETATM   24  H   UNL     1     -13.608  11.883  70.746  1.00  0.00     0.000 HD 
HETATM   25  O   UNL     1     -13.154  11.101  71.037  1.00  0.00    -0.292 OA 
BRANCH  23  26
HETATM   26  C   UNL     1     -11.637  11.551  69.210  1.00  0.00    -0.322 C  
HETATM   27  H   UNL     1     -12.292  10.812  67.541  1.00  0.00     0.000 HD 
HETATM   28  O   UNL     1     -12.384  10.621  68.468  1.00  0.00    -0.317 OA 
BRANCH  26  29
HETATM   29  C   UNL     1     -11.984  13.004  68.736  1.00  0.00    -0.266 C  
BRANCH  29  30
HETATM   30  O   UNL     1     -11.172  13.260  67.600  1.00  0.00    -0.260 OA 
BRANCH  30  31
HETATM   31  C   UNL     1     -11.363  12.395  66.499  1.00  0.00    -0.340 C  
HETATM   32  O   UNL     1     -10.136  11.778  66.145  1.00  0.00    -0.212 OA 
HETATM   33  C   UNL     1     -10.316  10.894  65.049  1.00  0.00    -0.288 C  
HETATM   34  H   UNL     1     -13.402  14.439  64.936  1.00  0.00     0.000 HD 
HETATM   35  C   UNL     1     -10.700  11.692  63.777  1.00  0.00    -0.419 C  
HETATM   36  O   UNL     1      -9.699  12.628  63.460  1.00  0.00    -0.635 OA 
HETATM   37  C   UNL     1     -12.031  12.426  64.049  1.00  0.00    -0.460 C  
HETATM   38  O   UNL     1     -13.087  13.904  65.655  1.00  0.00    -0.625 OA 
HETATM   39  H   UNL     1      -9.935  13.117  62.681  1.00  0.00     0.000 HD 
HETATM   40  O   UNL     1     -12.389  13.265  62.979  1.00  0.00    -0.801 OA 
HETATM   41  C   UNL     1     -11.876  13.268  65.326  1.00  0.00    -0.357 C  
HETATM   42  H   UNL     1     -13.208  13.716  63.146  1.00  0.00     0.000 HD 
BRANCH  33  43
HETATM   43  C   UNL     1      -9.014  10.099  64.864  1.00  0.00    -0.197 C  
HETATM   44  O   UNL     1      -7.890  10.931  64.964  1.00  0.00    -0.356 OA 
HETATM   45  H   UNL     1      -7.086  10.439  64.850  1.00  0.00     0.000 HD 
ENDBRANCH  33  43
ENDBRANCH  30  31
ENDBRANCH  29  30
BRANCH  29  46
HETATM   46  C   UNL     1     -11.853  14.130  69.821  1.00  0.00    -0.322 C  
HETATM   47  O   UNL     1     -13.116  14.487  70.333  1.00  0.00    -0.520 OA 
HETATM   48  H   UNL     1     -13.037  15.169  70.990  1.00  0.00     0.000 HD 
BRANCH  46  49
HETATM   49  C   UNL     1     -11.028  15.364  69.388  1.00  0.00    -0.276 C  
HETATM   50  H   UNL     1      -9.207  16.040  69.611  1.00  0.00     0.000 HD 
HETATM   51  O   UNL     1      -9.715  15.282  69.877  1.00  0.00    -0.224 OA 
ENDBRANCH  46  49
ENDBRANCH  29  46
ENDBRANCH  26  29
ENDBRANCH  23  26
ENDBRANCH  21  23
ENDBRANCH  20  21
ENDBRANCH  19  20
ENDBRANCH  18  19
ENDBRANCH  16  18
ENDBRANCH  13  16
ENDBRANCH  10  13
ENDBRANCH   7  10
ENDBRANCH   4   7
ENDBRANCH   2   4
TORSDOF 17
ENDMDL
MODEL      291
REMARK 921   NORMALIZED FREE ENERGY PREDICTED BY IDOCK:   -3.75 KCAL/MOL
REMARK 922        TOTAL FREE ENERGY PREDICTED BY IDOCK:  -10.92 KCAL/MOL
REMARK 923 INTER-LIGAND FREE ENERGY PREDICTED BY IDOCK:   -7.28 KCAL/MOL
REMARK 924 INTRA-LIGAND FREE ENERGY PREDICTED BY IDOCK:   -3.64 KCAL/MOL
REMARK 927      BINDING AFFINITY PREDICTED BY RF-SCORE:    0.00 PKD
ROOT
HETATM    1  O   UNL     1      -8.540   5.817  65.564  1.00  0.00    -0.147 OA 
HETATM    2  C   UNL     1      -9.338   6.763  66.223  1.00  0.00    -0.100 C  
HETATM    3  H   UNL     1      -8.411   6.082  64.660  1.00  0.00     0.000 HD 
ENDROOT
BRANCH   2   4
HETATM    4  C   UNL     1      -9.546   6.335  67.685  1.00  0.00    -0.114 C  
HETATM    5  O   UNL     1      -8.440   5.579  68.110  1.00  0.00    -0.099 OA 
HETATM    6  H   UNL     1      -8.569   5.314  69.014  1.00  0.00     0.000 HD 
BRANCH   4   7
HETATM    7  C   UNL     1      -9.722   7.562  68.618  1.00  0.00    -0.154 C  
HETATM    8  H   UNL     1     -10.496   9.342  68.499  1.00  0.00     0.000 HD 
HETATM    9  O   UNL     1     -10.389   8.591  67.928  1.00  0.00    -0.211 OA 
BRANCH   7  10
HETATM   10  C   UNL     1     -10.528   7.208  69.897  1.00  0.00    -0.223 C  
HETATM   11  H   UNL     1     -11.945   8.024  70.925  1.00  0.00     0.000 HD 
HETATM   12  O   UNL     1     -11.452   8.241  70.142  1.00  0.00    -0.150 OA 
BRANCH  10  13
HETATM   13  C   UNL     1      -9.639   7.018  71.156  1.00  0.00    -0.165 C  
HETATM   14  H   UNL     1      -7.805   6.505  71.538  1.00  0.00     0.000 HD 
HETATM   15  O   UNL     1      -8.349   6.620  70.768  1.00  0.00    -0.126 OA 
BRANCH  13  16
HETATM   16  C   UNL     1      -9.506   8.270  71.991  1.00  0.00    -0.236 C  
HETATM   17  O   UNL     1      -9.779   8.236  73.181  1.00  0.00    -0.254 OA 
BRANCH  16  18
HETATM   18  O   UNL     1      -9.102   9.434  71.443  1.00  0.00    -0.285 OA 
BRANCH  18  19
HETATM   19 CA   UNL     1     -10.445  10.445  69.702  1.00  0.00    -0.172 Ca 
BRANCH  19  20
HETATM   20  O   UNL     1     -11.788  11.456  67.961  1.00  0.00    -0.570 OA 
BRANCH  20  21
HETATM   21  C   UNL     1     -11.844  12.782  68.175  1.00  0.00    -0.324 C  
HETATM   22  O   UNL     1     -12.215  13.493  67.256  1.00  0.00    -0.351 OA 
BRANCH  21  23
HETATM   23  C   UNL     1     -11.303  13.410  69.440  1.00  0.00    -0.226 C  
HETATM   24  H   UNL     1     -11.965  13.745  71.222  1.00  0.00     0.000 HD 
HETATM   25  O   UNL     1     -12.304  13.351  70.428  1.00  0.00    -0.336 OA 
BRANCH  23  26
HETATM   26  C   UNL     1     -10.830  14.887  69.283  1.00  0.00    -0.266 C  
HETATM   27  H   UNL     1     -10.016  16.240  70.409  1.00  0.00     0.000 HD 
HETATM   28  O   UNL     1     -10.305  15.340  70.505  1.00  0.00    -0.199 OA 
BRANCH  26  29
HETATM   29  C   UNL     1      -9.818  15.199  68.127  1.00  0.00    -0.218 C  
BRANCH  29  30
HETATM   30  O   UNL     1      -8.532  15.269  68.727  1.00  0.00    -0.157 OA 
BRANCH  30  31
HETATM   31  C   UNL     1      -7.659  14.196  68.437  1.00  0.00    -0.130 C  
HETATM   32  O   UNL     1      -8.342  13.197  67.698  1.00  0.00    -0.149 OA 
HETATM   33  C   UNL     1      -7.472  12.120  67.386  1.00  0.00    -0.156 C  
HETATM   34  H   UNL     1      -6.229  14.244  71.392  1.00  0.00     0.000 HD 
HETATM   35  C   UNL     1      -7.049  11.384  68.684  1.00  0.00    -0.095 C  
HETATM   36  O   UNL     1      -8.178  10.889  69.362  1.00  0.00    -0.347 OA 
HETATM   37  C   UNL     1      -6.297  12.386  69.585  1.00  0.00    -0.107 C  
HETATM   38  O   UNL     1      -6.518  14.596  70.559  1.00  0.00    -0.172 OA 
HETATM   39  H   UNL     1      -7.918  10.439  70.156  1.00  0.00     0.000 HD 
HETATM   40  O   UNL     1      -5.979  11.823  70.834  1.00  0.00    -0.440 OA 
HETATM   41  C   UNL     1      -7.188  13.621  69.797  1.00  0.00     0.445 C  
HETATM   42  H   UNL     1      -5.516  12.440  71.389  1.00  0.00     0.000 HD 
BRANCH  33  43
HETATM   43  C   UNL     1      -8.202  11.191  66.404  1.00  0.00    -0.164 C  
HETATM   44  O   UNL     1      -7.741   9.870  66.514  1.00  0.00    -0.104 OA 
HETATM   45  H   UNL     1      -8.193   9.296  65.908  1.00  0.00     0.000 HD 
ENDBRANCH  33  43
ENDBRANCH  30  31
ENDBRANCH  29  30
BRANCH  29  46
HETATM   46  C   UNL     1     -10.135  16.470  67.262  1.00  0.00    -0.273 C  
HETATM   47  O   UNL     1     -11.519  16.729  67.235  1.00  0.00     0.244 OA 
HETATM   48  H   UNL     1     -11.711  17.498  66.712  1.00  0.00     0.000 HD 
BRANCH  46  49
HETATM   49  C   UNL     1      -9.511  16.470  65.847  1.00  0.00    -0.219 C  
HETATM   50  H   UNL     1      -8.131  17.453  64.873  1.00  0.00     0.000 HD 
HETATM   51  O   UNL     1      -8.514  17.453  65.742  1.00  0.00    -0.532 OA 
ENDBRANCH  46  49
ENDBRANCH  29  46
ENDBRANCH  26  29
ENDBRANCH  23  26
ENDBRANCH  21  23
ENDBRANCH  20  21
ENDBRANCH  19  20
ENDBRANCH  18  19
ENDBRANCH  16  18
ENDBRANCH  13  16
ENDBRANCH  10  13
ENDBRANCH   7  10
ENDBRANCH   4   7
ENDBRANCH   2   4
TORSDOF 17
ENDMDL
MODEL      292
REMARK 921   NORMALIZED FREE ENERGY PREDICTED BY IDOCK:   -3.74 KCAL/MOL
REMARK 922        TOTAL FREE ENERGY PREDICTED BY IDOCK:  -10.90 KCAL/MOL
REMARK 923 INTER-LIGAND FREE ENERGY PREDICTED BY IDOCK:   -8.41 KCAL/MOL
REMARK 924 INTRA-LIGAND FREE ENERGY PREDICTED BY IDOCK:   -2.49 KCAL/MOL
REMARK 927      BINDING AFFINITY PREDICTED BY RF-SCORE:    0.00 PKD
ROOT
HETATM    1  O   UNL     1     -10.900  10.443  70.694  1.00  0.00    -0.412 OA 
HETATM    2  C   UNL     1     -11.352  10.504  69.368  1.00  0.00    -0.269 C  
HETATM    3  H   UNL     1     -10.670   9.547  70.912  1.00  0.00     0.000 HD 
ENDROOT
BRANCH   2   4
HETATM    4  C   UNL     1     -11.725  11.953  69.014  1.00  0.00    -0.331 C  
HETATM    5  O   UNL     1     -11.293  12.808  70.043  1.00  0.00    -0.502 OA 
HETATM    6  H   UNL     1     -11.523  13.704  69.825  1.00  0.00     0.000 HD 
BRANCH   4   7
HETATM    7  C   UNL     1     -11.084  12.395  67.672  1.00  0.00    -0.259 C  
HETATM    8  H   UNL     1     -11.267  11.942  65.790  1.00  0.00     0.000 HD 
HETATM    9  O   UNL     1     -11.660  11.672  66.612  1.00  0.00    -0.493 OA 
BRANCH   7  10
HETATM   10  C   UNL     1     -11.274  13.913  67.410  1.00  0.00    -0.312 C  
HETATM   11  H   UNL     1     -12.649  15.037  66.652  1.00  0.00     0.000 HD 
HETATM   12  O   UNL     1     -12.533  14.107  66.812  1.00  0.00    -0.396 OA 
BRANCH  10  13
HETATM   13  C   UNL     1     -10.181  14.524  66.491  1.00  0.00    -0.279 C  
HETATM   14  H   UNL     1      -8.395  14.047  65.894  1.00  0.00     0.000 HD 
HETATM   15  O   UNL     1      -9.064  13.673  66.456  1.00  0.00    -0.216 OA 
BRANCH  13  16
HETATM   16  C   UNL     1     -10.644  14.741  65.070  1.00  0.00    -0.429 C  
HETATM   17  O   UNL     1     -10.891  15.872  64.680  1.00  0.00    -0.557 OA 
BRANCH  16  18
HETATM   18  O   UNL     1     -10.801  13.704  64.223  1.00  0.00    -0.388 OA 
BRANCH  18  19
HETATM   19 CA   UNL     1      -9.748  11.588  64.741  1.00  0.00    -0.208 Ca 
BRANCH  19  20
HETATM   20  O   UNL     1      -8.694   9.472  65.258  1.00  0.00    -0.145 OA 
BRANCH  20  21
HETATM   21  C   UNL     1      -9.017   9.125  66.516  1.00  0.00    -0.148 C  
HETATM   22  O   UNL     1      -8.659   9.860  67.421  1.00  0.00    -0.124 OA 
BRANCH  21  23
HETATM   23  C   UNL     1      -9.648   7.788  66.837  1.00  0.00    -0.198 C  
HETATM   24  H   UNL     1     -11.405   7.157  67.325  1.00  0.00     0.000 HD 
HETATM   25  O   UNL     1     -11.009   7.996  67.124  1.00  0.00    -0.191 OA 
BRANCH  23  26
HETATM   26  C   UNL     1      -8.988   7.027  68.026  1.00  0.00    -0.126 C  
HETATM   27  H   UNL     1      -9.585   5.944  69.519  1.00  0.00     0.000 HD 
HETATM   28  O   UNL     1      -9.987   6.408  68.795  1.00  0.00    -0.139 OA 
BRANCH  26  29
HETATM   29  C   UNL     1      -7.868   5.985  67.681  1.00  0.00    -0.101 C  
BRANCH  29  30
HETATM   30  O   UNL     1      -8.534   4.769  67.369  1.00  0.00    -0.105 OA 
BRANCH  30  31
HETATM   31  C   UNL     1      -8.349   4.287  66.054  1.00  0.00    -0.109 C  
HETATM   32  O   UNL     1      -8.602   5.319  65.116  1.00  0.00    -0.144 OA 
HETATM   33  C   UNL     1      -8.405   4.852  63.790  1.00  0.00    -0.127 C  
HETATM   34  H   UNL     1      -9.761   1.386  66.661  1.00  0.00     0.000 HD 
HETATM   35  C   UNL     1      -9.466   3.777  63.440  1.00  0.00    -0.132 C  
HETATM   36  O   UNL     1     -10.764   4.308  63.559  1.00  0.00    -0.442 OA 
HETATM   37  C   UNL     1      -9.296   2.593  64.415  1.00  0.00    -0.135 C  
HETATM   38  O   UNL     1      -9.141   2.095  66.783  1.00  0.00    -0.127 OA 
HETATM   39  H   UNL     1     -11.414   3.649  63.345  1.00  0.00     0.000 HD 
HETATM   40  O   UNL     1     -10.299   1.624  64.235  1.00  0.00    -0.336 OA 
HETATM   41  C   UNL     1      -9.360   3.129  65.855  1.00  0.00    -0.100 C  
HETATM   42  H   UNL     1     -10.194   0.895  64.835  1.00  0.00     0.000 HD 
BRANCH  33  43
HETATM   43  C   UNL     1      -8.473   6.063  62.846  1.00  0.00     0.079 C  
HETATM   44  O   UNL     1      -8.508   7.267  63.564  1.00  0.00    -0.360 OA 
HETATM   45  H   UNL     1      -8.549   8.015  62.981  1.00  0.00     0.000 HD 
ENDBRANCH  33  43
ENDBRANCH  30  31
ENDBRANCH  29  30
BRANCH  29  46
HETATM   46  C   UNL     1      -6.756   5.786  68.771  1.00  0.00    -0.064 C  
HETATM   47  O   UNL     1      -7.071   6.493  69.948  1.00  0.00    -0.064 OA 
HETATM   48  H   UNL     1      -6.398   6.372  70.607  1.00  0.00     0.000 HD 
BRANCH  46  49
HETATM   49  C   UNL     1      -5.313   6.062  68.290  1.00  0.00    -0.004 C  
HETATM   50  H   UNL     1      -4.404   7.269  67.050  1.00  0.00     0.000 HD 
HETATM   51  O   UNL     1      -5.291   7.099  67.345  1.00  0.00    -0.018 OA 
ENDBRANCH  46  49
ENDBRANCH  29  46
ENDBRANCH  26  29
ENDBRANCH  23  26
ENDBRANCH  21  23
ENDBRANCH  20  21
ENDBRANCH  19  20
ENDBRANCH  18  19
ENDBRANCH  16  18
ENDBRANCH  13  16
ENDBRANCH  10  13
ENDBRANCH   7  10
ENDBRANCH   4   7
ENDBRANCH   2   4
TORSDOF 17
ENDMDL
MODEL      293
REMARK 921   NORMALIZED FREE ENERGY PREDICTED BY IDOCK:   -3.74 KCAL/MOL
REMARK 922        TOTAL FREE ENERGY PREDICTED BY IDOCK:  -10.90 KCAL/MOL
REMARK 923 INTER-LIGAND FREE ENERGY PREDICTED BY IDOCK:   -8.31 KCAL/MOL
REMARK 924 INTRA-LIGAND FREE ENERGY PREDICTED BY IDOCK:   -2.59 KCAL/MOL
REMARK 927      BINDING AFFINITY PREDICTED BY RF-SCORE:    0.00 PKD
ROOT
HETATM    1  O   UNL     1      -6.763   7.358  67.862  1.00  0.00    -0.057 OA 
HETATM    2  C   UNL     1      -7.233   6.240  67.158  1.00  0.00    -0.075 C  
HETATM    3  H   UNL     1      -5.850   7.510  67.647  1.00  0.00     0.000 HD 
ENDROOT
BRANCH   2   4
HETATM    4  C   UNL     1      -8.711   5.993  67.506  1.00  0.00    -0.107 C  
HETATM    5  O   UNL     1      -9.434   5.764  66.323  1.00  0.00    -0.157 OA 
HETATM    6  H   UNL     1     -10.347   5.611  66.538  1.00  0.00     0.000 HD 
BRANCH   4   7
HETATM    7  C   UNL     1      -8.877   4.779  68.457  1.00  0.00    -0.100 C  
HETATM    8  H   UNL     1      -7.764   3.782  69.701  1.00  0.00     0.000 HD 
HETATM    9  O   UNL     1      -7.662   4.525  69.119  1.00  0.00    -0.059 OA 
BRANCH   7  10
HETATM   10  C   UNL     1      -9.987   5.018  69.515  1.00  0.00    -0.232 C  
HETATM   11  H   UNL     1     -11.384   6.321  69.803  1.00  0.00     0.000 HD 
HETATM   12  O   UNL     1     -10.704   6.175  69.155  1.00  0.00    -0.245 OA 
BRANCH  10  13
HETATM   13  C   UNL     1      -9.440   5.194  70.958  1.00  0.00    -0.160 C  
HETATM   14  H   UNL     1      -8.547   6.583  71.981  1.00  0.00     0.000 HD 
HETATM   15  O   UNL     1      -8.882   6.476  71.098  1.00  0.00    -0.137 OA 
BRANCH  13  16
HETATM   16  C   UNL     1     -10.496   5.029  72.025  1.00  0.00    -0.203 C  
HETATM   17  O   UNL     1     -10.651   3.942  72.560  1.00  0.00    -0.147 OA 
BRANCH  16  18
HETATM   18  O   UNL     1     -11.283   6.060  72.392  1.00  0.00    -0.262 OA 
BRANCH  18  19
HETATM   19 CA   UNL     1     -10.982   8.211  71.324  1.00  0.00    -0.221 Ca 
BRANCH  19  20
HETATM   20  O   UNL     1     -10.682  10.361  70.255  1.00  0.00    -0.282 OA 
BRANCH  20  21
HETATM   21  C   UNL     1     -11.579  10.477  69.261  1.00  0.00    -0.236 C  
HETATM   22  O   UNL     1     -12.761  10.507  69.559  1.00  0.00    -0.174 OA 
BRANCH  21  23
HETATM   23  C   UNL     1     -11.172  10.399  67.806  1.00  0.00    -0.237 C  
HETATM   24  H   UNL     1     -10.687   9.000  66.568  1.00  0.00     0.000 HD 
HETATM   25  O   UNL     1     -10.943   9.049  67.481  1.00  0.00    -0.152 OA 
BRANCH  23  26
HETATM   26  C   UNL     1      -9.906  11.232  67.440  1.00  0.00    -0.181 C  
HETATM   27  H   UNL     1      -8.022  10.886  67.139  1.00  0.00     0.000 HD 
HETATM   28  O   UNL     1      -8.793  10.378  67.363  1.00  0.00    -0.132 OA 
BRANCH  26  29
HETATM   29  C   UNL     1      -9.977  12.120  66.150  1.00  0.00    -0.233 C  
BRANCH  29  30
HETATM   30  O   UNL     1     -10.730  13.273  66.498  1.00  0.00    -0.281 OA 
BRANCH  30  31
HETATM   31  C   UNL     1     -10.151  14.114  67.474  1.00  0.00    -0.236 C  
HETATM   32  O   UNL     1     -10.993  14.190  68.613  1.00  0.00    -0.241 OA 
HETATM   33  C   UNL     1     -10.416  15.021  69.609  1.00  0.00    -0.213 C  
HETATM   34  H   UNL     1      -9.092  16.325  65.291  1.00  0.00     0.000 HD 
HETATM   35  C   UNL     1     -10.350  16.487  69.109  1.00  0.00    -0.316 C  
HETATM   36  O   UNL     1     -11.637  16.960  68.797  1.00  0.00    -0.078 OA 
HETATM   37  C   UNL     1      -9.460  16.529  67.849  1.00  0.00    -0.220 C  
HETATM   38  O   UNL     1      -9.183  15.467  65.687  1.00  0.00    -0.250 OA 
HETATM   39  H   UNL     1     -11.596  17.859  68.490  1.00  0.00     0.000 HD 
HETATM   40  O   UNL     1      -9.442  17.810  67.268  1.00  0.00    -0.249 OA 
HETATM   41  C   UNL     1     -10.003  15.515  66.829  1.00  0.00    -0.249 C  
HETATM   42  H   UNL     1      -8.894  17.835  66.493  1.00  0.00     0.000 HD 
BRANCH  33  43
HETATM   43  C   UNL     1     -11.258  14.882  70.887  1.00  0.00    -0.162 C  
HETATM   44  O   UNL     1     -11.999  13.691  70.882  1.00  0.00    -0.474 OA 
HETATM   45  H   UNL     1     -12.519  13.605  71.672  1.00  0.00     0.000 HD 
ENDBRANCH  33  43
ENDBRANCH  30  31
ENDBRANCH  29  30
BRANCH  29  46
HETATM   46  C   UNL     1     -10.536  11.417  64.862  1.00  0.00    -0.305 C  
HETATM   47  O   UNL     1      -9.679  10.382  64.440  1.00  0.00    -0.290 OA 
HETATM   48  H   UNL     1     -10.016   9.956  63.662  1.00  0.00     0.000 HD 
BRANCH  46  49
HETATM   49  C   UNL     1     -10.913  12.372  63.707  1.00  0.00    -0.447 C  
HETATM   50  H   UNL     1     -12.422  12.657  62.497  1.00  0.00     0.000 HD 
HETATM   51  O   UNL     1     -12.190  12.071  63.207  1.00  0.00    -0.506 OA 
ENDBRANCH  46  49
ENDBRANCH  29  46
ENDBRANCH  26  29
ENDBRANCH  23  26
ENDBRANCH  21  23
ENDBRANCH  20  21
ENDBRANCH  19  20
ENDBRANCH  18  19
ENDBRANCH  16  18
ENDBRANCH  13  16
ENDBRANCH  10  13
ENDBRANCH   7  10
ENDBRANCH   4   7
ENDBRANCH   2   4
TORSDOF 17
ENDMDL
MODEL      294
REMARK 921   NORMALIZED FREE ENERGY PREDICTED BY IDOCK:   -3.73 KCAL/MOL
REMARK 922        TOTAL FREE ENERGY PREDICTED BY IDOCK:  -10.87 KCAL/MOL
REMARK 923 INTER-LIGAND FREE ENERGY PREDICTED BY IDOCK:   -8.08 KCAL/MOL
REMARK 924 INTRA-LIGAND FREE ENERGY PREDICTED BY IDOCK:   -2.79 KCAL/MOL
REMARK 927      BINDING AFFINITY PREDICTED BY RF-SCORE:    0.00 PKD
ROOT
HETATM    1  O   UNL     1      -7.018  11.339  69.909  1.00  0.00    -0.323 OA 
HETATM    2  C   UNL     1      -7.011  10.875  68.586  1.00  0.00    -0.073 C  
HETATM    3  H   UNL     1      -7.180  10.613  70.501  1.00  0.00     0.000 HD 
ENDROOT
BRANCH   2   4
HETATM    4  C   UNL     1      -6.749  12.050  67.628  1.00  0.00    -0.109 C  
HETATM    5  O   UNL     1      -6.826  11.592  66.301  1.00  0.00    -0.371 OA 
HETATM    6  H   UNL     1      -6.664  12.318  65.709  1.00  0.00     0.000 HD 
BRANCH   4   7
HETATM    7  C   UNL     1      -7.772  13.197  67.839  1.00  0.00    -0.147 C  
HETATM    8  H   UNL     1      -7.955  15.057  67.304  1.00  0.00     0.000 HD 
HETATM    9  O   UNL     1      -7.329  14.355  67.174  1.00  0.00    -0.115 OA 
BRANCH   7  10
HETATM   10  C   UNL     1      -9.183  12.821  67.314  1.00  0.00    -0.203 C  
HETATM   11  H   UNL     1     -10.288  13.312  65.808  1.00  0.00     0.000 HD 
HETATM   12  O   UNL     1      -9.424  13.542  66.130  1.00  0.00    -0.238 OA 
BRANCH  10  13
HETATM   13  C   UNL     1     -10.321  13.122  68.327  1.00  0.00    -0.252 C  
HETATM   14  H   UNL     1     -10.934  14.643  69.368  1.00  0.00     0.000 HD 
HETATM   15  O   UNL     1     -10.237  14.459  68.748  1.00  0.00    -0.235 OA 
BRANCH  13  16
HETATM   16  C   UNL     1     -11.704  12.899  67.761  1.00  0.00    -0.362 C  
HETATM   17  O   UNL     1     -12.450  13.852  67.593  1.00  0.00    -0.152 OA 
BRANCH  16  18
HETATM   18  O   UNL     1     -12.136  11.662  67.446  1.00  0.00    -0.605 OA 
BRANCH  18  19
HETATM   19 CA   UNL     1     -13.241  10.333  69.140  1.00  0.00    -0.530 Ca 
BRANCH  19  20
HETATM   20  O   UNL     1     -14.345   9.003  70.833  1.00  0.00    -0.044 OA 
BRANCH  20  21
HETATM   21  C   UNL     1     -13.473   8.760  71.828  1.00  0.00    -0.393 C  
HETATM   22  O   UNL     1     -13.809   9.051  72.963  1.00  0.00    -0.304 OA 
BRANCH  21  23
HETATM   23  C   UNL     1     -12.057   8.309  71.554  1.00  0.00    -0.299 C  
HETATM   24  H   UNL     1     -10.344   8.482  72.428  1.00  0.00     0.000 HD 
HETATM   25  O   UNL     1     -11.234   8.766  72.600  1.00  0.00    -0.187 OA 
BRANCH  23  26
HETATM   26  C   UNL     1     -11.469   8.798  70.195  1.00  0.00    -0.020 C  
HETATM   27  H   UNL     1     -10.489  10.341  69.550  1.00  0.00     0.000 HD 
HETATM   28  O   UNL     1     -10.847  10.044  70.378  1.00  0.00    -0.283 OA 
BRANCH  26  29
HETATM   29  C   UNL     1     -10.494   7.828  69.442  1.00  0.00    -0.220 C  
BRANCH  29  30
HETATM   30  O   UNL     1      -9.343   7.698  70.264  1.00  0.00    -0.157 OA 
BRANCH  30  31
HETATM   31  C   UNL     1      -9.027   6.383  70.675  1.00  0.00    -0.144 C  
HETATM   32  O   UNL     1      -9.489   6.161  71.997  1.00  0.00    -0.153 OA 
HETATM   33  C   UNL     1      -9.191   4.838  72.417  1.00  0.00    -0.129 C  
HETATM   34  H   UNL     1      -6.049   6.409  69.292  1.00  0.00     0.000 HD 
HETATM   35  C   UNL     1      -7.656   4.648  72.533  1.00  0.00    -0.086 C  
HETATM   36  O   UNL     1      -7.114   5.562  73.454  1.00  0.00    -0.083 OA 
HETATM   37  C   UNL     1      -7.033   4.880  71.140  1.00  0.00    -0.051 C  
HETATM   38  O   UNL     1      -6.995   6.487  69.324  1.00  0.00    -0.066 OA 
HETATM   39  H   UNL     1      -6.174   5.446  73.525  1.00  0.00     0.000 HD 
HETATM   40  O   UNL     1      -5.628   4.837  71.186  1.00  0.00    -0.010 OA 
HETATM   41  C   UNL     1      -7.483   6.257  70.623  1.00  0.00    -0.087 C  
HETATM   42  H   UNL     1      -5.245   4.980  70.329  1.00  0.00     0.000 HD 
BRANCH  33  43
HETATM   43  C   UNL     1      -9.908   4.593  73.753  1.00  0.00    -0.144 C  
HETATM   44  O   UNL     1     -10.356   5.795  74.319  1.00  0.00    -0.266 OA 
HETATM   45  H   UNL     1     -10.800   5.643  75.145  1.00  0.00     0.000 HD 
ENDBRANCH  33  43
ENDBRANCH  30  31
ENDBRANCH  29  30
BRANCH  29  46
HETATM   46  C   UNL     1     -10.125   8.232  67.971  1.00  0.00    -0.198 C  
HETATM   47  O   UNL     1     -11.019   9.201  67.474  1.00  0.00    -0.466 OA 
HETATM   48  H   UNL     1     -10.796   9.445  66.584  1.00  0.00     0.000 HD 
BRANCH  46  49
HETATM   49  C   UNL     1      -9.943   7.048  66.993  1.00  0.00    -0.210 C  
HETATM   50  H   UNL     1     -11.022   5.585  66.273  1.00  0.00     0.000 HD 
HETATM   51  O   UNL     1     -11.133   6.313  66.873  1.00  0.00    -0.361 OA 
ENDBRANCH  46  49
ENDBRANCH  29  46
ENDBRANCH  26  29
ENDBRANCH  23  26
ENDBRANCH  21  23
ENDBRANCH  20  21
ENDBRANCH  19  20
ENDBRANCH  18  19
ENDBRANCH  16  18
ENDBRANCH  13  16
ENDBRANCH  10  13
ENDBRANCH   7  10
ENDBRANCH   4   7
ENDBRANCH   2   4
TORSDOF 17
ENDMDL
MODEL      295
REMARK 921   NORMALIZED FREE ENERGY PREDICTED BY IDOCK:   -3.72 KCAL/MOL
REMARK 922        TOTAL FREE ENERGY PREDICTED BY IDOCK:  -10.85 KCAL/MOL
REMARK 923 INTER-LIGAND FREE ENERGY PREDICTED BY IDOCK:   -8.62 KCAL/MOL
REMARK 924 INTRA-LIGAND FREE ENERGY PREDICTED BY IDOCK:   -2.23 KCAL/MOL
REMARK 927      BINDING AFFINITY PREDICTED BY RF-SCORE:    0.00 PKD
ROOT
HETATM    1  O   UNL     1     -10.218  19.618  68.003  1.00  0.00    -0.410 OA 
HETATM    2  C   UNL     1     -10.804  19.142  66.823  1.00  0.00    -0.312 C  
HETATM    3  H   UNL     1     -10.611  20.450  68.243  1.00  0.00     0.000 HD 
ENDROOT
BRANCH   2   4
HETATM    4  C   UNL     1     -10.168  17.796  66.435  1.00  0.00    -0.365 C  
HETATM    5  O   UNL     1      -8.914  18.028  65.844  1.00  0.00    -0.506 OA 
HETATM    6  H   UNL     1      -8.522  17.197  65.605  1.00  0.00     0.000 HD 
BRANCH   4   7
HETATM    7  C   UNL     1      -9.995  16.872  67.669  1.00  0.00    -0.271 C  
HETATM    8  H   UNL     1     -10.995  16.448  69.282  1.00  0.00     0.000 HD 
HETATM    9  O   UNL     1     -11.101  17.014  68.526  1.00  0.00    -0.300 OA 
BRANCH   7  10
HETATM   10  C   UNL     1      -9.860  15.380  67.261  1.00  0.00    -0.217 C  
HETATM   11  H   UNL     1      -8.914  14.384  65.904  1.00  0.00     0.000 HD 
HETATM   12  O   UNL     1      -8.997  15.297  66.153  1.00  0.00    -0.301 OA 
BRANCH  10  13
HETATM   13  C   UNL     1     -11.215  14.714  66.894  1.00  0.00    -0.343 C  
HETATM   14  H   UNL     1     -12.077  14.033  65.292  1.00  0.00     0.000 HD 
HETATM   15  O   UNL     1     -11.249  14.441  65.517  1.00  0.00    -0.312 OA 
BRANCH  13  16
HETATM   16  C   UNL     1     -11.467  13.420  67.631  1.00  0.00    -0.319 C  
HETATM   17  O   UNL     1     -11.443  13.404  68.852  1.00  0.00    -0.262 OA 
BRANCH  16  18
HETATM   18  O   UNL     1     -11.707  12.274  66.963  1.00  0.00    -0.432 OA 
BRANCH  18  19
HETATM   19 CA   UNL     1      -9.859  11.104  65.926  1.00  0.00    -0.190 Ca 
BRANCH  19  20
HETATM   20  O   UNL     1      -8.011   9.936  64.888  1.00  0.00    -0.126 OA 
BRANCH  20  21
HETATM   21  C   UNL     1      -6.964   9.949  65.731  1.00  0.00    -0.109 C  
HETATM   22  O   UNL     1      -5.848  10.052  65.251  1.00  0.00    -0.073 OA 
BRANCH  21  23
HETATM   23  C   UNL     1      -7.126   9.672  67.208  1.00  0.00    -0.086 C  
HETATM   24  H   UNL     1      -6.232  10.206  68.833  1.00  0.00     0.000 HD 
HETATM   25  O   UNL     1      -6.130  10.380  67.905  1.00  0.00    -0.048 OA 
BRANCH  23  26
HETATM   26  C   UNL     1      -7.047   8.165  67.600  1.00  0.00    -0.087 C  
HETATM   27  H   UNL     1      -5.816   7.014  68.559  1.00  0.00     0.000 HD 
HETATM   28  O   UNL     1      -5.864   7.933  68.320  1.00  0.00    -0.034 OA 
BRANCH  26  29
HETATM   29  C   UNL     1      -8.265   7.559  68.379  1.00  0.00    -0.125 C  
BRANCH  29  30
HETATM   30  O   UNL     1      -7.720   6.694  69.365  1.00  0.00    -0.097 OA 
BRANCH  30  31
HETATM   31  C   UNL     1      -8.469   6.570  70.557  1.00  0.00    -0.138 C  
HETATM   32  O   UNL     1      -9.835   6.858  70.307  1.00  0.00    -0.178 OA 
HETATM   33  C   UNL     1     -10.602   6.722  71.493  1.00  0.00    -0.219 C  
HETATM   34  H   UNL     1      -6.170   7.973  72.434  1.00  0.00     0.000 HD 
HETATM   35  C   UNL     1     -10.188   7.805  72.523  1.00  0.00    -0.260 C  
HETATM   36  O   UNL     1     -10.379   9.093  71.989  1.00  0.00    -0.307 OA 
HETATM   37  C   UNL     1      -8.698   7.600  72.868  1.00  0.00    -0.153 C  
HETATM   38  O   UNL     1      -6.527   7.344  71.818  1.00  0.00    -0.043 OA 
HETATM   39  H   UNL     1     -10.125   9.756  72.620  1.00  0.00     0.000 HD 
HETATM   40  O   UNL     1      -8.216   8.616  73.712  1.00  0.00    -0.388 OA 
HETATM   41  C   UNL     1      -7.887   7.597  71.561  1.00  0.00    -0.086 C  
HETATM   42  H   UNL     1      -7.298   8.489  73.925  1.00  0.00     0.000 HD 
BRANCH  33  43
HETATM   43  C   UNL     1     -12.087   6.824  71.111  1.00  0.00    -0.370 C  
HETATM   44  O   UNL     1     -12.829   7.462  72.116  1.00  0.00    -0.481 OA 
HETATM   45  H   UNL     1     -13.747   7.526  71.879  1.00  0.00     0.000 HD 
ENDBRANCH  33  43
ENDBRANCH  30  31
ENDBRANCH  29  30
BRANCH  29  46
HETATM   46  C   UNL     1      -9.354   6.844  67.504  1.00  0.00    -0.122 C  
HETATM   47  O   UNL     1      -8.835   5.680  66.904  1.00  0.00    -0.113 OA 
HETATM   48  H   UNL     1      -9.493   5.247  66.375  1.00  0.00     0.000 HD 
BRANCH  46  49
HETATM   49  C   UNL     1     -10.075   7.756  66.483  1.00  0.00    -0.154 C  
HETATM   50  H   UNL     1     -10.990   9.483  66.477  1.00  0.00     0.000 HD 
HETATM   51  O   UNL     1     -10.547   8.923  67.104  1.00  0.00    -0.286 OA 
ENDBRANCH  46  49
ENDBRANCH  29  46
ENDBRANCH  26  29
ENDBRANCH  23  26
ENDBRANCH  21  23
ENDBRANCH  20  21
ENDBRANCH  19  20
ENDBRANCH  18  19
ENDBRANCH  16  18
ENDBRANCH  13  16
ENDBRANCH  10  13
ENDBRANCH   7  10
ENDBRANCH   4   7
ENDBRANCH   2   4
TORSDOF 17
ENDMDL
MODEL      296
REMARK 921   NORMALIZED FREE ENERGY PREDICTED BY IDOCK:   -3.71 KCAL/MOL
REMARK 922        TOTAL FREE ENERGY PREDICTED BY IDOCK:  -10.84 KCAL/MOL
REMARK 923 INTER-LIGAND FREE ENERGY PREDICTED BY IDOCK:   -8.34 KCAL/MOL
REMARK 924 INTRA-LIGAND FREE ENERGY PREDICTED BY IDOCK:   -2.49 KCAL/MOL
REMARK 927      BINDING AFFINITY PREDICTED BY RF-SCORE:    0.00 PKD
ROOT
HETATM    1  O   UNL     1      -8.233  17.400  68.184  1.00  0.00    -0.222 OA 
HETATM    2  C   UNL     1      -8.123  16.057  67.799  1.00  0.00    -0.142 C  
HETATM    3  H   UNL     1      -7.543  17.908  67.773  1.00  0.00     0.000 HD 
ENDROOT
BRANCH   2   4
HETATM    4  C   UNL     1      -9.240  15.235  68.464  1.00  0.00    -0.200 C  
HETATM    5  O   UNL     1      -8.773  14.719  69.686  1.00  0.00    -0.419 OA 
HETATM    6  H   UNL     1      -9.463  14.212  70.097  1.00  0.00     0.000 HD 
BRANCH   4   7
HETATM    7  C   UNL     1     -10.507  16.094  68.717  1.00  0.00    -0.264 C  
HETATM    8  H   UNL     1     -11.614  17.331  67.703  1.00  0.00     0.000 HD 
HETATM    9  O   UNL     1     -10.838  16.804  67.548  1.00  0.00    -0.307 OA 
BRANCH   7  10
HETATM   10  C   UNL     1     -11.722  15.227  69.141  1.00  0.00    -0.335 C  
HETATM   11  H   UNL     1     -12.201  14.150  70.672  1.00  0.00     0.000 HD 
HETATM   12  O   UNL     1     -11.457  14.681  70.412  1.00  0.00    -0.263 OA 
BRANCH  10  13
HETATM   13  C   UNL     1     -12.032  14.069  68.152  1.00  0.00    -0.347 C  
HETATM   14  H   UNL     1     -11.582  13.605  66.321  1.00  0.00     0.000 HD 
HETATM   15  O   UNL     1     -11.393  14.313  66.926  1.00  0.00    -0.317 OA 
BRANCH  13  16
HETATM   16  C   UNL     1     -11.580  12.717  68.650  1.00  0.00    -0.316 C  
HETATM   17  O   UNL     1     -12.387  11.963  69.171  1.00  0.00    -0.157 OA 
BRANCH  16  18
HETATM   18  O   UNL     1     -10.294  12.328  68.541  1.00  0.00    -0.226 OA 
BRANCH  18  19
HETATM   19 CA   UNL     1      -9.767  10.341  67.264  1.00  0.00    -0.147 Ca 
BRANCH  19  20
HETATM   20  O   UNL     1      -9.240   8.355  65.986  1.00  0.00    -0.196 OA 
BRANCH  20  21
HETATM   21  C   UNL     1      -9.870   7.305  66.541  1.00  0.00    -0.132 C  
HETATM   22  O   UNL     1     -11.017   7.466  66.925  1.00  0.00    -0.324 OA 
BRANCH  21  23
HETATM   23  C   UNL     1      -9.147   6.014  66.848  1.00  0.00    -0.125 C  
HETATM   24  H   UNL     1      -8.261   4.635  65.829  1.00  0.00     0.000 HD 
HETATM   25  O   UNL     1      -8.715   5.446  65.636  1.00  0.00    -0.143 OA 
BRANCH  23  26
HETATM   26  C   UNL     1      -9.995   4.963  67.627  1.00  0.00    -0.141 C  
HETATM   27  H   UNL     1     -10.390   3.070  67.478  1.00  0.00     0.000 HD 
HETATM   28  O   UNL     1      -9.873   3.710  67.003  1.00  0.00    -0.148 OA 
BRANCH  26  29
HETATM   29  C   UNL     1      -9.722   4.814  69.164  1.00  0.00    -0.188 C  
BRANCH  29  30
HETATM   30  O   UNL     1      -8.719   5.765  69.487  1.00  0.00    -0.110 OA 
BRANCH  30  31
HETATM   31  C   UNL     1      -9.133   6.844  70.301  1.00  0.00    -0.153 C  
HETATM   32  O   UNL     1     -10.547   6.871  70.392  1.00  0.00    -0.208 OA 
HETATM   33  C   UNL     1     -10.977   7.941  71.220  1.00  0.00    -0.238 C  
HETATM   34  H   UNL     1      -6.903   8.928  69.092  1.00  0.00     0.000 HD 
HETATM   35  C   UNL     1     -10.631   9.300  70.557  1.00  0.00    -0.252 C  
HETATM   36  O   UNL     1     -11.250   9.407  69.299  1.00  0.00    -0.429 OA 
HETATM   37  C   UNL     1      -9.099   9.382  70.393  1.00  0.00    -0.256 C  
HETATM   38  O   UNL     1      -7.217   8.134  69.507  1.00  0.00    -0.069 OA 
HETATM   39  H   UNL     1     -11.038  10.239  68.893  1.00  0.00     0.000 HD 
HETATM   40  O   UNL     1      -8.713  10.539  69.693  1.00  0.00    -0.370 OA 
HETATM   41  C   UNL     1      -8.620   8.139  69.623  1.00  0.00    -0.131 C  
HETATM   42  H   UNL     1      -7.770  10.590  69.593  1.00  0.00     0.000 HD 
BRANCH  33  43
HETATM   43  C   UNL     1     -12.486   7.780  71.458  1.00  0.00    -0.324 C  
HETATM   44  O   UNL     1     -13.056   8.967  71.940  1.00  0.00    -0.335 OA 
HETATM   45  H   UNL     1     -13.989   8.867  72.087  1.00  0.00     0.000 HD 
ENDBRANCH  33  43
ENDBRANCH  30  31
ENDBRANCH  29  30
BRANCH  29  46
HETATM   46  C   UNL     1      -9.349   3.372  69.658  1.00  0.00    -0.171 C  
HETATM   47  O   UNL     1      -9.853   3.135  70.952  1.00  0.00    -0.148 OA 
HETATM   48  H   UNL     1      -9.628   2.263  71.251  1.00  0.00     0.000 HD 
BRANCH  46  49
HETATM   49  C   UNL     1      -7.852   3.005  69.538  1.00  0.00    -0.045 C  
HETATM   50  H   UNL     1      -6.771   1.550  68.807  1.00  0.00     0.000 HD 
HETATM   51  O   UNL     1      -7.691   1.776  68.880  1.00  0.00    -0.046 OA 
ENDBRANCH  46  49
ENDBRANCH  29  46
ENDBRANCH  26  29
ENDBRANCH  23  26
ENDBRANCH  21  23
ENDBRANCH  20  21
ENDBRANCH  19  20
ENDBRANCH  18  19
ENDBRANCH  16  18
ENDBRANCH  13  16
ENDBRANCH  10  13
ENDBRANCH   7  10
ENDBRANCH   4   7
ENDBRANCH   2   4
TORSDOF 17
ENDMDL
MODEL      297
REMARK 921   NORMALIZED FREE ENERGY PREDICTED BY IDOCK:   -3.70 KCAL/MOL
REMARK 922        TOTAL FREE ENERGY PREDICTED BY IDOCK:  -10.82 KCAL/MOL
REMARK 923 INTER-LIGAND FREE ENERGY PREDICTED BY IDOCK:   -8.60 KCAL/MOL
REMARK 924 INTRA-LIGAND FREE ENERGY PREDICTED BY IDOCK:   -2.22 KCAL/MOL
REMARK 927      BINDING AFFINITY PREDICTED BY RF-SCORE:    0.00 PKD
ROOT
HETATM    1  O   UNL     1     -12.079  16.481  72.161  1.00  0.00    -0.605 OA 
HETATM    2  C   UNL     1     -12.238  15.091  72.232  1.00  0.00    -0.357 C  
HETATM    3  H   UNL     1     -11.728  16.806  72.982  1.00  0.00     0.000 HD 
ENDROOT
BRANCH   2   4
HETATM    4  C   UNL     1     -12.805  14.566  70.902  1.00  0.00    -0.360 C  
HETATM    5  O   UNL     1     -13.639  15.544  70.334  1.00  0.00    -0.806 OA 
HETATM    6  H   UNL     1     -13.990  15.220  69.513  1.00  0.00     0.000 HD 
BRANCH   4   7
HETATM    7  C   UNL     1     -11.674  14.208  69.902  1.00  0.00    -0.309 C  
HETATM    8  H   UNL     1     -11.156  12.671  68.829  1.00  0.00     0.000 HD 
HETATM    9  O   UNL     1     -11.849  12.890  69.441  1.00  0.00    -0.303 OA 
BRANCH   7  10
HETATM   10  C   UNL     1     -11.650  15.170  68.684  1.00  0.00    -0.338 C  
HETATM   11  H   UNL     1     -12.344  15.157  66.881  1.00  0.00     0.000 HD 
HETATM   12  O   UNL     1     -12.358  14.568  67.627  1.00  0.00    -0.218 OA 
BRANCH  10  13
HETATM   13  C   UNL     1     -10.216  15.516  68.197  1.00  0.00    -0.227 C  
HETATM   14  H   UNL     1      -8.488  15.876  69.005  1.00  0.00     0.000 HD 
HETATM   15  O   UNL     1      -9.365  15.665  69.303  1.00  0.00    -0.234 OA 
BRANCH  13  16
HETATM   16  C   UNL     1      -9.621  14.465  67.290  1.00  0.00    -0.227 C  
HETATM   17  O   UNL     1      -8.891  13.605  67.759  1.00  0.00    -0.169 OA 
BRANCH  16  18
HETATM   18  O   UNL     1      -9.871  14.464  65.966  1.00  0.00    -0.299 OA 
BRANCH  18  19
HETATM   19 CA   UNL     1      -9.342  12.492  64.667  1.00  0.00    -0.408 Ca 
BRANCH  19  20
HETATM   20  O   UNL     1      -8.812  10.519  63.369  1.00  0.00    -0.178 OA 
BRANCH  20  21
HETATM   21  C   UNL     1      -7.556  10.137  63.657  1.00  0.00    -0.139 C  
HETATM   22  O   UNL     1      -6.667  10.481  62.897  1.00  0.00    -0.132 OA 
BRANCH  21  23
HETATM   23  C   UNL     1      -7.255   9.169  64.779  1.00  0.00    -0.097 C  
HETATM   24  H   UNL     1      -5.934   9.025  66.179  1.00  0.00     0.000 HD 
HETATM   25  O   UNL     1      -6.123   9.633  65.474  1.00  0.00    -0.062 OA 
BRANCH  23  26
HETATM   26  C   UNL     1      -7.003   7.701  64.321  1.00  0.00    -0.060 C  
HETATM   27  H   UNL     1      -5.704   6.307  64.683  1.00  0.00     0.000 HD 
HETATM   28  O   UNL     1      -5.857   7.203  64.962  1.00  0.00    -0.035 OA 
BRANCH  26  29
HETATM   29  C   UNL     1      -8.183   6.682  64.488  1.00  0.00    -0.014 C  
BRANCH  29  30
HETATM   30  O   UNL     1      -8.206   6.316  65.860  1.00  0.00    -0.116 OA 
BRANCH  30  31
HETATM   31  C   UNL     1      -9.412   6.582  66.548  1.00  0.00    -0.154 C  
HETATM   32  O   UNL     1      -9.468   7.948  66.922  1.00  0.00    -0.166 OA 
HETATM   33  C   UNL     1     -10.682   8.233  67.601  1.00  0.00    -0.125 C  
HETATM   34  H   UNL     1      -9.346   3.772  68.244  1.00  0.00     0.000 HD 
HETATM   35  C   UNL     1     -10.722   7.484  68.959  1.00  0.00    -0.134 C  
HETATM   36  O   UNL     1      -9.635   7.867  69.766  1.00  0.00    -0.167 OA 
HETATM   37  C   UNL     1     -10.653   5.968  68.677  1.00  0.00    -0.266 C  
HETATM   38  O   UNL     1      -9.344   4.322  67.470  1.00  0.00    -0.140 OA 
HETATM   39  H   UNL     1      -9.660   7.408  70.597  1.00  0.00     0.000 HD 
HETATM   40  O   UNL     1     -10.570   5.223  69.867  1.00  0.00    -0.306 OA 
HETATM   41  C   UNL     1      -9.414   5.685  67.812  1.00  0.00    -0.115 C  
HETATM   42  H   UNL     1     -10.528   4.290  69.693  1.00  0.00     0.000 HD 
BRANCH  33  43
HETATM   43  C   UNL     1     -10.780   9.757  67.777  1.00  0.00    -0.272 C  
HETATM   44  O   UNL     1     -11.510  10.091  68.926  1.00  0.00    -0.467 OA 
HETATM   45  H   UNL     1     -11.570  11.032  69.035  1.00  0.00     0.000 HD 
ENDBRANCH  33  43
ENDBRANCH  30  31
ENDBRANCH  29  30
BRANCH  29  46
HETATM   46  C   UNL     1      -8.148   5.430  63.543  1.00  0.00    -0.113 C  
HETATM   47  O   UNL     1      -9.175   5.494  62.581  1.00  0.00    -0.349 OA 
HETATM   48  H   UNL     1      -9.154   4.737  62.009  1.00  0.00     0.000 HD 
BRANCH  46  49
HETATM   49  C   UNL     1      -8.111   4.064  64.268  1.00  0.00    -0.090 C  
HETATM   50  H   UNL     1      -6.805   2.658  64.642  1.00  0.00     0.000 HD 
HETATM   51  O   UNL     1      -6.828   3.497  64.197  1.00  0.00    -0.042 OA 
ENDBRANCH  46  49
ENDBRANCH  29  46
ENDBRANCH  26  29
ENDBRANCH  23  26
ENDBRANCH  21  23
ENDBRANCH  20  21
ENDBRANCH  19  20
ENDBRANCH  18  19
ENDBRANCH  16  18
ENDBRANCH  13  16
ENDBRANCH  10  13
ENDBRANCH   7  10
ENDBRANCH   4   7
ENDBRANCH   2   4
TORSDOF 17
ENDMDL
MODEL      298
REMARK 921   NORMALIZED FREE ENERGY PREDICTED BY IDOCK:   -3.69 KCAL/MOL
REMARK 922        TOTAL FREE ENERGY PREDICTED BY IDOCK:  -10.79 KCAL/MOL
REMARK 923 INTER-LIGAND FREE ENERGY PREDICTED BY IDOCK:   -8.61 KCAL/MOL
REMARK 924 INTRA-LIGAND FREE ENERGY PREDICTED BY IDOCK:   -2.18 KCAL/MOL
REMARK 927      BINDING AFFINITY PREDICTED BY RF-SCORE:    0.00 PKD
ROOT
HETATM    1  O   UNL     1     -12.160  13.673  71.076  1.00  0.00    -0.425 OA 
HETATM    2  C   UNL     1     -12.220  13.977  69.708  1.00  0.00    -0.341 C  
HETATM    3  H   UNL     1     -13.039  13.645  71.436  1.00  0.00     0.000 HD 
ENDROOT
BRANCH   2   4
HETATM    4  C   UNL     1     -10.797  14.021  69.126  1.00  0.00    -0.206 C  
HETATM    5  O   UNL     1     -10.322  12.709  68.960  1.00  0.00    -0.425 OA 
HETATM    6  H   UNL     1      -9.443  12.736  68.600  1.00  0.00     0.000 HD 
BRANCH   4   7
HETATM    7  C   UNL     1     -10.762  14.760  67.762  1.00  0.00    -0.268 C  
HETATM    8  H   UNL     1     -12.027  15.215  66.357  1.00  0.00     0.000 HD 
HETATM    9  O   UNL     1     -12.049  14.763  67.192  1.00  0.00    -0.308 OA 
BRANCH   7  10
HETATM   10  C   UNL     1     -10.272  16.225  67.908  1.00  0.00    -0.261 C  
HETATM   11  H   UNL     1     -11.087  17.944  68.238  1.00  0.00     0.000 HD 
HETATM   12  O   UNL     1     -11.388  17.047  68.149  1.00  0.00    -0.171 OA 
BRANCH  10  13
HETATM   13  C   UNL     1      -9.519  16.753  66.655  1.00  0.00    -0.257 C  
HETATM   14  H   UNL     1      -8.386  16.016  65.261  1.00  0.00     0.000 HD 
HETATM   15  O   UNL     1      -8.845  15.693  66.027  1.00  0.00    -0.318 OA 
BRANCH  13  16
HETATM   16  C   UNL     1     -10.430  17.394  65.634  1.00  0.00    -0.165 C  
HETATM   17  O   UNL     1     -10.636  18.597  65.677  1.00  0.00    -0.610 OA 
BRANCH  16  18
HETATM   18  O   UNL     1     -11.032  16.658  64.678  1.00  0.00    -0.793 OA 
BRANCH  18  19
HETATM   19 CA   UNL     1     -11.271  14.271  65.004  1.00  0.00    -0.297 Ca 
BRANCH  19  20
HETATM   20  O   UNL     1     -11.511  11.886  65.331  1.00  0.00    -0.320 OA 
BRANCH  20  21
HETATM   21  C   UNL     1     -10.508  11.260  64.692  1.00  0.00    -0.325 C  
HETATM   22  O   UNL     1     -10.487  11.312  63.474  1.00  0.00    -0.361 OA 
BRANCH  21  23
HETATM   23  C   UNL     1      -9.530  10.369  65.424  1.00  0.00    -0.232 C  
HETATM   24  H   UNL     1      -8.750   8.626  65.141  1.00  0.00     0.000 HD 
HETATM   25  O   UNL     1      -9.365   9.185  64.681  1.00  0.00    -0.083 OA 
BRANCH  23  26
HETATM   26  C   UNL     1      -9.948  10.001  66.880  1.00  0.00    -0.209 C  
HETATM   27  H   UNL     1     -11.349   8.965  67.731  1.00  0.00     0.000 HD 
HETATM   28  O   UNL     1     -11.094   9.189  66.844  1.00  0.00     0.078 OA 
BRANCH  26  29
HETATM   29  C   UNL     1      -8.862   9.338  67.795  1.00  0.00    -0.120 C  
BRANCH  29  30
HETATM   30  O   UNL     1      -9.253   7.983  67.966  1.00  0.00    -0.136 OA 
BRANCH  30  31
HETATM   31  C   UNL     1      -8.433   7.021  67.335  1.00  0.00    -0.122 C  
HETATM   32  O   UNL     1      -7.613   7.644  66.360  1.00  0.00    -0.085 OA 
HETATM   33  C   UNL     1      -6.772   6.691  65.729  1.00  0.00    -0.048 C  
HETATM   34  H   UNL     1     -10.797   4.748  67.187  1.00  0.00     0.000 HD 
HETATM   35  C   UNL     1      -7.623   5.693  64.902  1.00  0.00    -0.083 C  
HETATM   36  O   UNL     1      -8.371   6.374  63.924  1.00  0.00    -0.311 OA 
HETATM   37  C   UNL     1      -8.576   4.955  65.866  1.00  0.00    -0.121 C  
HETATM   38  O   UNL     1     -10.216   5.375  67.602  1.00  0.00    -0.177 OA 
HETATM   39  H   UNL     1      -8.893   5.762  63.418  1.00  0.00     0.000 HD 
HETATM   40  O   UNL     1      -9.463   4.111  65.174  1.00  0.00    -0.151 OA 
HETATM   41  C   UNL     1      -9.380   5.999  66.658  1.00  0.00    -0.144 C  
HETATM   42  H   UNL     1     -10.049   3.657  65.768  1.00  0.00     0.000 HD 
BRANCH  33  43
HETATM   43  C   UNL     1      -5.763   7.454  64.856  1.00  0.00    -0.037 C  
HETATM   44  O   UNL     1      -5.624   8.783  65.281  1.00  0.00    -0.045 OA 
HETATM   45  H   UNL     1      -5.001   9.254  64.742  1.00  0.00     0.000 HD 
ENDBRANCH  33  43
ENDBRANCH  30  31
ENDBRANCH  29  30
BRANCH  29  46
HETATM   46  C   UNL     1      -8.592  10.052  69.167  1.00  0.00    -0.158 C  
HETATM   47  O   UNL     1      -7.228  10.375  69.307  1.00  0.00    -0.077 OA 
HETATM   48  H   UNL     1      -7.064  10.807  70.137  1.00  0.00     0.000 HD 
BRANCH  46  49
HETATM   49  C   UNL     1      -9.150   9.317  70.408  1.00  0.00    -0.247 C  
HETATM   50  H   UNL     1     -10.884   9.030  71.263  1.00  0.00     0.000 HD 
HETATM   51  O   UNL     1     -10.541   9.481  70.500  1.00  0.00    -0.251 OA 
ENDBRANCH  46  49
ENDBRANCH  29  46
ENDBRANCH  26  29
ENDBRANCH  23  26
ENDBRANCH  21  23
ENDBRANCH  20  21
ENDBRANCH  19  20
ENDBRANCH  18  19
ENDBRANCH  16  18
ENDBRANCH  13  16
ENDBRANCH  10  13
ENDBRANCH   7  10
ENDBRANCH   4   7
ENDBRANCH   2   4
TORSDOF 17
ENDMDL
MODEL      299
REMARK 921   NORMALIZED FREE ENERGY PREDICTED BY IDOCK:   -3.69 KCAL/MOL
REMARK 922        TOTAL FREE ENERGY PREDICTED BY IDOCK:  -10.79 KCAL/MOL
REMARK 923 INTER-LIGAND FREE ENERGY PREDICTED BY IDOCK:   -8.59 KCAL/MOL
REMARK 924 INTRA-LIGAND FREE ENERGY PREDICTED BY IDOCK:   -2.20 KCAL/MOL
REMARK 927      BINDING AFFINITY PREDICTED BY RF-SCORE:    0.00 PKD
ROOT
HETATM    1  O   UNL     1     -11.762  16.703  71.503  1.00  0.00    -0.641 OA 
HETATM    2  C   UNL     1     -11.481  15.739  72.481  1.00  0.00    -0.241 C  
HETATM    3  H   UNL     1     -10.950  17.037  71.140  1.00  0.00     0.000 HD 
ENDROOT
BRANCH   2   4
HETATM    4  C   UNL     1     -12.795  15.198  73.068  1.00  0.00    -0.468 C  
HETATM    5  O   UNL     1     -13.623  16.277  73.425  1.00  0.00    -0.746 OA 
HETATM    6  H   UNL     1     -14.435  15.942  73.788  1.00  0.00     0.000 HD 
BRANCH   4   7
HETATM    7  C   UNL     1     -13.540  14.288  72.056  1.00  0.00    -0.430 C  
HETATM    8  H   UNL     1     -14.627  14.523  70.462  1.00  0.00     0.000 HD 
HETATM    9  O   UNL     1     -14.171  15.081  71.081  1.00  0.00    -0.410 OA 
BRANCH   7  10
HETATM   10  C   UNL     1     -12.578  13.294  71.353  1.00  0.00    -0.271 C  
HETATM   11  H   UNL     1     -12.239  12.725  69.538  1.00  0.00     0.000 HD 
HETATM   12  O   UNL     1     -12.829  13.334  69.969  1.00  0.00     0.056 OA 
BRANCH  10  13
HETATM   13  C   UNL     1     -12.730  11.829  71.849  1.00  0.00    -0.110 C  
HETATM   14  H   UNL     1     -14.182  10.643  72.356  1.00  0.00     0.000 HD 
HETATM   15  O   UNL     1     -14.089  11.538  72.052  1.00  0.00     0.361 OA 
BRANCH  13  16
HETATM   16  C   UNL     1     -12.176  10.808  70.884  1.00  0.00    -0.384 C  
HETATM   17  O   UNL     1     -11.242  10.098  71.224  1.00  0.00    -0.290 OA 
BRANCH  16  18
HETATM   18  O   UNL     1     -12.687  10.672  69.644  1.00  0.00    -0.212 OA 
BRANCH  18  19
HETATM   19 CA   UNL     1     -11.486   9.349  68.012  1.00  0.00    -0.442 Ca 
BRANCH  19  20
HETATM   20  O   UNL     1     -10.285   8.026  66.380  1.00  0.00    -0.220 OA 
BRANCH  20  21
HETATM   21  C   UNL     1      -9.556   8.850  65.609  1.00  0.00    -0.105 C  
HETATM   22  O   UNL     1      -8.591   8.382  65.028  1.00  0.00    -0.169 OA 
BRANCH  21  23
HETATM   23  C   UNL     1      -9.797  10.342  65.585  1.00  0.00    -0.259 C  
HETATM   24  H   UNL     1      -9.358  11.807  64.408  1.00  0.00     0.000 HD 
HETATM   25  O   UNL     1      -9.206  10.870  64.423  1.00  0.00    -0.207 OA 
BRANCH  23  26
HETATM   26  C   UNL     1      -9.251  11.110  66.827  1.00  0.00    -0.171 C  
HETATM   27  H   UNL     1      -7.735  10.963  68.028  1.00  0.00     0.000 HD 
HETATM   28  O   UNL     1      -8.068  10.495  67.271  1.00  0.00    -0.114 OA 
BRANCH  26  29
HETATM   29  C   UNL     1      -9.016  12.652  66.674  1.00  0.00    -0.164 C  
BRANCH  29  30
HETATM   30  O   UNL     1      -7.773  12.933  67.302  1.00  0.00    -0.163 OA 
BRANCH  30  31
HETATM   31  C   UNL     1      -7.779  14.002  68.227  1.00  0.00    -0.141 C  
HETATM   32  O   UNL     1      -7.734  15.242  67.541  1.00  0.00    -0.143 OA 
HETATM   33  C   UNL     1      -7.756  16.324  68.459  1.00  0.00    -0.189 C  
HETATM   34  H   UNL     1      -5.754  12.506  70.334  1.00  0.00     0.000 HD 
HETATM   35  C   UNL     1      -6.456  16.331  69.305  1.00  0.00    -0.188 C  
HETATM   36  O   UNL     1      -5.327  16.447  68.474  1.00  0.00    -0.102 OA 
HETATM   37  C   UNL     1      -6.387  15.009  70.097  1.00  0.00    -0.150 C  
HETATM   38  O   UNL     1      -6.528  12.607  69.793  1.00  0.00    -0.101 OA 
HETATM   39  H   UNL     1      -4.531  16.451  68.993  1.00  0.00     0.000 HD 
HETATM   40  O   UNL     1      -5.177  14.890  70.804  1.00  0.00    -0.119 OA 
HETATM   41  C   UNL     1      -6.517  13.837  69.110  1.00  0.00    -0.109 C  
HETATM   42  H   UNL     1      -5.135  14.076  71.292  1.00  0.00     0.000 HD 
BRANCH  33  43
HETATM   43  C   UNL     1      -7.931  17.622  67.655  1.00  0.00    -0.208 C  
HETATM   44  O   UNL     1      -6.815  17.876  66.846  1.00  0.00    -0.166 OA 
HETATM   45  H   UNL     1      -6.924  18.678  66.349  1.00  0.00     0.000 HD 
ENDBRANCH  33  43
ENDBRANCH  30  31
ENDBRANCH  29  30
BRANCH  29  46
HETATM   46  C   UNL     1     -10.167  13.578  67.203  1.00  0.00    -0.247 C  
HETATM   47  O   UNL     1     -11.059  12.857  68.021  1.00  0.00    -0.232 OA 
HETATM   48  H   UNL     1     -11.756  13.416  68.342  1.00  0.00     0.000 HD 
BRANCH  46  49
HETATM   49  C   UNL     1     -10.902  14.396  66.116  1.00  0.00    -0.309 C  
HETATM   50  H   UNL     1     -10.500  15.170  64.366  1.00  0.00     0.000 HD 
HETATM   51  O   UNL     1     -10.049  14.667  65.035  1.00  0.00    -0.384 OA 
ENDBRANCH  46  49
ENDBRANCH  29  46
ENDBRANCH  26  29
ENDBRANCH  23  26
ENDBRANCH  21  23
ENDBRANCH  20  21
ENDBRANCH  19  20
ENDBRANCH  18  19
ENDBRANCH  16  18
ENDBRANCH  13  16
ENDBRANCH  10  13
ENDBRANCH   7  10
ENDBRANCH   4   7
ENDBRANCH   2   4
TORSDOF 17
ENDMDL
MODEL      300
REMARK 921   NORMALIZED FREE ENERGY PREDICTED BY IDOCK:   -3.68 KCAL/MOL
REMARK 922        TOTAL FREE ENERGY PREDICTED BY IDOCK:  -10.77 KCAL/MOL
REMARK 923 INTER-LIGAND FREE ENERGY PREDICTED BY IDOCK:   -8.95 KCAL/MOL
REMARK 924 INTRA-LIGAND FREE ENERGY PREDICTED BY IDOCK:   -1.82 KCAL/MOL
REMARK 927      BINDING AFFINITY PREDICTED BY RF-SCORE:    0.00 PKD
ROOT
HETATM    1  O   UNL     1     -11.300  10.875  70.569  1.00  0.00    -0.425 OA 
HETATM    2  C   UNL     1     -10.379   9.827  70.708  1.00  0.00    -0.228 C  
HETATM    3  H   UNL     1     -10.838  11.685  70.389  1.00  0.00     0.000 HD 
ENDROOT
BRANCH   2   4
HETATM    4  C   UNL     1     -11.127   8.516  71.000  1.00  0.00    -0.260 C  
HETATM    5  O   UNL     1     -12.373   8.536  70.349  1.00  0.00    -0.399 OA 
HETATM    6  H   UNL     1     -12.835   7.726  70.529  1.00  0.00     0.000 HD 
BRANCH   4   7
HETATM    7  C   UNL     1     -10.317   7.280  70.527  1.00  0.00    -0.206 C  
HETATM    8  H   UNL     1      -8.476   6.663  70.622  1.00  0.00     0.000 HD 
HETATM    9  O   UNL     1      -8.972   7.420  70.912  1.00  0.00    -0.148 OA 
BRANCH   7  10
HETATM   10  C   UNL     1     -10.877   5.958  71.118  1.00  0.00    -0.269 C  
HETATM   11  H   UNL     1     -12.077   5.467  72.550  1.00  0.00     0.000 HD 
HETATM   12  O   UNL     1     -11.734   6.276  72.188  1.00  0.00    -0.304 OA 
BRANCH  10  13
HETATM   13  C   UNL     1      -9.772   4.993  71.629  1.00  0.00    -0.170 C  
HETATM   14  H   UNL     1      -9.598   3.630  73.002  1.00  0.00     0.000 HD 
HETATM   15  O   UNL     1     -10.274   4.220  72.690  1.00  0.00    -0.161 OA 
BRANCH  13  16
HETATM   16  C   UNL     1      -9.263   4.047  70.567  1.00  0.00    -0.128 C  
HETATM   17  O   UNL     1      -8.213   3.449  70.741  1.00  0.00    -0.056 OA 
BRANCH  16  18
HETATM   18  O   UNL     1      -9.944   3.858  69.419  1.00  0.00    -0.084 OA 
BRANCH  18  19
HETATM   19 CA   UNL     1      -9.303   5.108  67.448  1.00  0.00    -0.114 Ca 
BRANCH  19  20
HETATM   20  O   UNL     1      -8.660   6.358  65.478  1.00  0.00    -0.150 OA 
BRANCH  20  21
HETATM   21  C   UNL     1      -7.662   7.196  65.806  1.00  0.00    -0.099 C  
HETATM   22  O   UNL     1      -6.526   6.754  65.817  1.00  0.00    -0.047 OA 
BRANCH  21  23
HETATM   23  C   UNL     1      -7.930   8.594  66.316  1.00  0.00    -0.102 C  
HETATM   24  H   UNL     1      -8.008   9.458  68.041  1.00  0.00     0.000 HD 
HETATM   25  O   UNL     1      -7.840   8.580  67.720  1.00  0.00    -0.101 OA 
BRANCH  23  26
HETATM   26  C   UNL     1      -9.312   9.184  65.902  1.00  0.00    -0.243 C  
HETATM   27  H   UNL     1     -11.067   9.375  66.703  1.00  0.00     0.000 HD 
HETATM   28  O   UNL     1     -10.225   9.015  66.956  1.00  0.00    -0.226 OA 
BRANCH  26  29
HETATM   29  C   UNL     1      -9.341  10.674  65.414  1.00  0.00    -0.210 C  
BRANCH  29  30
HETATM   30  O   UNL     1     -10.359  11.322  66.163  1.00  0.00    -0.237 OA 
BRANCH  30  31
HETATM   31  C   UNL     1     -10.179  12.707  66.376  1.00  0.00    -0.251 C  
HETATM   32  O   UNL     1      -8.990  12.937  67.113  1.00  0.00    -0.203 OA 
HETATM   33  C   UNL     1      -8.789  14.327  67.320  1.00  0.00    -0.214 C  
HETATM   34  H   UNL     1     -13.357  13.274  66.973  1.00  0.00     0.000 HD 
HETATM   35  C   UNL     1      -9.900  14.895  68.240  1.00  0.00    -0.218 C  
HETATM   36  O   UNL     1      -9.900  14.234  69.482  1.00  0.00    -0.401 OA 
HETATM   37  C   UNL     1     -11.260  14.688  67.541  1.00  0.00    -0.333 C  
HETATM   38  O   UNL     1     -12.605  12.972  66.479  1.00  0.00    -0.303 OA 
HETATM   39  H   UNL     1     -10.581  14.582  70.045  1.00  0.00     0.000 HD 
HETATM   40  O   UNL     1     -12.332  15.076  68.364  1.00  0.00    -0.576 OA 
HETATM   41  C   UNL     1     -11.407  13.200  67.182  1.00  0.00    -0.316 C  
HETATM   42  H   UNL     1     -13.169  14.949  67.933  1.00  0.00     0.000 HD 
BRANCH  33  43
HETATM   43  C   UNL     1      -7.387  14.518  67.919  1.00  0.00    -0.156 C  
HETATM   44  O   UNL     1      -7.137  13.589  68.939  1.00  0.00    -0.105 OA 
HETATM   45  H   UNL     1      -6.271  13.706  69.309  1.00  0.00     0.000 HD 
ENDBRANCH  33  43
ENDBRANCH  30  31
ENDBRANCH  29  30
BRANCH  29  46
HETATM   46  C   UNL     1      -9.520  10.887  63.869  1.00  0.00    -0.261 C  
HETATM   47  O   UNL     1      -8.271  10.961  63.222  1.00  0.00    -0.355 OA 
HETATM   48  H   UNL     1      -8.379  11.089  62.287  1.00  0.00     0.000 HD 
BRANCH  46  49
HETATM   49  C   UNL     1     -10.454  12.054  63.473  1.00  0.00    -0.464 C  
HETATM   50  H   UNL     1     -12.371  12.361  63.244  1.00  0.00     0.000 HD 
HETATM   51  O   UNL     1     -11.797  11.644  63.487  1.00  0.00    -0.431 OA 
ENDBRANCH  46  49
ENDBRANCH  29  46
ENDBRANCH  26  29
ENDBRANCH  23  26
ENDBRANCH  21  23
ENDBRANCH  20  21
ENDBRANCH  19  20
ENDBRANCH  18  19
ENDBRANCH  16  18
ENDBRANCH  13  16
ENDBRANCH  10  13
ENDBRANCH   7  10
ENDBRANCH   4   7
ENDBRANCH   2   4
TORSDOF 17
ENDMDL
MODEL      301
REMARK 921   NORMALIZED FREE ENERGY PREDICTED BY IDOCK:   -3.66 KCAL/MOL
REMARK 922        TOTAL FREE ENERGY PREDICTED BY IDOCK:  -10.74 KCAL/MOL
REMARK 923 INTER-LIGAND FREE ENERGY PREDICTED BY IDOCK:   -8.85 KCAL/MOL
REMARK 924 INTRA-LIGAND FREE ENERGY PREDICTED BY IDOCK:   -1.89 KCAL/MOL
REMARK 927      BINDING AFFINITY PREDICTED BY RF-SCORE:    0.00 PKD
ROOT
HETATM    1  O   UNL     1      -8.965   8.579  73.322  1.00  0.00    -0.275 OA 
HETATM    2  C   UNL     1      -9.295   8.032  72.074  1.00  0.00    -0.178 C  
HETATM    3  H   UNL     1      -8.032   8.488  73.475  1.00  0.00     0.000 HD 
ENDROOT
BRANCH   2   4
HETATM    4  C   UNL     1     -10.806   8.179  71.828  1.00  0.00    -0.256 C  
HETATM    5  O   UNL     1     -11.232   9.437  72.286  1.00  0.00    -0.029 OA 
HETATM    6  H   UNL     1     -12.165   9.528  72.134  1.00  0.00     0.000 HD 
BRANCH   4   7
HETATM    7  C   UNL     1     -11.155   8.031  70.323  1.00  0.00    -0.224 C  
HETATM    8  H   UNL     1     -10.406   8.610  68.625  1.00  0.00     0.000 HD 
HETATM    9  O   UNL     1     -10.192   8.700  69.546  1.00  0.00    -0.198 OA 
BRANCH   7  10
HETATM   10  C   UNL     1     -11.214   6.544  69.884  1.00  0.00    -0.395 C  
HETATM   11  H   UNL     1     -11.279   4.829  70.769  1.00  0.00     0.000 HD 
HETATM   12  O   UNL     1     -11.243   5.740  71.038  1.00  0.00    -0.245 OA 
BRANCH  10  13
HETATM   13  C   UNL     1     -10.012   6.112  69.000  1.00  0.00    -0.153 C  
HETATM   14  H   UNL     1      -8.636   4.742  69.041  1.00  0.00     0.000 HD 
HETATM   15  O   UNL     1      -9.371   5.007  69.582  1.00  0.00    -0.111 OA 
BRANCH  13  16
HETATM   16  C   UNL     1     -10.409   5.730  67.593  1.00  0.00    -0.217 C  
HETATM   17  O   UNL     1     -10.014   4.676  67.118  1.00  0.00    -0.194 OA 
BRANCH  16  18
HETATM   18  O   UNL     1     -11.185   6.539  66.844  1.00  0.00    -0.387 OA 
BRANCH  18  19
HETATM   19 CA   UNL     1     -11.516   8.832  67.543  1.00  0.00    -0.501 Ca 
BRANCH  19  20
HETATM   20  O   UNL     1     -11.847  11.125  68.242  1.00  0.00    -0.522 OA 
BRANCH  20  21
HETATM   21  C   UNL     1     -11.576  11.936  67.205  1.00  0.00    -0.293 C  
HETATM   22  O   UNL     1     -12.468  12.153  66.402  1.00  0.00    -0.270 OA 
BRANCH  21  23
HETATM   23  C   UNL     1     -10.175  12.431  66.926  1.00  0.00    -0.225 C  
HETATM   24  H   UNL     1      -8.873  12.213  65.518  1.00  0.00     0.000 HD 
HETATM   25  O   UNL     1      -9.753  11.902  65.693  1.00  0.00    -0.232 OA 
BRANCH  23  26
HETATM   26  C   UNL     1      -9.126  12.067  68.021  1.00  0.00    -0.188 C  
HETATM   27  H   UNL     1      -7.854  10.640  68.344  1.00  0.00     0.000 HD 
HETATM   28  O   UNL     1      -8.493  10.861  67.677  1.00  0.00    -0.122 OA 
BRANCH  26  29
HETATM   29  C   UNL     1      -8.045  13.148  68.369  1.00  0.00    -0.130 C  
BRANCH  29  30
HETATM   30  O   UNL     1      -8.218  14.205  67.437  1.00  0.00    -0.173 OA 
BRANCH  30  31
HETATM   31  C   UNL     1      -7.932  15.503  67.917  1.00  0.00    -0.136 C  
HETATM   32  O   UNL     1      -9.077  16.330  67.798  1.00  0.00    -0.194 OA 
HETATM   33  C   UNL     1      -8.808  17.634  68.292  1.00  0.00    -0.276 C  
HETATM   34  H   UNL     1      -4.929  15.592  66.594  1.00  0.00     0.000 HD 
HETATM   35  C   UNL     1      -7.758  18.337  67.393  1.00  0.00    -0.218 C  
HETATM   36  O   UNL     1      -8.223  18.428  66.069  1.00  0.00    -0.473 OA 
HETATM   37  C   UNL     1      -6.455  17.511  67.433  1.00  0.00    -0.148 C  
HETATM   38  O   UNL     1      -5.634  15.250  67.130  1.00  0.00    -0.284 OA 
HETATM   39  H   UNL     1      -7.579  18.859  65.519  1.00  0.00     0.000 HD 
HETATM   40  O   UNL     1      -5.487  18.025  66.551  1.00  0.00    -0.134 OA 
HETATM   41  C   UNL     1      -6.781  16.060  67.042  1.00  0.00    -0.103 C  
HETATM   42  H   UNL     1      -4.686  17.516  66.576  1.00  0.00     0.000 HD 
BRANCH  33  43
HETATM   43  C   UNL     1     -10.136  18.404  68.343  1.00  0.00    -0.390 C  
HETATM   44  O   UNL     1     -10.613  18.686  67.054  1.00  0.00    -0.397 OA 
HETATM   45  H   UNL     1     -11.434  19.161  67.086  1.00  0.00     0.000 HD 
ENDBRANCH  33  43
ENDBRANCH  30  31
ENDBRANCH  29  30
BRANCH  29  46
HETATM   46  C   UNL     1      -6.560  12.642  68.419  1.00  0.00    -0.081 C  
HETATM   47  O   UNL     1      -6.180  12.069  67.189  1.00  0.00    -0.136 OA 
HETATM   48  H   UNL     1      -5.282  11.764  67.219  1.00  0.00     0.000 HD 
BRANCH  46  49
HETATM   49  C   UNL     1      -6.219  11.730  69.620  1.00  0.00    -0.128 C  
HETATM   50  H   UNL     1      -5.951  11.912  71.547  1.00  0.00     0.000 HD 
HETATM   51  O   UNL     1      -6.160  12.472  70.809  1.00  0.00    -0.237 OA 
ENDBRANCH  46  49
ENDBRANCH  29  46
ENDBRANCH  26  29
ENDBRANCH  23  26
ENDBRANCH  21  23
ENDBRANCH  20  21
ENDBRANCH  19  20
ENDBRANCH  18  19
ENDBRANCH  16  18
ENDBRANCH  13  16
ENDBRANCH  10  13
ENDBRANCH   7  10
ENDBRANCH   4   7
ENDBRANCH   2   4
TORSDOF 17
ENDMDL
MODEL      302
REMARK 921   NORMALIZED FREE ENERGY PREDICTED BY IDOCK:   -3.66 KCAL/MOL
REMARK 922        TOTAL FREE ENERGY PREDICTED BY IDOCK:  -10.74 KCAL/MOL
REMARK 923 INTER-LIGAND FREE ENERGY PREDICTED BY IDOCK:   -8.15 KCAL/MOL
REMARK 924 INTRA-LIGAND FREE ENERGY PREDICTED BY IDOCK:   -2.58 KCAL/MOL
REMARK 927      BINDING AFFINITY PREDICTED BY RF-SCORE:    0.00 PKD
ROOT
HETATM    1  O   UNL     1      -9.573  18.029  68.362  1.00  0.00    -0.305 OA 
HETATM    2  C   UNL     1      -9.367  17.475  67.091  1.00  0.00    -0.250 C  
HETATM    3  H   UNL     1      -8.785  18.475  68.648  1.00  0.00     0.000 HD 
ENDROOT
BRANCH   2   4
HETATM    4  C   UNL     1     -10.644  16.752  66.628  1.00  0.00    -0.198 C  
HETATM    5  O   UNL     1     -10.838  16.986  65.256  1.00  0.00    -0.545 OA 
HETATM    6  H   UNL     1     -11.626  16.540  64.970  1.00  0.00     0.000 HD 
BRANCH   4   7
HETATM    7  C   UNL     1     -10.559  15.224  66.886  1.00  0.00    -0.304 C  
HETATM    8  H   UNL     1     -11.737  13.824  67.544  1.00  0.00     0.000 HD 
HETATM    9  O   UNL     1     -11.789  14.760  67.386  1.00  0.00    -0.377 OA 
BRANCH   7  10
HETATM   10  C   UNL     1     -10.209  14.437  65.595  1.00  0.00    -0.350 C  
HETATM   11  H   UNL     1      -9.548  14.869  63.832  1.00  0.00     0.000 HD 
HETATM   12  O   UNL     1      -9.763  15.351  64.623  1.00  0.00     0.050 OA 
BRANCH  10  13
HETATM   13  C   UNL     1     -11.407  13.633  65.017  1.00  0.00    -0.329 C  
HETATM   14  H   UNL     1     -12.725  13.860  63.609  1.00  0.00     0.000 HD 
HETATM   15  O   UNL     1     -11.993  14.352  63.962  1.00  0.00    -0.385 OA 
BRANCH  13  16
HETATM   16  C   UNL     1     -11.017  12.272  64.490  1.00  0.00    -0.315 C  
HETATM   17  O   UNL     1     -11.494  11.268  64.997  1.00  0.00    -0.039 OA 
BRANCH  16  18
HETATM   18  O   UNL     1     -10.140  12.143  63.474  1.00  0.00    -0.422 OA 
BRANCH  18  19
HETATM   19 CA   UNL     1      -8.068  10.950  63.850  1.00  0.00    -0.185 Ca 
BRANCH  19  20
HETATM   20  O   UNL     1      -5.996   9.758  64.225  1.00  0.00    -0.085 OA 
BRANCH  20  21
HETATM   21  C   UNL     1      -6.167   8.473  63.868  1.00  0.00    -0.072 C  
HETATM   22  O   UNL     1      -5.237   7.905  63.321  1.00  0.00    -0.047 OA 
BRANCH  21  23
HETATM   23  C   UNL     1      -7.511   7.789  63.972  1.00  0.00    -0.103 C  
HETATM   24  H   UNL     1      -9.361   8.316  63.804  1.00  0.00     0.000 HD 
HETATM   25  O   UNL     1      -8.516   8.745  63.739  1.00  0.00    -0.171 OA 
BRANCH  23  26
HETATM   26  C   UNL     1      -7.782   7.090  65.339  1.00  0.00    -0.111 C  
HETATM   27  H   UNL     1      -6.810   6.779  66.988  1.00  0.00     0.000 HD 
HETATM   28  O   UNL     1      -6.644   7.205  66.155  1.00  0.00    -0.050 OA 
BRANCH  26  29
HETATM   29  C   UNL     1      -9.052   7.542  66.139  1.00  0.00    -0.137 C  
BRANCH  29  30
HETATM   30  O   UNL     1      -8.582   8.320  67.231  1.00  0.00    -0.122 OA 
BRANCH  30  31
HETATM   31  C   UNL     1      -8.618   9.721  67.049  1.00  0.00    -0.124 C  
HETATM   32  O   UNL     1      -7.322  10.269  67.219  1.00  0.00    -0.089 OA 
HETATM   33  C   UNL     1      -7.341  11.675  67.024  1.00  0.00    -0.143 C  
HETATM   34  H   UNL     1     -11.462  10.098  68.644  1.00  0.00     0.000 HD 
HETATM   35  C   UNL     1      -8.172  12.357  68.141  1.00  0.00    -0.173 C  
HETATM   36  O   UNL     1      -7.628  12.070  69.406  1.00  0.00    -0.335 OA 
HETATM   37  C   UNL     1      -9.618  11.824  68.062  1.00  0.00    -0.187 C  
HETATM   38  O   UNL     1     -10.873   9.750  67.986  1.00  0.00    -0.250 OA 
HETATM   39  H   UNL     1      -8.138  12.489  70.090  1.00  0.00     0.000 HD 
HETATM   40  O   UNL     1     -10.410  12.312  69.118  1.00  0.00    -0.425 OA 
HETATM   41  C   UNL     1      -9.580  10.288  68.123  1.00  0.00    -0.140 C  
HETATM   42  H   UNL     1     -11.300  11.984  69.069  1.00  0.00     0.000 HD 
BRANCH  33  43
HETATM   43  C   UNL     1      -5.886  12.169  67.000  1.00  0.00    -0.093 C  
HETATM   44  O   UNL     1      -5.802  13.523  67.357  1.00  0.00    -0.348 OA 
HETATM   45  H   UNL     1      -4.903  13.828  67.343  1.00  0.00     0.000 HD 
ENDBRANCH  33  43
ENDBRANCH  30  31
ENDBRANCH  29  30
BRANCH  29  46
HETATM   46  C   UNL     1     -10.015   6.394  66.605  1.00  0.00    -0.149 C  
HETATM   47  O   UNL     1     -11.219   6.920  67.113  1.00  0.00    -0.583 OA 
HETATM   48  H   UNL     1     -11.802   6.225  67.395  1.00  0.00     0.000 HD 
BRANCH  46  49
HETATM   49  C   UNL     1      -9.381   5.355  67.559  1.00  0.00    -0.114 C  
HETATM   50  H   UNL     1      -9.622   3.469  68.013  1.00  0.00     0.000 HD 
HETATM   51  O   UNL     1     -10.011   4.107  67.426  1.00  0.00    -0.151 OA 
ENDBRANCH  46  49
ENDBRANCH  29  46
ENDBRANCH  26  29
ENDBRANCH  23  26
ENDBRANCH  21  23
ENDBRANCH  20  21
ENDBRANCH  19  20
ENDBRANCH  18  19
ENDBRANCH  16  18
ENDBRANCH  13  16
ENDBRANCH  10  13
ENDBRANCH   7  10
ENDBRANCH   4   7
ENDBRANCH   2   4
TORSDOF 17
ENDMDL
MODEL      303
REMARK 921   NORMALIZED FREE ENERGY PREDICTED BY IDOCK:   -3.66 KCAL/MOL
REMARK 922        TOTAL FREE ENERGY PREDICTED BY IDOCK:  -10.73 KCAL/MOL
REMARK 923 INTER-LIGAND FREE ENERGY PREDICTED BY IDOCK:   -7.94 KCAL/MOL
REMARK 924 INTRA-LIGAND FREE ENERGY PREDICTED BY IDOCK:   -2.79 KCAL/MOL
REMARK 927      BINDING AFFINITY PREDICTED BY RF-SCORE:    0.00 PKD
ROOT
HETATM    1  O   UNL     1      -8.580   9.022  72.387  1.00  0.00    -0.354 OA 
HETATM    2  C   UNL     1      -8.743   8.078  71.364  1.00  0.00    -0.136 C  
HETATM    3  H   UNL     1      -7.654   9.176  72.535  1.00  0.00     0.000 HD 
ENDROOT
BRANCH   2   4
HETATM    4  C   UNL     1     -10.242   7.828  71.125  1.00  0.00    -0.195 C  
HETATM    5  O   UNL     1     -10.984   8.882  71.687  1.00  0.00    -0.292 OA 
HETATM    6  H   UNL     1     -11.909   8.728  71.539  1.00  0.00     0.000 HD 
BRANCH   4   7
HETATM    7  C   UNL     1     -10.566   7.717  69.612  1.00  0.00    -0.242 C  
HETATM    8  H   UNL     1      -9.649   8.052  67.930  1.00  0.00     0.000 HD 
HETATM    9  O   UNL     1      -9.450   8.120  68.857  1.00  0.00    -0.150 OA 
BRANCH   7  10
HETATM   10  C   UNL     1     -10.954   6.270  69.206  1.00  0.00    -0.369 C  
HETATM   11  H   UNL     1     -11.844   4.776  70.046  1.00  0.00     0.000 HD 
HETATM   12  O   UNL     1     -11.607   5.662  70.295  1.00  0.00     0.110 OA 
BRANCH  10  13
HETATM   13  C   UNL     1      -9.737   5.395  68.797  1.00  0.00    -0.142 C  
HETATM   14  H   UNL     1      -8.819   3.827  69.482  1.00  0.00     0.000 HD 
HETATM   15  O   UNL     1      -9.563   4.362  69.733  1.00  0.00    -0.170 OA 
BRANCH  13  16
HETATM   16  C   UNL     1      -9.883   4.765  67.432  1.00  0.00    -0.175 C  
HETATM   17  O   UNL     1      -9.570   3.596  67.268  1.00  0.00    -0.209 OA 
BRANCH  16  18
HETATM   18  O   UNL     1     -10.345   5.475  66.383  1.00  0.00    -0.220 OA 
BRANCH  18  19
HETATM   19 CA   UNL     1     -10.626   7.868  66.611  1.00  0.00    -0.232 Ca 
BRANCH  19  20
HETATM   20  O   UNL     1     -10.907  10.260  66.840  1.00  0.00    -0.220 OA 
BRANCH  20  21
HETATM   21  C   UNL     1     -10.236  10.870  65.848  1.00  0.00    -0.257 C  
HETATM   22  O   UNL     1     -10.668  10.757  64.713  1.00  0.00    -0.270 OA 
BRANCH  21  23
HETATM   23  C   UNL     1      -8.896  11.531  66.080  1.00  0.00    -0.167 C  
HETATM   24  H   UNL     1      -7.093  11.292  65.436  1.00  0.00     0.000 HD 
HETATM   25  O   UNL     1      -7.934  10.877  65.290  1.00  0.00    -0.055 OA 
BRANCH  23  26
HETATM   26  C   UNL     1      -8.420  11.531  67.565  1.00  0.00    -0.143 C  
HETATM   27  H   UNL     1      -7.252  10.454  68.676  1.00  0.00     0.000 HD 
HETATM   28  O   UNL     1      -7.542  10.454  67.772  1.00  0.00    -0.088 OA 
BRANCH  26  29
HETATM   29  C   UNL     1      -7.772  12.849  68.113  1.00  0.00    -0.138 C  
BRANCH  29  30
HETATM   30  O   UNL     1      -8.530  13.923  67.574  1.00  0.00    -0.171 OA 
BRANCH  30  31
HETATM   31  C   UNL     1      -9.082  14.820  68.516  1.00  0.00    -0.187 C  
HETATM   32  O   UNL     1     -10.183  14.217  69.176  1.00  0.00    -0.193 OA 
HETATM   33  C   UNL     1     -10.738  15.103  70.137  1.00  0.00    -0.221 C  
HETATM   34  H   UNL     1      -8.775  17.440  66.562  1.00  0.00     0.000 HD 
HETATM   35  C   UNL     1     -11.369  16.330  69.429  1.00  0.00    -0.284 C  
HETATM   36  O   UNL     1     -12.376  15.921  68.536  1.00  0.00    -0.371 OA 
HETATM   37  C   UNL     1     -10.256  17.068  68.657  1.00  0.00    -0.321 C  
HETATM   38  O   UNL     1      -8.485  16.677  67.046  1.00  0.00    -0.178 OA 
HETATM   39  H   UNL     1     -12.762  16.673  68.102  1.00  0.00     0.000 HD 
HETATM   40  O   UNL     1     -10.771  18.131  67.894  1.00  0.00    -0.396 OA 
HETATM   41  C   UNL     1      -9.556  16.065  67.724  1.00  0.00    -0.219 C  
HETATM   42  H   UNL     1     -10.085  18.586  67.419  1.00  0.00     0.000 HD 
BRANCH  33  43
HETATM   43  C   UNL     1     -11.768  14.318  70.964  1.00  0.00    -0.140 C  
HETATM   44  O   UNL     1     -12.762  15.165  71.477  1.00  0.00    -0.308 OA 
HETATM   45  H   UNL     1     -13.398  14.680  71.988  1.00  0.00     0.000 HD 
ENDBRANCH  33  43
ENDBRANCH  30  31
ENDBRANCH  29  30
BRANCH  29  46
HETATM   46  C   UNL     1      -6.235  13.021  67.849  1.00  0.00    -0.134 C  
HETATM   47  O   UNL     1      -5.866  12.440  66.620  1.00  0.00    -0.492 OA 
HETATM   48  H   UNL     1      -4.936  12.544  66.460  1.00  0.00     0.000 HD 
BRANCH  46  49
HETATM   49  C   UNL     1      -5.317  12.569  69.009  1.00  0.00    -0.067 C  
HETATM   50  H   UNL     1      -5.239  12.758  70.953  1.00  0.00     0.000 HD 
HETATM   51  O   UNL     1      -5.803  13.036  70.240  1.00  0.00    -0.147 OA 
ENDBRANCH  46  49
ENDBRANCH  29  46
ENDBRANCH  26  29
ENDBRANCH  23  26
ENDBRANCH  21  23
ENDBRANCH  20  21
ENDBRANCH  19  20
ENDBRANCH  18  19
ENDBRANCH  16  18
ENDBRANCH  13  16
ENDBRANCH  10  13
ENDBRANCH   7  10
ENDBRANCH   4   7
ENDBRANCH   2   4
TORSDOF 17
ENDMDL
MODEL      304
REMARK 921   NORMALIZED FREE ENERGY PREDICTED BY IDOCK:   -3.65 KCAL/MOL
REMARK 922        TOTAL FREE ENERGY PREDICTED BY IDOCK:  -10.73 KCAL/MOL
REMARK 923 INTER-LIGAND FREE ENERGY PREDICTED BY IDOCK:   -9.45 KCAL/MOL
REMARK 924 INTRA-LIGAND FREE ENERGY PREDICTED BY IDOCK:   -1.27 KCAL/MOL
REMARK 927      BINDING AFFINITY PREDICTED BY RF-SCORE:    0.00 PKD
ROOT
HETATM    1  O   UNL     1     -12.178  12.823  70.917  1.00  0.00    -0.420 OA 
HETATM    2  C   UNL     1     -12.480  12.521  69.582  1.00  0.00     0.188 C  
HETATM    3  H   UNL     1     -12.581  12.180  71.489  1.00  0.00     0.000 HD 
ENDROOT
BRANCH   2   4
HETATM    4  C   UNL     1     -11.828  13.562  68.656  1.00  0.00    -0.369 C  
HETATM    5  O   UNL     1     -10.670  14.070  69.271  1.00  0.00    -0.359 OA 
HETATM    6  H   UNL     1     -10.267  14.712  68.699  1.00  0.00     0.000 HD 
BRANCH   4   7
HETATM    7  C   UNL     1     -11.455  12.947  67.281  1.00  0.00    -0.336 C  
HETATM    8  H   UNL     1     -11.917  11.358  66.260  1.00  0.00     0.000 HD 
HETATM    9  O   UNL     1     -12.145  11.734  67.102  1.00  0.00    -0.592 OA 
BRANCH   7  10
HETATM   10  C   UNL     1     -11.798  13.902  66.106  1.00  0.00    -0.400 C  
HETATM   11  H   UNL     1     -13.395  14.433  65.160  1.00  0.00     0.000 HD 
HETATM   12  O   UNL     1     -13.185  13.848  65.879  1.00  0.00    -0.419 OA 
BRANCH  10  13
HETATM   13  C   UNL     1     -11.058  13.549  64.786  1.00  0.00    -0.359 C  
HETATM   14  H   UNL     1      -9.614  12.373  64.235  1.00  0.00     0.000 HD 
HETATM   15  O   UNL     1     -10.066  12.589  65.043  1.00  0.00    -0.279 OA 
BRANCH  13  16
HETATM   16  C   UNL     1     -11.971  12.999  63.716  1.00  0.00    -0.518 C  
HETATM   17  O   UNL     1     -12.556  13.765  62.966  1.00  0.00    -0.721 OA 
BRANCH  16  18
HETATM   18  O   UNL     1     -12.162  11.671  63.578  1.00  0.00    -0.443 OA 
BRANCH  18  19
HETATM   19 CA   UNL     1     -10.419  10.149  64.288  1.00  0.00    -0.334 Ca 
BRANCH  19  20
HETATM   20  O   UNL     1      -8.677   8.628  64.997  1.00  0.00    -0.179 OA 
BRANCH  20  21
HETATM   21  C   UNL     1      -8.616   8.636  66.340  1.00  0.00    -0.119 C  
HETATM   22  O   UNL     1      -8.156   9.625  66.884  1.00  0.00    -0.112 OA 
BRANCH  21  23
HETATM   23  C   UNL     1      -8.937   7.406  67.160  1.00  0.00    -0.126 C  
HETATM   24  H   UNL     1      -9.095   5.511  66.828  1.00  0.00     0.000 HD 
HETATM   25  O   UNL     1      -8.893   6.284  66.313  1.00  0.00    -0.139 OA 
BRANCH  23  26
HETATM   26  C   UNL     1     -10.319   7.447  67.880  1.00  0.00    -0.204 C  
HETATM   27  H   UNL     1     -11.951   6.400  67.872  1.00  0.00     0.000 HD 
HETATM   28  O   UNL     1     -11.109   6.375  67.433  1.00  0.00    -0.363 OA 
BRANCH  26  29
HETATM   29  C   UNL     1     -10.313   7.478  69.447  1.00  0.00    -0.213 C  
BRANCH  29  30
HETATM   30  O   UNL     1     -10.029   6.153  69.874  1.00  0.00    -0.163 OA 
BRANCH  30  31
HETATM   31  C   UNL     1      -9.949   5.960  71.272  1.00  0.00    -0.187 C  
HETATM   32  O   UNL     1      -9.263   7.044  71.875  1.00  0.00    -0.141 OA 
HETATM   33  C   UNL     1      -9.189   6.871  73.282  1.00  0.00    -0.138 C  
HETATM   34  H   UNL     1      -9.338   2.743  71.037  1.00  0.00     0.000 HD 
HETATM   35  C   UNL     1      -8.301   5.645  73.622  1.00  0.00    -0.111 C  
HETATM   36  O   UNL     1      -7.004   5.816  73.105  1.00  0.00    -0.081 OA 
HETATM   37  C   UNL     1      -8.949   4.391  73.000  1.00  0.00    -0.116 C  
HETATM   38  O   UNL     1      -9.818   3.550  70.898  1.00  0.00    -0.171 OA 
HETATM   39  H   UNL     1      -6.461   5.065  73.314  1.00  0.00     0.000 HD 
HETATM   40  O   UNL     1      -8.142   3.252  73.169  1.00  0.00    -0.071 OA 
HETATM   41  C   UNL     1      -9.166   4.643  71.499  1.00  0.00    -0.139 C  
HETATM   42  H   UNL     1      -8.541   2.479  72.786  1.00  0.00     0.000 HD 
BRANCH  33  43
HETATM   43  C   UNL     1      -8.640   8.171  73.891  1.00  0.00    -0.222 C  
HETATM   44  O   UNL     1      -7.676   8.757  73.058  1.00  0.00    -0.376 OA 
HETATM   45  H   UNL     1      -7.338   9.560  73.434  1.00  0.00     0.000 HD 
ENDBRANCH  33  43
ENDBRANCH  30  31
ENDBRANCH  29  30
BRANCH  29  46
HETATM   46  C   UNL     1     -11.605   8.052  70.128  1.00  0.00     0.086 C  
HETATM   47  O   UNL     1     -11.288   9.113  70.998  1.00  0.00    -0.267 OA 
HETATM   48  H   UNL     1     -12.070   9.461  71.410  1.00  0.00     0.000 HD 
BRANCH  46  49
HETATM   49  C   UNL     1     -12.516   6.998  70.798  1.00  0.00    -0.203 C  
HETATM   50  H   UNL     1     -13.901   6.946  72.177  1.00  0.00     0.000 HD 
HETATM   51  O   UNL     1     -13.341   7.594  71.765  1.00  0.00    -0.336 OA 
ENDBRANCH  46  49
ENDBRANCH  29  46
ENDBRANCH  26  29
ENDBRANCH  23  26
ENDBRANCH  21  23
ENDBRANCH  20  21
ENDBRANCH  19  20
ENDBRANCH  18  19
ENDBRANCH  16  18
ENDBRANCH  13  16
ENDBRANCH  10  13
ENDBRANCH   7  10
ENDBRANCH   4   7
ENDBRANCH   2   4
TORSDOF 17
ENDMDL
MODEL      305
REMARK 921   NORMALIZED FREE ENERGY PREDICTED BY IDOCK:   -3.65 KCAL/MOL
REMARK 922        TOTAL FREE ENERGY PREDICTED BY IDOCK:  -10.73 KCAL/MOL
REMARK 923 INTER-LIGAND FREE ENERGY PREDICTED BY IDOCK:   -8.75 KCAL/MOL
REMARK 924 INTRA-LIGAND FREE ENERGY PREDICTED BY IDOCK:   -1.98 KCAL/MOL
REMARK 927      BINDING AFFINITY PREDICTED BY RF-SCORE:    0.00 PKD
ROOT
HETATM    1  O   UNL     1      -8.071   7.532  64.703  1.00  0.00    -0.157 OA 
HETATM    2  C   UNL     1      -9.040   8.327  65.331  1.00  0.00     0.064 C  
HETATM    3  H   UNL     1      -7.769   7.962  63.912  1.00  0.00     0.000 HD 
ENDROOT
BRANCH   2   4
HETATM    4  C   UNL     1      -9.530   7.631  66.612  1.00  0.00    -0.198 C  
HETATM    5  O   UNL     1      -8.686   6.544  66.902  1.00  0.00    -0.112 OA 
HETATM    6  H   UNL     1      -8.989   6.115  67.694  1.00  0.00     0.000 HD 
BRANCH   4   7
HETATM    7  C   UNL     1      -9.549   8.606  67.819  1.00  0.00    -0.148 C  
HETATM    8  H   UNL     1     -10.420  10.282  68.281  1.00  0.00     0.000 HD 
HETATM    9  O   UNL     1     -10.409   9.685  67.542  1.00  0.00    -0.209 OA 
BRANCH   7  10
HETATM   10  C   UNL     1     -10.020   7.907  69.122  1.00  0.00    -0.184 C  
HETATM   11  H   UNL     1     -11.335   8.251  70.494  1.00  0.00     0.000 HD 
HETATM   12  O   UNL     1     -11.047   8.680  69.696  1.00  0.00    -0.154 OA 
BRANCH  10  13
HETATM   13  C   UNL     1      -8.886   7.720  70.168  1.00  0.00    -0.145 C  
HETATM   14  H   UNL     1      -7.009   7.223  70.157  1.00  0.00     0.000 HD 
HETATM   15  O   UNL     1      -7.702   7.337  69.518  1.00  0.00    -0.107 OA 
BRANCH  13  16
HETATM   16  C   UNL     1      -8.595   8.969  70.967  1.00  0.00    -0.210 C  
HETATM   17  O   UNL     1      -8.574   8.916  72.187  1.00  0.00    -0.381 OA 
BRANCH  16  18
HETATM   18  O   UNL     1      -8.366  10.149  70.356  1.00  0.00    -0.069 OA 
BRANCH  18  19
HETATM   19 CA   UNL     1     -10.188  11.254  69.208  1.00  0.00    -0.186 Ca 
BRANCH  19  20
HETATM   20  O   UNL     1     -12.010  12.358  68.061  1.00  0.00    -0.371 OA 
BRANCH  20  21
HETATM   21  C   UNL     1     -11.629  13.609  67.749  1.00  0.00    -0.338 C  
HETATM   22  O   UNL     1     -12.178  14.155  66.807  1.00  0.00    -0.447 OA 
BRANCH  21  23
HETATM   23  C   UNL     1     -10.443  14.270  68.416  1.00  0.00    -0.249 C  
HETATM   24  H   UNL     1      -9.977  16.057  68.978  1.00  0.00     0.000 HD 
HETATM   25  O   UNL     1     -10.722  15.642  68.559  1.00  0.00    -0.245 OA 
BRANCH  23  26
HETATM   26  C   UNL     1      -9.093  14.103  67.655  1.00  0.00    -0.194 C  
HETATM   27  H   UNL     1      -8.524  13.571  65.879  1.00  0.00     0.000 HD 
HETATM   28  O   UNL     1      -9.347  13.673  66.343  1.00  0.00    -0.256 OA 
BRANCH  26  29
HETATM   29  C   UNL     1      -8.125  15.337  67.626  1.00  0.00    -0.158 C  
BRANCH  29  30
HETATM   30  O   UNL     1      -8.088  15.786  66.279  1.00  0.00    -0.197 OA 
BRANCH  30  31
HETATM   31  C   UNL     1      -7.950  17.181  66.099  1.00  0.00    -0.262 C  
HETATM   32  O   UNL     1      -7.017  17.703  67.030  1.00  0.00    -0.164 OA 
HETATM   33  C   UNL     1      -6.858  19.102  66.850  1.00  0.00    -0.198 C  
HETATM   34  H   UNL     1     -11.155  17.674  65.587  1.00  0.00     0.000 HD 
HETATM   35  C   UNL     1      -8.175  19.839  67.205  1.00  0.00    -0.306 C  
HETATM   36  O   UNL     1      -8.542  19.580  68.539  1.00  0.00    -0.348 OA 
HETATM   37  C   UNL     1      -9.282  19.337  66.254  1.00  0.00    -0.331 C  
HETATM   38  O   UNL     1     -10.299  17.292  65.439  1.00  0.00    -0.626 OA 
HETATM   39  H   UNL     1      -9.349  20.031  68.756  1.00  0.00     0.000 HD 
HETATM   40  O   UNL     1     -10.537  19.877  66.588  1.00  0.00    -0.468 OA 
HETATM   41  C   UNL     1      -9.348  17.804  66.342  1.00  0.00    -0.249 C  
HETATM   42  H   UNL     1     -11.218  19.568  66.002  1.00  0.00     0.000 HD 
BRANCH  33  43
HETATM   43  C   UNL     1      -5.682  19.561  67.727  1.00  0.00    -0.195 C  
HETATM   44  O   UNL     1      -5.844  20.892  68.139  1.00  0.00    -0.285 OA 
HETATM   45  H   UNL     1      -5.117  21.176  68.681  1.00  0.00     0.000 HD 
ENDBRANCH  33  43
ENDBRANCH  30  31
ENDBRANCH  29  30
BRANCH  29  46
HETATM   46  C   UNL     1      -6.688  15.096  68.208  1.00  0.00    -0.119 C  
HETATM   47  O   UNL     1      -5.871  14.427  67.276  1.00  0.00    -0.293 OA 
HETATM   48  H   UNL     1      -5.001  14.282  67.628  1.00  0.00     0.000 HD 
BRANCH  46  49
HETATM   49  C   UNL     1      -6.650  14.429  69.603  1.00  0.00    -0.147 C  
HETATM   50  H   UNL     1      -6.116  14.905  71.422  1.00  0.00     0.000 HD 
HETATM   51  O   UNL     1      -6.140  15.315  70.565  1.00  0.00    -0.111 OA 
ENDBRANCH  46  49
ENDBRANCH  29  46
ENDBRANCH  26  29
ENDBRANCH  23  26
ENDBRANCH  21  23
ENDBRANCH  20  21
ENDBRANCH  19  20
ENDBRANCH  18  19
ENDBRANCH  16  18
ENDBRANCH  13  16
ENDBRANCH  10  13
ENDBRANCH   7  10
ENDBRANCH   4   7
ENDBRANCH   2   4
TORSDOF 17
ENDMDL
MODEL      306
REMARK 921   NORMALIZED FREE ENERGY PREDICTED BY IDOCK:   -3.65 KCAL/MOL
REMARK 922        TOTAL FREE ENERGY PREDICTED BY IDOCK:  -10.71 KCAL/MOL
REMARK 923 INTER-LIGAND FREE ENERGY PREDICTED BY IDOCK:   -7.37 KCAL/MOL
REMARK 924 INTRA-LIGAND FREE ENERGY PREDICTED BY IDOCK:   -3.34 KCAL/MOL
REMARK 927      BINDING AFFINITY PREDICTED BY RF-SCORE:    0.00 PKD
ROOT
HETATM    1  O   UNL     1      -7.002  12.437  69.602  1.00  0.00    -0.337 OA 
HETATM    2  C   UNL     1      -7.089  11.460  68.601  1.00  0.00    -0.095 C  
HETATM    3  H   UNL     1      -6.090  12.610  69.803  1.00  0.00     0.000 HD 
ENDROOT
BRANCH   2   4
HETATM    4  C   UNL     1      -8.566  11.181  68.276  1.00  0.00    -0.146 C  
HETATM    5  O   UNL     1      -9.228  10.766  69.445  1.00  0.00    -0.385 OA 
HETATM    6  H   UNL     1     -10.141  10.593  69.244  1.00  0.00     0.000 HD 
BRANCH   4   7
HETATM    7  C   UNL     1      -9.271  12.438  67.702  1.00  0.00    -0.185 C  
HETATM    8  H   UNL     1      -8.790  13.954  66.583  1.00  0.00     0.000 HD 
HETATM    9  O   UNL     1      -8.358  13.184  66.934  1.00  0.00    -0.129 OA 
BRANCH   7  10
HETATM   10  C   UNL     1     -10.490  12.066  66.816  1.00  0.00    -0.214 C  
HETATM   11  H   UNL     1     -11.158  12.573  65.076  1.00  0.00     0.000 HD 
HETATM   12  O   UNL     1     -10.411  12.801  65.619  1.00  0.00    -0.268 OA 
BRANCH  10  13
HETATM   13  C   UNL     1     -11.858  12.354  67.494  1.00  0.00    -0.284 C  
HETATM   14  H   UNL     1     -13.015  11.484  68.789  1.00  0.00     0.000 HD 
HETATM   15  O   UNL     1     -12.178  11.308  68.375  1.00  0.00    -0.604 OA 
BRANCH  13  16
HETATM   16  C   UNL     1     -11.880  13.644  68.278  1.00  0.00    -0.369 C  
HETATM   17  O   UNL     1     -11.916  14.712  67.687  1.00  0.00    -0.362 OA 
BRANCH  16  18
HETATM   18  O   UNL     1     -11.848  13.641  69.626  1.00  0.00    -0.297 OA 
BRANCH  18  19
HETATM   19 CA   UNL     1     -11.419  11.563  70.790  1.00  0.00    -0.298 Ca 
BRANCH  19  20
HETATM   20  O   UNL     1     -10.989   9.485  71.953  1.00  0.00    -0.261 OA 
BRANCH  20  21
HETATM   21  C   UNL     1     -11.416   8.465  71.188  1.00  0.00    -0.274 C  
HETATM   22  O   UNL     1     -12.601   8.181  71.225  1.00  0.00    -0.301 OA 
BRANCH  21  23
HETATM   23  C   UNL     1     -10.452   7.576  70.434  1.00  0.00    -0.223 C  
HETATM   24  H   UNL     1     -10.006   7.256  68.584  1.00  0.00     0.000 HD 
HETATM   25  O   UNL     1     -10.611   7.814  69.057  1.00  0.00    -0.216 OA 
BRANCH  23  26
HETATM   26  C   UNL     1     -10.623   6.051  70.710  1.00  0.00    -0.255 C  
HETATM   27  H   UNL     1     -11.093   4.472  69.688  1.00  0.00     0.000 HD 
HETATM   28  O   UNL     1     -10.989   5.401  69.520  1.00  0.00    -0.212 OA 
BRANCH  26  29
HETATM   29  C   UNL     1      -9.416   5.299  71.370  1.00  0.00    -0.151 C  
BRANCH  29  30
HETATM   30  O   UNL     1      -8.335   5.394  70.454  1.00  0.00    -0.108 OA 
BRANCH  30  31
HETATM   31  C   UNL     1      -7.214   6.132  70.899  1.00  0.00    -0.074 C  
HETATM   32  O   UNL     1      -7.578   6.959  71.991  1.00  0.00    -0.091 OA 
HETATM   33  C   UNL     1      -6.457   7.695  72.458  1.00  0.00    -0.060 C  
HETATM   34  H   UNL     1      -6.106   6.739  67.869  1.00  0.00     0.000 HD 
HETATM   35  C   UNL     1      -5.993   8.705  71.377  1.00  0.00    -0.047 C  
HETATM   36  O   UNL     1      -7.033   9.596  71.055  1.00  0.00    -0.277 OA 
HETATM   37  C   UNL     1      -5.579   7.912  70.120  1.00  0.00    -0.023 C  
HETATM   38  O   UNL     1      -6.393   6.206  68.600  1.00  0.00    -0.037 OA 
HETATM   39  H   UNL     1      -6.749  10.214  70.393  1.00  0.00     0.000 HD 
HETATM   40  O   UNL     1      -5.252   8.766  69.051  1.00  0.00    -0.035 OA 
HETATM   41  C   UNL     1      -6.747   7.002  69.705  1.00  0.00    -0.049 C  
HETATM   42  H   UNL     1      -4.997   8.278  68.278  1.00  0.00     0.000 HD 
BRANCH  33  43
HETATM   43  C   UNL     1      -6.860   8.391  73.767  1.00  0.00    -0.103 C  
HETATM   44  O   UNL     1      -7.728   7.591  74.524  1.00  0.00    -0.133 OA 
HETATM   45  H   UNL     1      -7.976   8.021  75.333  1.00  0.00     0.000 HD 
ENDBRANCH  33  43
ENDBRANCH  30  31
ENDBRANCH  29  30
BRANCH  29  46
HETATM   46  C   UNL     1      -9.688   3.818  71.810  1.00  0.00    -0.175 C  
HETATM   47  O   UNL     1     -10.760   3.750  72.721  1.00  0.00    -0.149 OA 
HETATM   48  H   UNL     1     -10.925   2.854  72.987  1.00  0.00     0.000 HD 
BRANCH  46  49
HETATM   49  C   UNL     1      -8.445   3.045  72.310  1.00  0.00    -0.074 C  
HETATM   50  H   UNL     1      -7.118   3.203  73.736  1.00  0.00     0.000 HD 
HETATM   51  O   UNL     1      -7.882   3.678  73.429  1.00  0.00    -0.072 OA 
ENDBRANCH  46  49
ENDBRANCH  29  46
ENDBRANCH  26  29
ENDBRANCH  23  26
ENDBRANCH  21  23
ENDBRANCH  20  21
ENDBRANCH  19  20
ENDBRANCH  18  19
ENDBRANCH  16  18
ENDBRANCH  13  16
ENDBRANCH  10  13
ENDBRANCH   7  10
ENDBRANCH   4   7
ENDBRANCH   2   4
TORSDOF 17
ENDMDL
MODEL      307
REMARK 921   NORMALIZED FREE ENERGY PREDICTED BY IDOCK:   -3.64 KCAL/MOL
REMARK 922        TOTAL FREE ENERGY PREDICTED BY IDOCK:  -10.70 KCAL/MOL
REMARK 923 INTER-LIGAND FREE ENERGY PREDICTED BY IDOCK:   -8.16 KCAL/MOL
REMARK 924 INTRA-LIGAND FREE ENERGY PREDICTED BY IDOCK:   -2.54 KCAL/MOL
REMARK 927      BINDING AFFINITY PREDICTED BY RF-SCORE:    0.00 PKD
ROOT
HETATM    1  O   UNL     1      -9.492  18.016  65.820  1.00  0.00    -0.495 OA 
HETATM    2  C   UNL     1     -10.337  18.471  66.843  1.00  0.00    -0.397 C  
HETATM    3  H   UNL     1      -9.735  18.427  64.999  1.00  0.00     0.000 HD 
ENDROOT
BRANCH   2   4
HETATM    4  C   UNL     1      -9.943  17.805  68.173  1.00  0.00    -0.342 C  
HETATM    5  O   UNL     1     -10.542  18.503  69.236  1.00  0.00    -0.327 OA 
HETATM    6  H   UNL     1     -10.299  18.092  70.058  1.00  0.00     0.000 HD 
BRANCH   4   7
HETATM    7  C   UNL     1     -10.382  16.318  68.218  1.00  0.00    -0.272 C  
HETATM    8  H   UNL     1     -11.593  15.160  67.231  1.00  0.00     0.000 HD 
HETATM    9  O   UNL     1     -11.324  16.071  67.203  1.00  0.00    -0.093 OA 
BRANCH   7  10
HETATM   10  C   UNL     1      -9.180  15.353  68.036  1.00  0.00    -0.184 C  
HETATM   11  H   UNL     1      -8.677  13.610  68.698  1.00  0.00     0.000 HD 
HETATM   12  O   UNL     1      -9.413  14.200  68.810  1.00  0.00    -0.186 OA 
BRANCH  10  13
HETATM   13  C   UNL     1      -7.819  15.974  68.457  1.00  0.00    -0.160 C  
HETATM   14  H   UNL     1      -6.471  15.657  69.818  1.00  0.00     0.000 HD 
HETATM   15  O   UNL     1      -7.303  15.277  69.562  1.00  0.00    -0.190 OA 
BRANCH  13  16
HETATM   16  C   UNL     1      -6.780  15.940  67.361  1.00  0.00    -0.194 C  
HETATM   17  O   UNL     1      -6.817  16.771  66.466  1.00  0.00    -0.220 OA 
BRANCH  16  18
HETATM   18  O   UNL     1      -5.815  14.999  67.345  1.00  0.00    -0.340 OA 
BRANCH  18  19
HETATM   19 CA   UNL     1      -6.446  12.664  67.266  1.00  0.00    -0.086 Ca 
BRANCH  19  20
HETATM   20  O   UNL     1      -7.078  10.330  67.188  1.00  0.00    -0.086 OA 
BRANCH  20  21
HETATM   21  C   UNL     1      -8.416  10.247  67.097  1.00  0.00    -0.125 C  
HETATM   22  O   UNL     1      -9.078  11.152  67.577  1.00  0.00    -0.144 OA 
BRANCH  21  23
HETATM   23  C   UNL     1      -9.105   9.005  66.578  1.00  0.00    -0.163 C  
HETATM   24  H   UNL     1     -10.281   8.572  65.110  1.00  0.00     0.000 HD 
HETATM   25  O   UNL     1      -9.849   9.353  65.436  1.00  0.00    -0.270 OA 
BRANCH  23  26
HETATM   26  C   UNL     1     -10.047   8.307  67.605  1.00  0.00    -0.209 C  
HETATM   27  H   UNL     1     -11.468   6.989  67.555  1.00  0.00     0.000 HD 
HETATM   28  O   UNL     1     -10.894   7.414  66.928  1.00  0.00    -0.357 OA 
BRANCH  26  29
HETATM   29  C   UNL     1      -9.374   7.576  68.818  1.00  0.00    -0.147 C  
BRANCH  29  30
HETATM   30  O   UNL     1      -8.950   8.593  69.714  1.00  0.00    -0.140 OA 
BRANCH  30  31
HETATM   31  C   UNL     1      -9.348   8.433  71.061  1.00  0.00    -0.171 C  
HETATM   32  O   UNL     1      -8.988   7.142  71.525  1.00  0.00    -0.134 OA 
HETATM   33  C   UNL     1      -9.369   6.973  72.882  1.00  0.00    -0.140 C  
HETATM   34  H   UNL     1     -12.218   9.972  70.649  1.00  0.00     0.000 HD 
HETATM   35  C   UNL     1     -10.914   6.986  73.008  1.00  0.00    -0.292 C  
HETATM   36  O   UNL     1     -11.482   5.957  72.234  1.00  0.00    -0.293 OA 
HETATM   37  C   UNL     1     -11.429   8.354  72.514  1.00  0.00    -0.352 C  
HETATM   38  O   UNL     1     -11.274   9.869  70.627  1.00  0.00    -0.292 OA 
HETATM   39  H   UNL     1     -12.428   5.966  72.311  1.00  0.00     0.000 HD 
HETATM   40  O   UNL     1     -12.834   8.403  72.491  1.00  0.00    -0.541 OA 
HETATM   41  C   UNL     1     -10.888   8.600  71.096  1.00  0.00    -0.259 C  
HETATM   42  H   UNL     1     -13.150   9.246  72.187  1.00  0.00     0.000 HD 
BRANCH  33  43
HETATM   43  C   UNL     1      -8.757   5.655  73.384  1.00  0.00    -0.117 C  
HETATM   44  O   UNL     1      -8.208   4.913  72.328  1.00  0.00    -0.115 OA 
HETATM   45  H   UNL     1      -7.830   4.100  72.639  1.00  0.00     0.000 HD 
ENDBRANCH  33  43
ENDBRANCH  30  31
ENDBRANCH  29  30
BRANCH  29  46
HETATM   46  C   UNL     1      -8.214   6.581  68.463  1.00  0.00    -0.121 C  
HETATM   47  O   UNL     1      -8.347   5.374  69.177  1.00  0.00    -0.095 OA 
HETATM   48  H   UNL     1      -7.646   4.772  68.962  1.00  0.00     0.000 HD 
BRANCH  46  49
HETATM   49  C   UNL     1      -6.789   7.171  68.573  1.00  0.00    -0.076 C  
HETATM   50  H   UNL     1      -5.259   7.491  67.399  1.00  0.00     0.000 HD 
HETATM   51  O   UNL     1      -6.135   7.129  67.331  1.00  0.00    -0.034 OA 
ENDBRANCH  46  49
ENDBRANCH  29  46
ENDBRANCH  26  29
ENDBRANCH  23  26
ENDBRANCH  21  23
ENDBRANCH  20  21
ENDBRANCH  19  20
ENDBRANCH  18  19
ENDBRANCH  16  18
ENDBRANCH  13  16
ENDBRANCH  10  13
ENDBRANCH   7  10
ENDBRANCH   4   7
ENDBRANCH   2   4
TORSDOF 17
ENDMDL
MODEL      308
REMARK 921   NORMALIZED FREE ENERGY PREDICTED BY IDOCK:   -3.63 KCAL/MOL
REMARK 922        TOTAL FREE ENERGY PREDICTED BY IDOCK:  -10.69 KCAL/MOL
REMARK 923 INTER-LIGAND FREE ENERGY PREDICTED BY IDOCK:   -7.27 KCAL/MOL
REMARK 924 INTRA-LIGAND FREE ENERGY PREDICTED BY IDOCK:   -3.41 KCAL/MOL
REMARK 927      BINDING AFFINITY PREDICTED BY RF-SCORE:    0.00 PKD
ROOT
HETATM    1  O   UNL     1      -6.808  12.543  68.950  1.00  0.00    -0.092 OA 
HETATM    2  C   UNL     1      -7.022  11.327  68.287  1.00  0.00    -0.071 C  
HETATM    3  H   UNL     1      -5.875  12.715  69.009  1.00  0.00     0.000 HD 
ENDROOT
BRANCH   2   4
HETATM    4  C   UNL     1      -8.532  11.048  68.192  1.00  0.00    -0.135 C  
HETATM    5  O   UNL     1      -9.047  10.837  69.483  1.00  0.00    -0.398 OA 
HETATM    6  H   UNL     1      -9.979  10.664  69.424  1.00  0.00     0.000 HD 
BRANCH   4   7
HETATM    7  C   UNL     1      -9.288  12.224  67.519  1.00  0.00    -0.183 C  
HETATM    8  H   UNL     1      -8.918  13.561  66.157  1.00  0.00     0.000 HD 
HETATM    9  O   UNL     1      -8.455  12.840  66.568  1.00  0.00    -0.020 OA 
BRANCH   7  10
HETATM   10  C   UNL     1     -10.590  11.752  66.820  1.00  0.00    -0.238 C  
HETATM   11  H   UNL     1     -11.491  12.120  65.152  1.00  0.00     0.000 HD 
HETATM   12  O   UNL     1     -10.693  12.409  65.580  1.00  0.00    -0.266 OA 
BRANCH  10  13
HETATM   13  C   UNL     1     -11.874  12.036  67.648  1.00  0.00    -0.224 C  
HETATM   14  H   UNL     1     -12.897  11.145  69.038  1.00  0.00     0.000 HD 
HETATM   15  O   UNL     1     -12.112  10.972  68.532  1.00  0.00    -0.573 OA 
BRANCH  13  16
HETATM   16  C   UNL     1     -11.795  13.307  68.461  1.00  0.00    -0.349 C  
HETATM   17  O   UNL     1     -11.922  14.388  67.909  1.00  0.00    -0.353 OA 
BRANCH  16  18
HETATM   18  O   UNL     1     -11.575  13.270  69.791  1.00  0.00    -0.276 OA 
BRANCH  18  19
HETATM   19 CA   UNL     1     -10.896  11.185  70.816  1.00  0.00    -0.425 Ca 
BRANCH  19  20
HETATM   20  O   UNL     1     -10.217   9.100  71.840  1.00  0.00    -0.332 OA 
BRANCH  20  21
HETATM   21  C   UNL     1     -10.660   8.083  71.082  1.00  0.00    -0.203 C  
HETATM   22  O   UNL     1     -11.824   7.742  71.207  1.00  0.00    -0.286 OA 
BRANCH  21  23
HETATM   23  C   UNL     1      -9.723   7.259  70.227  1.00  0.00    -0.175 C  
HETATM   24  H   UNL     1      -8.707   7.535  68.608  1.00  0.00     0.000 HD 
HETATM   25  O   UNL     1      -9.296   8.052  69.145  1.00  0.00    -0.151 OA 
BRANCH  23  26
HETATM   26  C   UNL     1     -10.337   5.937  69.676  1.00  0.00    -0.247 C  
HETATM   27  H   UNL     1     -11.677   5.435  68.367  1.00  0.00     0.000 HD 
HETATM   28  O   UNL     1     -11.303   6.241  68.703  1.00  0.00    -0.337 OA 
BRANCH  26  29
HETATM   29  C   UNL     1      -9.344   4.861  69.114  1.00  0.00    -0.128 C  
BRANCH  29  30
HETATM   30  O   UNL     1      -9.776   4.568  67.793  1.00  0.00    -0.161 OA 
BRANCH  30  31
HETATM   31  C   UNL     1      -8.783   4.642  66.791  1.00  0.00    -0.111 C  
HETATM   32  O   UNL     1      -7.900   5.719  67.057  1.00  0.00    -0.100 OA 
HETATM   33  C   UNL     1      -6.888   5.795  66.065  1.00  0.00    -0.058 C  
HETATM   34  H   UNL     1     -10.864   3.975  64.341  1.00  0.00     0.000 HD 
HETATM   35  C   UNL     1      -7.511   6.168  64.695  1.00  0.00    -0.085 C  
HETATM   36  O   UNL     1      -8.177   7.404  64.776  1.00  0.00    -0.219 OA 
HETATM   37  C   UNL     1      -8.511   5.062  64.301  1.00  0.00    -0.138 C  
HETATM   38  O   UNL     1     -10.414   3.830  65.164  1.00  0.00    -0.067 OA 
HETATM   39  H   UNL     1      -8.559   7.633  63.937  1.00  0.00     0.000 HD 
HETATM   40  O   UNL     1      -9.204   5.385  63.120  1.00  0.00    -0.337 OA 
HETATM   41  C   UNL     1      -9.519   4.878  65.448  1.00  0.00    -0.123 C  
HETATM   42  H   UNL     1      -9.819   4.703  62.877  1.00  0.00     0.000 HD 
BRANCH  33  43
HETATM   43  C   UNL     1      -5.847   6.826  66.529  1.00  0.00    -0.025 C  
HETATM   44  O   UNL     1      -6.460   7.925  67.150  1.00  0.00    -0.053 OA 
HETATM   45  H   UNL     1      -5.817   8.562  67.437  1.00  0.00     0.000 HD 
ENDBRANCH  33  43
ENDBRANCH  30  31
ENDBRANCH  29  30
BRANCH  29  46
HETATM   46  C   UNL     1      -9.174   3.564  69.981  1.00  0.00    -0.156 C  
HETATM   47  O   UNL     1      -8.913   3.887  71.327  1.00  0.00    -0.098 OA 
HETATM   48  H   UNL     1      -8.810   3.103  71.852  1.00  0.00     0.000 HD 
BRANCH  46  49
HETATM   49  C   UNL     1      -8.169   2.530  69.422  1.00  0.00    -0.044 C  
HETATM   50  H   UNL     1      -6.245   2.405  69.106  1.00  0.00     0.000 HD 
HETATM   51  O   UNL     1      -6.862   3.041  69.450  1.00  0.00    -0.036 OA 
ENDBRANCH  46  49
ENDBRANCH  29  46
ENDBRANCH  26  29
ENDBRANCH  23  26
ENDBRANCH  21  23
ENDBRANCH  20  21
ENDBRANCH  19  20
ENDBRANCH  18  19
ENDBRANCH  16  18
ENDBRANCH  13  16
ENDBRANCH  10  13
ENDBRANCH   7  10
ENDBRANCH   4   7
ENDBRANCH   2   4
TORSDOF 17
ENDMDL
MODEL      309
REMARK 921   NORMALIZED FREE ENERGY PREDICTED BY IDOCK:   -3.63 KCAL/MOL
REMARK 922        TOTAL FREE ENERGY PREDICTED BY IDOCK:  -10.67 KCAL/MOL
REMARK 923 INTER-LIGAND FREE ENERGY PREDICTED BY IDOCK:   -7.22 KCAL/MOL
REMARK 924 INTRA-LIGAND FREE ENERGY PREDICTED BY IDOCK:   -3.45 KCAL/MOL
REMARK 927      BINDING AFFINITY PREDICTED BY RF-SCORE:    0.00 PKD
ROOT
HETATM    1  O   UNL     1      -7.542   8.573  69.590  1.00  0.00    -0.083 OA 
HETATM    2  C   UNL     1      -7.413   9.969  69.551  1.00  0.00    -0.123 C  
HETATM    3  H   UNL     1      -6.833   8.201  70.101  1.00  0.00     0.000 HD 
ENDROOT
BRANCH   2   4
HETATM    4  C   UNL     1      -8.560  10.572  68.723  1.00  0.00    -0.146 C  
HETATM    5  O   UNL     1      -8.287  10.399  67.355  1.00  0.00    -0.120 OA 
HETATM    6  H   UNL     1      -8.996  10.771  66.843  1.00  0.00     0.000 HD 
BRANCH   4   7
HETATM    7  C   UNL     1      -9.921   9.908  69.066  1.00  0.00    -0.187 C  
HETATM    8  H   UNL     1     -10.879   9.375  70.671  1.00  0.00     0.000 HD 
HETATM    9  O   UNL     1     -10.047   9.781  70.461  1.00  0.00    -0.270 OA 
BRANCH   7  10
HETATM   10  C   UNL     1     -11.120  10.730  68.523  1.00  0.00    -0.262 C  
HETATM   11  H   UNL     1     -12.086  10.855  66.855  1.00  0.00     0.000 HD 
HETATM   12  O   UNL     1     -11.351  10.352  67.187  1.00  0.00    -0.274 OA 
BRANCH  10  13
HETATM   13  C   UNL     1     -10.893  12.266  68.579  1.00  0.00    -0.237 C  
HETATM   14  H   UNL     1     -10.902  13.752  67.328  1.00  0.00     0.000 HD 
HETATM   15  O   UNL     1     -11.041  12.812  67.293  1.00  0.00    -0.257 OA 
BRANCH  13  16
HETATM   16  C   UNL     1     -11.853  12.981  69.500  1.00  0.00    -0.323 C  
HETATM   17  O   UNL     1     -12.388  14.016  69.132  1.00  0.00    -0.313 OA 
BRANCH  16  18
HETATM   18  O   UNL     1     -12.125  12.503  70.731  1.00  0.00    -0.332 OA 
BRANCH  18  19
HETATM   19 CA   UNL     1     -12.469  10.125  71.022  1.00  0.00    -0.252 Ca 
BRANCH  19  20
HETATM   20  O   UNL     1     -12.814   7.748  71.312  1.00  0.00    -0.303 OA 
BRANCH  20  21
HETATM   21  C   UNL     1     -11.888   7.278  72.166  1.00  0.00    -0.286 C  
HETATM   22  O   UNL     1     -11.413   8.056  72.976  1.00  0.00    -0.370 OA 
BRANCH  21  23
HETATM   23  C   UNL     1     -11.312   5.886  72.031  1.00  0.00    -0.267 C  
HETATM   24  H   UNL     1     -11.538   4.191  72.926  1.00  0.00     0.000 HD 
HETATM   25  O   UNL     1     -11.899   5.065  73.011  1.00  0.00    -0.269 OA 
BRANCH  23  26
HETATM   26  C   UNL     1      -9.761   5.808  72.165  1.00  0.00    -0.152 C  
HETATM   27  H   UNL     1      -8.483   4.938  73.335  1.00  0.00     0.000 HD 
HETATM   28  O   UNL     1      -9.428   4.985  73.254  1.00  0.00    -0.133 OA 
BRANCH  26  29
HETATM   29  C   UNL     1      -8.950   5.360  70.900  1.00  0.00    -0.138 C  
BRANCH  29  30
HETATM   30  O   UNL     1      -9.810   4.512  70.152  1.00  0.00    -0.201 OA 
BRANCH  30  31
HETATM   31  C   UNL     1      -9.690   4.600  68.747  1.00  0.00    -0.160 C  
HETATM   32  O   UNL     1      -8.352   4.344  68.355  1.00  0.00    -0.088 OA 
HETATM   33  C   UNL     1      -8.221   4.414  66.943  1.00  0.00    -0.102 C  
HETATM   34  H   UNL     1     -11.662   7.213  68.499  1.00  0.00     0.000 HD 
HETATM   35  C   UNL     1      -8.471   5.864  66.455  1.00  0.00    -0.120 C  
HETATM   36  O   UNL     1      -7.555   6.751  67.052  1.00  0.00    -0.092 OA 
HETATM   37  C   UNL     1      -9.910   6.264  66.841  1.00  0.00    -0.156 C  
HETATM   38  O   UNL     1     -11.415   6.329  68.742  1.00  0.00    -0.294 OA 
HETATM   39  H   UNL     1      -7.709   7.639  66.753  1.00  0.00     0.000 HD 
HETATM   40  O   UNL     1     -10.176   7.610  66.532  1.00  0.00    -0.442 OA 
HETATM   41  C   UNL     1     -10.093   6.043  68.352  1.00  0.00    -0.164 C  
HETATM   42  H   UNL     1     -11.062   7.855  66.769  1.00  0.00     0.000 HD 
BRANCH  33  43
HETATM   43  C   UNL     1      -6.816   3.912  66.573  1.00  0.00    -0.058 C  
HETATM   44  O   UNL     1      -6.604   3.966  65.188  1.00  0.00    -0.044 OA 
HETATM   45  H   UNL     1      -5.737   3.656  64.959  1.00  0.00     0.000 HD 
ENDBRANCH  33  43
ENDBRANCH  30  31
ENDBRANCH  29  30
BRANCH  29  46
HETATM   46  C   UNL     1      -7.558   4.691  71.178  1.00  0.00    -0.079 C  
HETATM   47  O   UNL     1      -7.610   3.876  72.326  1.00  0.00    -0.066 OA 
HETATM   48  H   UNL     1      -6.768   3.471  72.494  1.00  0.00     0.000 HD 
BRANCH  46  49
HETATM   49  C   UNL     1      -6.358   5.666  71.207  1.00  0.00    -0.036 C  
HETATM   50  H   UNL     1      -5.329   6.735  69.934  1.00  0.00     0.000 HD 
HETATM   51  O   UNL     1      -6.067   6.137  69.917  1.00  0.00    -0.024 OA 
ENDBRANCH  46  49
ENDBRANCH  29  46
ENDBRANCH  26  29
ENDBRANCH  23  26
ENDBRANCH  21  23
ENDBRANCH  20  21
ENDBRANCH  19  20
ENDBRANCH  18  19
ENDBRANCH  16  18
ENDBRANCH  13  16
ENDBRANCH  10  13
ENDBRANCH   7  10
ENDBRANCH   4   7
ENDBRANCH   2   4
TORSDOF 17
ENDMDL
MODEL      310
REMARK 921   NORMALIZED FREE ENERGY PREDICTED BY IDOCK:   -3.62 KCAL/MOL
REMARK 922        TOTAL FREE ENERGY PREDICTED BY IDOCK:  -10.67 KCAL/MOL
REMARK 923 INTER-LIGAND FREE ENERGY PREDICTED BY IDOCK:   -9.18 KCAL/MOL
REMARK 924 INTRA-LIGAND FREE ENERGY PREDICTED BY IDOCK:   -1.49 KCAL/MOL
REMARK 927      BINDING AFFINITY PREDICTED BY RF-SCORE:    0.00 PKD
ROOT
HETATM    1  O   UNL     1      -5.456  21.375  68.010  1.00  0.00    -0.375 OA 
HETATM    2  C   UNL     1      -5.513  20.352  67.053  1.00  0.00    -0.169 C  
HETATM    3  H   UNL     1      -4.897  22.076  67.697  1.00  0.00     0.000 HD 
ENDROOT
BRANCH   2   4
HETATM    4  C   UNL     1      -6.419  19.218  67.561  1.00  0.00    -0.204 C  
HETATM    5  O   UNL     1      -6.850  19.516  68.866  1.00  0.00    -0.310 OA 
HETATM    6  H   UNL     1      -7.409  18.815  69.179  1.00  0.00     0.000 HD 
BRANCH   4   7
HETATM    7  C   UNL     1      -7.653  19.019  66.642  1.00  0.00    -0.243 C  
HETATM    8  H   UNL     1      -8.002  18.906  64.733  1.00  0.00     0.000 HD 
HETATM    9  O   UNL     1      -7.246  19.027  65.295  1.00  0.00    -0.466 OA 
BRANCH   7  10
HETATM   10  C   UNL     1      -8.388  17.685  66.939  1.00  0.00    -0.236 C  
HETATM   11  H   UNL     1      -8.642  15.999  66.032  1.00  0.00     0.000 HD 
HETATM   12  O   UNL     1      -8.192  16.815  65.850  1.00  0.00    -0.446 OA 
BRANCH  10  13
HETATM   13  C   UNL     1      -9.914  17.859  67.175  1.00  0.00    -0.327 C  
HETATM   14  H   UNL     1     -11.506  18.078  66.085  1.00  0.00     0.000 HD 
HETATM   15  O   UNL     1     -10.573  17.972  65.940  1.00  0.00    -0.451 OA 
BRANCH  13  16
HETATM   16  C   UNL     1     -10.539  16.710  67.932  1.00  0.00    -0.342 C  
HETATM   17  O   UNL     1     -10.138  16.434  69.052  1.00  0.00    -0.234 OA 
BRANCH  16  18
HETATM   18  O   UNL     1     -11.528  15.973  67.387  1.00  0.00    -0.083 OA 
BRANCH  18  19
HETATM   19 CA   UNL     1     -11.784  13.663  68.060  1.00  0.00    -0.235 Ca 
BRANCH  19  20
HETATM   20  O   UNL     1     -12.040  11.352  68.731  1.00  0.00    -0.480 OA 
BRANCH  20  21
HETATM   21  C   UNL     1     -11.080  10.621  68.138  1.00  0.00    -0.285 C  
HETATM   22  O   UNL     1     -11.376   9.508  67.737  1.00  0.00     0.036 OA 
BRANCH  21  23
HETATM   23  C   UNL     1      -9.636  11.070  68.115  1.00  0.00    -0.171 C  
HETATM   24  H   UNL     1      -8.533  12.159  66.964  1.00  0.00     0.000 HD 
HETATM   25  O   UNL     1      -9.440  11.877  66.979  1.00  0.00    -0.182 OA 
BRANCH  23  26
HETATM   26  C   UNL     1      -8.595   9.910  68.101  1.00  0.00    -0.118 C  
HETATM   27  H   UNL     1      -7.083   9.377  67.009  1.00  0.00     0.000 HD 
HETATM   28  O   UNL     1      -7.718  10.084  67.017  1.00  0.00    -0.095 OA 
BRANCH  26  29
HETATM   29  C   UNL     1      -7.769   9.668  69.411  1.00  0.00    -0.101 C  
BRANCH  29  30
HETATM   30  O   UNL     1      -8.709   9.328  70.421  1.00  0.00    -0.189 OA 
BRANCH  30  31
HETATM   31  C   UNL     1      -9.063   7.962  70.496  1.00  0.00    -0.154 C  
HETATM   32  O   UNL     1      -9.632   7.537  69.268  1.00  0.00    -0.158 OA 
HETATM   33  C   UNL     1      -9.979   6.162  69.324  1.00  0.00    -0.158 C  
HETATM   34  H   UNL     1     -10.209   8.179  73.565  1.00  0.00     0.000 HD 
HETATM   35  C   UNL     1     -11.122   5.942  70.348  1.00  0.00    -0.283 C  
HETATM   36  O   UNL     1     -12.256   6.694  69.991  1.00  0.00    -0.605 OA 
HETATM   37  C   UNL     1     -10.620   6.386  71.738  1.00  0.00    -0.220 C  
HETATM   38  O   UNL     1      -9.571   8.259  72.866  1.00  0.00    -0.270 OA 
HETATM   39  H   UNL     1     -12.957   6.559  70.618  1.00  0.00     0.000 HD 
HETATM   40  O   UNL     1     -11.641   6.323  72.704  1.00  0.00    -0.406 OA 
HETATM   41  C   UNL     1     -10.104   7.831  71.636  1.00  0.00    -0.185 C  
HETATM   42  H   UNL     1     -11.331   6.596  73.559  1.00  0.00     0.000 HD 
BRANCH  33  43
HETATM   43  C   UNL     1     -10.374   5.715  67.908  1.00  0.00    -0.205 C  
HETATM   44  O   UNL     1     -10.331   6.787  67.005  1.00  0.00    -0.212 OA 
HETATM   45  H   UNL     1     -10.575   6.511  66.130  1.00  0.00     0.000 HD 
ENDBRANCH  33  43
ENDBRANCH  30  31
ENDBRANCH  29  30
BRANCH  29  46
HETATM   46  C   UNL     1      -6.826  10.842  69.855  1.00  0.00    -0.146 C  
HETATM   47  O   UNL     1      -6.240  11.468  68.738  1.00  0.00    -0.048 OA 
HETATM   48  H   UNL     1      -5.670  12.178  69.006  1.00  0.00     0.000 HD 
BRANCH  46  49
HETATM   49  C   UNL     1      -5.782  10.470  70.933  1.00  0.00    -0.077 C  
HETATM   50  H   UNL     1      -4.708  11.385  72.286  1.00  0.00     0.000 HD 
HETATM   51  O   UNL     1      -5.350  11.613  71.624  1.00  0.00    -0.347 OA 
ENDBRANCH  46  49
ENDBRANCH  29  46
ENDBRANCH  26  29
ENDBRANCH  23  26
ENDBRANCH  21  23
ENDBRANCH  20  21
ENDBRANCH  19  20
ENDBRANCH  18  19
ENDBRANCH  16  18
ENDBRANCH  13  16
ENDBRANCH  10  13
ENDBRANCH   7  10
ENDBRANCH   4   7
ENDBRANCH   2   4
TORSDOF 17
ENDMDL
MODEL      311
REMARK 921   NORMALIZED FREE ENERGY PREDICTED BY IDOCK:   -3.62 KCAL/MOL
REMARK 922        TOTAL FREE ENERGY PREDICTED BY IDOCK:  -10.66 KCAL/MOL
REMARK 923 INTER-LIGAND FREE ENERGY PREDICTED BY IDOCK:   -8.31 KCAL/MOL
REMARK 924 INTRA-LIGAND FREE ENERGY PREDICTED BY IDOCK:   -2.35 KCAL/MOL
REMARK 927      BINDING AFFINITY PREDICTED BY RF-SCORE:    0.00 PKD
ROOT
HETATM    1  O   UNL     1      -9.802  15.015  69.914  1.00  0.00    -0.453 OA 
HETATM    2  C   UNL     1      -8.973  15.118  68.789  1.00  0.00    -0.197 C  
HETATM    3  H   UNL     1      -9.275  15.045  70.704  1.00  0.00     0.000 HD 
ENDROOT
BRANCH   2   4
HETATM    4  C   UNL     1      -9.827  15.070  67.510  1.00  0.00    -0.217 C  
HETATM    5  O   UNL     1      -8.988  15.177  66.387  1.00  0.00    -0.284 OA 
HETATM    6  H   UNL     1      -9.515  15.148  65.598  1.00  0.00     0.000 HD 
BRANCH   4   7
HETATM    7  C   UNL     1     -10.646  13.755  67.420  1.00  0.00    -0.260 C  
HETATM    8  H   UNL     1     -12.323  13.072  68.128  1.00  0.00     0.000 HD 
HETATM    9  O   UNL     1     -11.822  13.877  68.183  1.00  0.00    -0.339 OA 
BRANCH   7  10
HETATM   10  C   UNL     1     -11.026  13.408  65.957  1.00  0.00    -0.271 C  
HETATM   11  H   UNL     1     -12.483  12.501  65.071  1.00  0.00     0.000 HD 
HETATM   12  O   UNL     1     -12.250  12.714  65.967  1.00  0.00    -0.564 OA 
BRANCH  10  13
HETATM   13  C   UNL     1      -9.962  12.540  65.230  1.00  0.00    -0.207 C  
HETATM   14  H   UNL     1      -8.287  11.668  65.684  1.00  0.00     0.000 HD 
HETATM   15  O   UNL     1      -8.937  12.199  66.128  1.00  0.00    -0.160 OA 
BRANCH  13  16
HETATM   16  C   UNL     1     -10.522  11.260  64.656  1.00  0.00    -0.325 C  
HETATM   17  O   UNL     1     -11.008  11.261  63.536  1.00  0.00    -0.381 OA 
BRANCH  16  18
HETATM   18  O   UNL     1     -10.504  10.113  65.364  1.00  0.00    -0.197 OA 
BRANCH  18  19
HETATM   19 CA   UNL     1      -9.494  10.101  67.564  1.00  0.00    -0.140 Ca 
BRANCH  19  20
HETATM   20  O   UNL     1      -8.484  10.088  69.762  1.00  0.00    -0.178 OA 
BRANCH  20  21
HETATM   21  C   UNL     1      -8.107   8.832  70.057  1.00  0.00    -0.111 C  
HETATM   22  O   UNL     1      -7.426   8.235  69.241  1.00  0.00    -0.081 OA 
BRANCH  21  23
HETATM   23  C   UNL     1      -8.642   8.103  71.269  1.00  0.00    -0.137 C  
HETATM   24  H   UNL     1      -8.743   8.440  73.167  1.00  0.00     0.000 HD 
HETATM   25  O   UNL     1      -8.407   8.898  72.406  1.00  0.00    -0.386 OA 
BRANCH  23  26
HETATM   26  C   UNL     1      -8.026   6.690  71.502  1.00  0.00    -0.103 C  
HETATM   27  H   UNL     1      -7.022   5.795  72.899  1.00  0.00     0.000 HD 
HETATM   28  O   UNL     1      -7.397   6.657  72.757  1.00  0.00    -0.084 OA 
BRANCH  26  29
HETATM   29  C   UNL     1      -8.983   5.456  71.361  1.00  0.00    -0.138 C  
BRANCH  29  30
HETATM   30  O   UNL     1      -9.673   5.621  70.130  1.00  0.00    -0.159 OA 
BRANCH  30  31
HETATM   31  C   UNL     1      -9.022   5.106  68.986  1.00  0.00    -0.100 C  
HETATM   32  O   UNL     1      -9.285   5.931  67.863  1.00  0.00    -0.111 OA 
HETATM   33  C   UNL     1      -8.625   5.433  66.709  1.00  0.00    -0.110 C  
HETATM   34  H   UNL     1      -9.708   1.978  69.707  1.00  0.00     0.000 HD 
HETATM   35  C   UNL     1      -9.225   4.063  66.301  1.00  0.00    -0.158 C  
HETATM   36  O   UNL     1     -10.600   4.186  66.033  1.00  0.00    -0.417 OA 
HETATM   37  C   UNL     1      -9.007   3.073  67.464  1.00  0.00    -0.161 C  
HETATM   38  O   UNL     1      -9.359   2.848  69.853  1.00  0.00    -0.142 OA 
HETATM   39  H   UNL     1     -10.968   3.347  65.783  1.00  0.00     0.000 HD 
HETATM   40  O   UNL     1      -9.626   1.835  67.215  1.00  0.00    -0.387 OA 
HETATM   41  C   UNL     1      -9.593   3.686  68.747  1.00  0.00    -0.089 C  
HETATM   42  H   UNL     1      -9.492   1.226  67.932  1.00  0.00     0.000 HD 
BRANCH  33  43
HETATM   43  C   UNL     1      -8.763   6.482  65.595  1.00  0.00    -0.091 C  
HETATM   44  O   UNL     1      -9.492   7.598  66.033  1.00  0.00    -0.386 OA 
HETATM   45  H   UNL     1      -9.577   8.246  65.345  1.00  0.00     0.000 HD 
ENDBRANCH  33  43
ENDBRANCH  30  31
ENDBRANCH  29  30
BRANCH  29  46
HETATM   46  C   UNL     1      -9.966   5.209  72.559  1.00  0.00    -0.172 C  
HETATM   47  O   UNL     1     -10.127   3.831  72.804  1.00  0.00    -0.148 OA 
HETATM   48  H   UNL     1     -10.722   3.681  73.529  1.00  0.00     0.000 HD 
BRANCH  46  49
HETATM   49  C   UNL     1     -11.320   5.947  72.458  1.00  0.00    -0.304 C  
HETATM   50  H   UNL     1     -12.180   7.512  73.254  1.00  0.00     0.000 HD 
HETATM   51  O   UNL     1     -11.348   7.058  73.316  1.00  0.00    -0.161 OA 
ENDBRANCH  46  49
ENDBRANCH  29  46
ENDBRANCH  26  29
ENDBRANCH  23  26
ENDBRANCH  21  23
ENDBRANCH  20  21
ENDBRANCH  19  20
ENDBRANCH  18  19
ENDBRANCH  16  18
ENDBRANCH  13  16
ENDBRANCH  10  13
ENDBRANCH   7  10
ENDBRANCH   4   7
ENDBRANCH   2   4
TORSDOF 17
ENDMDL
MODEL      312
REMARK 921   NORMALIZED FREE ENERGY PREDICTED BY IDOCK:   -3.61 KCAL/MOL
REMARK 922        TOTAL FREE ENERGY PREDICTED BY IDOCK:  -10.63 KCAL/MOL
REMARK 923 INTER-LIGAND FREE ENERGY PREDICTED BY IDOCK:  -10.89 KCAL/MOL
REMARK 924 INTRA-LIGAND FREE ENERGY PREDICTED BY IDOCK:    0.26 KCAL/MOL
REMARK 927      BINDING AFFINITY PREDICTED BY RF-SCORE:    0.00 PKD
ROOT
HETATM    1  O   UNL     1     -14.394   7.425  71.051  1.00  0.00    -0.622 OA 
HETATM    2  C   UNL     1     -13.289   7.676  71.875  1.00  0.00    -0.245 C  
HETATM    3  H   UNL     1     -15.129   7.959  71.330  1.00  0.00     0.000 HD 
ENDROOT
BRANCH   2   4
HETATM    4  C   UNL     1     -12.100   6.810  71.424  1.00  0.00    -0.366 C  
HETATM    5  O   UNL     1     -11.857   7.031  70.057  1.00  0.00    -0.569 OA 
HETATM    6  H   UNL     1     -11.122   6.497  69.779  1.00  0.00     0.000 HD 
BRANCH   4   7
HETATM    7  C   UNL     1     -10.818   7.134  72.236  1.00  0.00    -0.232 C  
HETATM    8  H   UNL     1      -8.982   6.498  72.312  1.00  0.00     0.000 HD 
HETATM    9  O   UNL     1      -9.767   6.300  71.815  1.00  0.00    -0.155 OA 
BRANCH   7  10
HETATM   10  C   UNL     1     -10.385   8.615  72.070  1.00  0.00    -0.346 C  
HETATM   11  H   UNL     1     -11.080  10.181  71.179  1.00  0.00     0.000 HD 
HETATM   12  O   UNL     1     -11.346   9.275  71.281  1.00  0.00    -0.293 OA 
BRANCH  10  13
HETATM   13  C   UNL     1      -8.990   8.781  71.407  1.00  0.00    -0.238 C  
HETATM   14  H   UNL     1      -7.330   7.776  71.314  1.00  0.00     0.000 HD 
HETATM   15  O   UNL     1      -8.184   7.675  71.720  1.00  0.00    -0.102 OA 
BRANCH  13  16
HETATM   16  C   UNL     1      -9.051   8.900  69.902  1.00  0.00    -0.161 C  
HETATM   17  O   UNL     1      -9.145   7.892  69.219  1.00  0.00    -0.148 OA 
BRANCH  16  18
HETATM   18  O   UNL     1      -8.991  10.103  69.296  1.00  0.00    -0.162 OA 
BRANCH  18  19
HETATM   19 CA   UNL     1      -9.785  10.315  67.019  1.00  0.00    -0.150 Ca 
BRANCH  19  20
HETATM   20  O   UNL     1     -10.579  10.528  64.744  1.00  0.00    -0.253 OA 
BRANCH  20  21
HETATM   21  C   UNL     1     -10.676  11.834  64.440  1.00  0.00    -0.327 C  
HETATM   22  O   UNL     1     -11.223  12.138  63.394  1.00  0.00    -0.427 OA 
BRANCH  21  23
HETATM   23  C   UNL     1      -9.984  12.897  65.264  1.00  0.00    -0.176 C  
HETATM   24  H   UNL     1      -8.552  12.945  66.558  1.00  0.00     0.000 HD 
HETATM   25  O   UNL     1      -8.987  12.278  66.040  1.00  0.00    -0.093 OA 
BRANCH  23  26
HETATM   26  C   UNL     1     -10.927  13.709  66.203  1.00  0.00    -0.284 C  
HETATM   27  H   UNL     1     -11.910  13.390  67.843  1.00  0.00     0.000 HD 
HETATM   28  O   UNL     1     -11.335  12.894  67.272  1.00  0.00    -0.278 OA 
BRANCH  26  29
HETATM   29  C   UNL     1     -10.390  15.074  66.757  1.00  0.00    -0.270 C  
BRANCH  29  30
HETATM   30  O   UNL     1      -9.441  15.545  65.811  1.00  0.00    -0.333 OA 
BRANCH  30  31
HETATM   31  C   UNL     1      -9.016  16.883  65.980  1.00  0.00    -0.163 C  
HETATM   32  O   UNL     1      -8.332  17.024  67.214  1.00  0.00    -0.180 OA 
HETATM   33  C   UNL     1      -7.886  18.360  67.390  1.00  0.00    -0.234 C  
HETATM   34  H   UNL     1     -11.780  18.170  64.764  1.00  0.00     0.000 HD 
HETATM   35  C   UNL     1      -9.100  19.313  67.537  1.00  0.00    -0.297 C  
HETATM   36  O   UNL     1      -9.891  18.938  68.638  1.00  0.00    -0.369 OA 
HETATM   37  C   UNL     1      -9.937  19.234  66.243  1.00  0.00    -0.413 C  
HETATM   38  O   UNL     1     -10.998  17.631  64.766  1.00  0.00    -0.917 OA 
HETATM   39  H   UNL     1     -10.635  19.522  68.728  1.00  0.00     0.000 HD 
HETATM   40  O   UNL     1     -11.121  19.987  66.344  1.00  0.00    -0.153 OA 
HETATM   41  C   UNL     1     -10.291  17.762  65.976  1.00  0.00    -0.304 C  
HETATM   42  H   UNL     1     -11.636  19.939  65.547  1.00  0.00     0.000 HD 
BRANCH  33  43
HETATM   43  C   UNL     1      -6.969  18.395  68.623  1.00  0.00    -0.269 C  
HETATM   44  O   UNL     1      -7.134  19.584  69.347  1.00  0.00    -0.350 OA 
HETATM   45  H   UNL     1      -6.568  19.605  70.109  1.00  0.00     0.000 HD 
ENDBRANCH  33  43
ENDBRANCH  30  31
ENDBRANCH  29  30
BRANCH  29  46
HETATM   46  C   UNL     1      -9.805  15.041  68.213  1.00  0.00    -0.219 C  
HETATM   47  O   UNL     1      -8.946  13.938  68.387  1.00  0.00    -0.186 OA 
HETATM   48  H   UNL     1      -8.592  13.918  69.268  1.00  0.00     0.000 HD 
BRANCH  46  49
HETATM   49  C   UNL     1     -10.855  15.149  69.342  1.00  0.00    -0.262 C  
HETATM   50  H   UNL     1     -11.513  16.508  70.584  1.00  0.00     0.000 HD 
HETATM   51  O   UNL     1     -10.868  16.442  69.889  1.00  0.00    -0.344 OA 
ENDBRANCH  46  49
ENDBRANCH  29  46
ENDBRANCH  26  29
ENDBRANCH  23  26
ENDBRANCH  21  23
ENDBRANCH  20  21
ENDBRANCH  19  20
ENDBRANCH  18  19
ENDBRANCH  16  18
ENDBRANCH  13  16
ENDBRANCH  10  13
ENDBRANCH   7  10
ENDBRANCH   4   7
ENDBRANCH   2   4
TORSDOF 17
ENDMDL
MODEL      313
REMARK 921   NORMALIZED FREE ENERGY PREDICTED BY IDOCK:   -3.60 KCAL/MOL
REMARK 922        TOTAL FREE ENERGY PREDICTED BY IDOCK:  -10.62 KCAL/MOL
REMARK 923 INTER-LIGAND FREE ENERGY PREDICTED BY IDOCK:   -7.65 KCAL/MOL
REMARK 924 INTRA-LIGAND FREE ENERGY PREDICTED BY IDOCK:   -2.97 KCAL/MOL
REMARK 927      BINDING AFFINITY PREDICTED BY RF-SCORE:    0.00 PKD
ROOT
HETATM    1  O   UNL     1     -13.023   6.831  70.475  1.00  0.00    -0.404 OA 
HETATM    2  C   UNL     1     -12.279   6.714  71.657  1.00  0.00    -0.352 C  
HETATM    3  H   UNL     1     -13.329   5.973  70.204  1.00  0.00     0.000 HD 
ENDROOT
BRANCH   2   4
HETATM    4  C   UNL     1     -11.782   8.103  72.095  1.00  0.00    -0.359 C  
HETATM    5  O   UNL     1     -10.741   7.951  73.027  1.00  0.00    -0.365 OA 
HETATM    6  H   UNL     1     -10.435   8.809  73.297  1.00  0.00     0.000 HD 
BRANCH   4   7
HETATM    7  C   UNL     1     -11.277   8.935  70.886  1.00  0.00    -0.279 C  
HETATM    8  H   UNL     1     -11.286  10.800  70.338  1.00  0.00     0.000 HD 
HETATM    9  O   UNL     1     -11.596  10.291  71.079  1.00  0.00    -0.351 OA 
BRANCH   7  10
HETATM   10  C   UNL     1      -9.744   8.799  70.689  1.00  0.00    -0.197 C  
HETATM   11  H   UNL     1      -8.335   9.871  69.915  1.00  0.00     0.000 HD 
HETATM   12  O   UNL     1      -9.274   9.954  70.036  1.00  0.00    -0.226 OA 
BRANCH  10  13
HETATM   13  C   UNL     1      -9.334   7.550  69.860  1.00  0.00    -0.150 C  
HETATM   14  H   UNL     1      -9.669   6.854  68.078  1.00  0.00     0.000 HD 
HETATM   15  O   UNL     1      -9.920   7.617  68.585  1.00  0.00    -0.164 OA 
BRANCH  13  16
HETATM   16  C   UNL     1      -7.841   7.414  69.678  1.00  0.00    -0.117 C  
HETATM   17  O   UNL     1      -7.083   7.922  70.490  1.00  0.00    -0.045 OA 
BRANCH  16  18
HETATM   18  O   UNL     1      -7.325   6.749  68.625  1.00  0.00    -0.085 OA 
BRANCH  18  19
HETATM   19 CA   UNL     1      -7.989   7.388  66.387  1.00  0.00    -0.088 Ca 
BRANCH  19  20
HETATM   20  O   UNL     1      -8.652   8.028  64.150  1.00  0.00     0.043 OA 
BRANCH  20  21
HETATM   21  C   UNL     1      -7.931   9.099  63.775  1.00  0.00    -0.146 C  
HETATM   22  O   UNL     1      -7.261   9.009  62.760  1.00  0.00    -0.096 OA 
BRANCH  21  23
HETATM   23  C   UNL     1      -7.800  10.320  64.658  1.00  0.00    -0.123 C  
HETATM   24  H   UNL     1      -6.372  11.208  65.607  1.00  0.00     0.000 HD 
HETATM   25  O   UNL     1      -6.455  10.441  65.053  1.00  0.00    -0.127 OA 
BRANCH  23  26
HETATM   26  C   UNL     1      -8.703  10.304  65.928  1.00  0.00    -0.156 C  
HETATM   27  H   UNL     1      -8.512   9.816  67.795  1.00  0.00     0.000 HD 
HETATM   28  O   UNL     1      -7.962   9.825  67.021  1.00  0.00    -0.105 OA 
BRANCH  26  29
HETATM   29  C   UNL     1      -9.414  11.645  66.323  1.00  0.00    -0.218 C  
BRANCH  29  30
HETATM   30  O   UNL     1      -8.382  12.582  66.594  1.00  0.00    -0.096 OA 
BRANCH  30  31
HETATM   31  C   UNL     1      -8.723  13.638  67.469  1.00  0.00    -0.198 C  
HETATM   32  O   UNL     1      -9.048  14.801  66.725  1.00  0.00    -0.239 OA 
HETATM   33  C   UNL     1      -9.408  15.866  67.592  1.00  0.00    -0.217 C  
HETATM   34  H   UNL     1      -6.368  12.924  69.641  1.00  0.00     0.000 HD 
HETATM   35  C   UNL     1      -8.183  16.306  68.435  1.00  0.00    -0.185 C  
HETATM   36  O   UNL     1      -7.132  16.722  67.599  1.00  0.00    -0.126 OA 
HETATM   37  C   UNL     1      -7.727  15.103  69.288  1.00  0.00    -0.204 C  
HETATM   38  O   UNL     1      -7.128  12.761  69.096  1.00  0.00    -0.068 OA 
HETATM   39  H   UNL     1      -6.381  16.990  68.116  1.00  0.00     0.000 HD 
HETATM   40  O   UNL     1      -6.547  15.389  69.999  1.00  0.00    -0.162 OA 
HETATM   41  C   UNL     1      -7.482  13.905  68.357  1.00  0.00    -0.117 C  
HETATM   42  H   UNL     1      -6.266  14.649  70.524  1.00  0.00     0.000 HD 
BRANCH  33  43
HETATM   43  C   UNL     1      -9.959  17.013  66.729  1.00  0.00    -0.295 C  
HETATM   44  O   UNL     1      -9.043  17.390  65.737  1.00  0.00    -0.517 OA 
HETATM   45  H   UNL     1      -9.383  18.097  65.204  1.00  0.00     0.000 HD 
ENDBRANCH  33  43
ENDBRANCH  30  31
ENDBRANCH  29  30
BRANCH  29  46
HETATM   46  C   UNL     1     -10.450  11.553  67.498  1.00  0.00    -0.199 C  
HETATM   47  O   UNL     1     -10.886  10.226  67.684  1.00  0.00    -0.271 OA 
HETATM   48  H   UNL     1     -11.512  10.170  68.395  1.00  0.00     0.000 HD 
BRANCH  46  49
HETATM   49  C   UNL     1     -11.630  12.549  67.409  1.00  0.00    -0.370 C  
HETATM   50  H   UNL     1     -12.871  13.437  68.631  1.00  0.00     0.000 HD 
HETATM   51  O   UNL     1     -12.145  12.825  68.685  1.00  0.00    -0.273 OA 
ENDBRANCH  46  49
ENDBRANCH  29  46
ENDBRANCH  26  29
ENDBRANCH  23  26
ENDBRANCH  21  23
ENDBRANCH  20  21
ENDBRANCH  19  20
ENDBRANCH  18  19
ENDBRANCH  16  18
ENDBRANCH  13  16
ENDBRANCH  10  13
ENDBRANCH   7  10
ENDBRANCH   4   7
ENDBRANCH   2   4
TORSDOF 17
ENDMDL
MODEL      314
REMARK 921   NORMALIZED FREE ENERGY PREDICTED BY IDOCK:   -3.59 KCAL/MOL
REMARK 922        TOTAL FREE ENERGY PREDICTED BY IDOCK:  -10.60 KCAL/MOL
REMARK 923 INTER-LIGAND FREE ENERGY PREDICTED BY IDOCK:   -8.44 KCAL/MOL
REMARK 924 INTRA-LIGAND FREE ENERGY PREDICTED BY IDOCK:   -2.16 KCAL/MOL
REMARK 927      BINDING AFFINITY PREDICTED BY RF-SCORE:    0.00 PKD
ROOT
HETATM    1  O   UNL     1      -5.126   9.415  66.041  1.00  0.00    -0.035 OA 
HETATM    2  C   UNL     1      -6.433   9.548  65.552  1.00  0.00    -0.072 C  
HETATM    3  H   UNL     1      -4.525   9.891  65.480  1.00  0.00     0.000 HD 
ENDROOT
BRANCH   2   4
HETATM    4  C   UNL     1      -7.406   8.776  66.459  1.00  0.00    -0.081 C  
HETATM    5  O   UNL     1      -8.280   9.684  67.081  1.00  0.00    -0.119 OA 
HETATM    6  H   UNL     1      -8.881   9.208  67.642  1.00  0.00     0.000 HD 
BRANCH   4   7
HETATM    7  C   UNL     1      -8.228   7.734  65.657  1.00  0.00    -0.135 C  
HETATM    8  H   UNL     1      -7.917   5.995  64.844  1.00  0.00     0.000 HD 
HETATM    9  O   UNL     1      -7.413   6.633  65.335  1.00  0.00    -0.073 OA 
BRANCH   7  10
HETATM   10  C   UNL     1      -9.463   7.232  66.453  1.00  0.00    -0.127 C  
HETATM   11  H   UNL     1     -11.131   7.990  67.065  1.00  0.00     0.000 HD 
HETATM   12  O   UNL     1     -10.375   8.297  66.578  1.00  0.00    -0.276 OA 
BRANCH  10  13
HETATM   13  C   UNL     1      -9.112   6.702  67.870  1.00  0.00    -0.114 C  
HETATM   14  H   UNL     1      -9.123   7.386  69.688  1.00  0.00     0.000 HD 
HETATM   15  O   UNL     1      -9.338   7.710  68.821  1.00  0.00    -0.149 OA 
BRANCH  13  16
HETATM   16  C   UNL     1      -9.921   5.492  68.275  1.00  0.00    -0.154 C  
HETATM   17  O   UNL     1      -9.792   4.444  67.662  1.00  0.00    -0.169 OA 
BRANCH  16  18
HETATM   18  O   UNL     1     -10.796   5.550  69.299  1.00  0.00    -0.269 OA 
BRANCH  18  19
HETATM   19 CA   UNL     1     -11.090   7.642  70.481  1.00  0.00    -0.223 Ca 
BRANCH  19  20
HETATM   20  O   UNL     1     -11.384   9.734  71.661  1.00  0.00    -0.349 OA 
BRANCH  20  21
HETATM   21  C   UNL     1     -12.151  10.547  70.914  1.00  0.00    -0.383 C  
HETATM   22  O   UNL     1     -13.241  10.868  71.356  1.00  0.00    -0.362 OA 
BRANCH  21  23
HETATM   23  C   UNL     1     -11.772  10.921  69.499  1.00  0.00    -0.328 C  
HETATM   24  H   UNL     1     -11.237   9.976  67.903  1.00  0.00     0.000 HD 
HETATM   25  O   UNL     1     -11.475   9.742  68.792  1.00  0.00    -0.008 OA 
BRANCH  23  26
HETATM   26  C   UNL     1     -10.564  11.899  69.386  1.00  0.00     0.118 C  
HETATM   27  H   UNL     1      -8.636  11.757  69.234  1.00  0.00     0.000 HD 
HETATM   28  O   UNL     1      -9.372  11.160  69.303  1.00  0.00    -0.034 OA 
BRANCH  26  29
HETATM   29  C   UNL     1     -10.604  12.963  68.234  1.00  0.00    -0.246 C  
BRANCH  29  30
HETATM   30  O   UNL     1      -9.789  12.453  67.188  1.00  0.00    -0.201 OA 
BRANCH  30  31
HETATM   31  C   UNL     1     -10.471  11.773  66.154  1.00  0.00    -0.245 C  
HETATM   32  O   UNL     1      -9.569  11.444  65.110  1.00  0.00    -0.230 OA 
HETATM   33  C   UNL     1     -10.238  10.747  64.070  1.00  0.00    -0.322 C  
HETATM   34  H   UNL     1     -13.136  13.681  66.325  1.00  0.00     0.000 HD 
HETATM   35  C   UNL     1     -11.268  11.678  63.379  1.00  0.00    -0.310 C  
HETATM   36  O   UNL     1     -10.628  12.811  62.844  1.00  0.00    -0.340 OA 
HETATM   37  C   UNL     1     -12.307  12.116  64.433  1.00  0.00    -0.330 C  
HETATM   38  O   UNL     1     -12.466  13.091  66.648  1.00  0.00    -0.349 OA 
HETATM   39  H   UNL     1     -11.259  13.381  62.421  1.00  0.00     0.000 HD 
HETATM   40  O   UNL     1     -13.213  13.056  63.909  1.00  0.00    -0.194 OA 
HETATM   41  C   UNL     1     -11.564  12.737  65.628  1.00  0.00    -0.370 C  
HETATM   42  H   UNL     1     -13.852  13.325  64.558  1.00  0.00     0.000 HD 
BRANCH  33  43
HETATM   43  C   UNL     1      -9.175  10.229  63.088  1.00  0.00    -0.287 C  
HETATM   44  O   UNL     1      -8.487  11.287  62.476  1.00  0.00    -0.454 OA 
HETATM   45  H   UNL     1      -7.830  10.967  61.870  1.00  0.00     0.000 HD 
ENDBRANCH  33  43
ENDBRANCH  30  31
ENDBRANCH  29  30
BRANCH  29  46
HETATM   46  C   UNL     1     -10.201  14.425  68.636  1.00  0.00    -0.245 C  
HETATM   47  O   UNL     1      -9.148  14.420  69.572  1.00  0.00    -0.365 OA 
HETATM   48  H   UNL     1      -8.904  15.305  69.815  1.00  0.00     0.000 HD 
BRANCH  46  49
HETATM   49  C   UNL     1     -11.375  15.329  69.080  1.00  0.00    -0.297 C  
HETATM   50  H   UNL     1     -11.720  17.236  69.330  1.00  0.00     0.000 HD 
HETATM   51  O   UNL     1     -10.999  16.681  69.056  1.00  0.00    -0.312 OA 
ENDBRANCH  46  49
ENDBRANCH  29  46
ENDBRANCH  26  29
ENDBRANCH  23  26
ENDBRANCH  21  23
ENDBRANCH  20  21
ENDBRANCH  19  20
ENDBRANCH  18  19
ENDBRANCH  16  18
ENDBRANCH  13  16
ENDBRANCH  10  13
ENDBRANCH   7  10
ENDBRANCH   4   7
ENDBRANCH   2   4
TORSDOF 17
ENDMDL
MODEL      315
REMARK 921   NORMALIZED FREE ENERGY PREDICTED BY IDOCK:   -3.59 KCAL/MOL
REMARK 922        TOTAL FREE ENERGY PREDICTED BY IDOCK:  -10.59 KCAL/MOL
REMARK 923 INTER-LIGAND FREE ENERGY PREDICTED BY IDOCK:   -8.56 KCAL/MOL
REMARK 924 INTRA-LIGAND FREE ENERGY PREDICTED BY IDOCK:   -2.04 KCAL/MOL
REMARK 927      BINDING AFFINITY PREDICTED BY RF-SCORE:    0.00 PKD
ROOT
HETATM    1  O   UNL     1     -11.889  11.420  70.592  1.00  0.00    -0.389 OA 
HETATM    2  C   UNL     1     -12.254  11.498  69.241  1.00  0.00    -0.179 C  
HETATM    3  H   UNL     1     -12.134  10.571  70.942  1.00  0.00     0.000 HD 
ENDROOT
BRANCH   2   4
HETATM    4  C   UNL     1     -11.856  12.872  68.676  1.00  0.00    -0.312 C  
HETATM    5  O   UNL     1     -10.847  13.431  69.480  1.00  0.00    -0.449 OA 
HETATM    6  H   UNL     1     -10.601  14.279  69.131  1.00  0.00     0.000 HD 
BRANCH   4   7
HETATM    7  C   UNL     1     -11.350  12.762  67.213  1.00  0.00    -0.314 C  
HETATM    8  H   UNL     1     -11.455  11.470  65.765  1.00  0.00     0.000 HD 
HETATM    9  O   UNL     1     -11.765  11.537  66.660  1.00  0.00    -0.486 OA 
BRANCH   7  10
HETATM   10  C   UNL     1     -11.880  13.921  66.328  1.00  0.00    -0.408 C  
HETATM   11  H   UNL     1     -13.589  14.459  65.608  1.00  0.00     0.000 HD 
HETATM   12  O   UNL     1     -13.265  13.750  66.150  1.00  0.00    -0.093 OA 
BRANCH  10  13
HETATM   13  C   UNL     1     -11.199  13.995  64.933  1.00  0.00    -0.362 C  
HETATM   14  H   UNL     1      -9.513  13.444  64.142  1.00  0.00     0.000 HD 
HETATM   15  O   UNL     1      -9.929  13.400  64.995  1.00  0.00    -0.253 OA 
BRANCH  13  16
HETATM   16  C   UNL     1     -11.984  13.300  63.845  1.00  0.00    -0.483 C  
HETATM   17  O   UNL     1     -12.687  13.957  63.092  1.00  0.00    -0.718 OA 
BRANCH  16  18
HETATM   18  O   UNL     1     -11.933  11.961  63.695  1.00  0.00    -0.473 OA 
BRANCH  18  19
HETATM   19 CA   UNL     1     -10.307  10.695  64.965  1.00  0.00    -0.231 Ca 
BRANCH  19  20
HETATM   20  O   UNL     1      -8.682   9.429  66.234  1.00  0.00    -0.134 OA 
BRANCH  20  21
HETATM   21  C   UNL     1      -9.071   9.393  67.520  1.00  0.00    -0.124 C  
HETATM   22  O   UNL     1      -8.782  10.342  68.230  1.00  0.00    -0.122 OA 
BRANCH  21  23
HETATM   23  C   UNL     1      -9.689   8.157  68.132  1.00  0.00    -0.161 C  
HETATM   24  H   UNL     1     -11.292   7.117  67.856  1.00  0.00     0.000 HD 
HETATM   25  O   UNL     1     -10.903   7.894  67.472  1.00  0.00    -0.205 OA 
BRANCH  23  26
HETATM   26  C   UNL     1      -9.955   8.253  69.665  1.00  0.00    -0.193 C  
HETATM   27  H   UNL     1     -11.323   7.658  70.905  1.00  0.00     0.000 HD 
HETATM   28  O   UNL     1     -11.161   7.600  69.971  1.00  0.00    -0.254 OA 
BRANCH  26  29
HETATM   29  C   UNL     1      -8.824   7.745  70.625  1.00  0.00    -0.144 C  
BRANCH  29  30
HETATM   30  O   UNL     1      -8.448   6.458  70.157  1.00  0.00    -0.131 OA 
BRANCH  30  31
HETATM   31  C   UNL     1      -8.877   5.367  70.946  1.00  0.00    -0.138 C  
HETATM   32  O   UNL     1      -7.900   5.061  71.927  1.00  0.00    -0.103 OA 
HETATM   33  C   UNL     1      -8.325   3.976  72.738  1.00  0.00    -0.096 C  
HETATM   34  H   UNL     1     -10.128   3.708  68.405  1.00  0.00     0.000 HD 
HETATM   35  C   UNL     1      -8.407   2.679  71.892  1.00  0.00    -0.058 C  
HETATM   36  O   UNL     1      -7.154   2.376  71.329  1.00  0.00    -0.031 OA 
HETATM   37  C   UNL     1      -9.443   2.897  70.770  1.00  0.00    -0.153 C  
HETATM   38  O   UNL     1     -10.016   4.445  68.992  1.00  0.00    -0.147 OA 
HETATM   39  H   UNL     1      -7.205   1.582  70.811  1.00  0.00     0.000 HD 
HETATM   40  O   UNL     1      -9.493   1.802  69.888  1.00  0.00    -0.108 OA 
HETATM   41  C   UNL     1      -9.060   4.164  69.987  1.00  0.00    -0.114 C  
HETATM   42  H   UNL     1     -10.131   1.937  69.198  1.00  0.00     0.000 HD 
BRANCH  33  43
HETATM   43  C   UNL     1      -7.338   3.844  73.908  1.00  0.00    -0.062 C  
HETATM   44  O   UNL     1      -6.705   5.065  74.181  1.00  0.00    -0.067 OA 
HETATM   45  H   UNL     1      -6.096   4.983  74.905  1.00  0.00     0.000 HD 
ENDBRANCH  33  43
ENDBRANCH  30  31
ENDBRANCH  29  30
BRANCH  29  46
HETATM   46  C   UNL     1      -9.175   7.737  72.155  1.00  0.00    -0.149 C  
HETATM   47  O   UNL     1     -10.384   8.418  72.399  1.00  0.00    -0.305 OA 
HETATM   48  H   UNL     1     -10.596   8.413  73.325  1.00  0.00     0.000 HD 
BRANCH  46  49
HETATM   49  C   UNL     1      -8.037   8.212  73.089  1.00  0.00    -0.179 C  
HETATM   50  H   UNL     1      -7.729   8.415  75.008  1.00  0.00     0.000 HD 
HETATM   51  O   UNL     1      -8.428   8.124  74.434  1.00  0.00    -0.230 OA 
ENDBRANCH  46  49
ENDBRANCH  29  46
ENDBRANCH  26  29
ENDBRANCH  23  26
ENDBRANCH  21  23
ENDBRANCH  20  21
ENDBRANCH  19  20
ENDBRANCH  18  19
ENDBRANCH  16  18
ENDBRANCH  13  16
ENDBRANCH  10  13
ENDBRANCH   7  10
ENDBRANCH   4   7
ENDBRANCH   2   4
TORSDOF 17
ENDMDL
MODEL      316
REMARK 921   NORMALIZED FREE ENERGY PREDICTED BY IDOCK:   -3.59 KCAL/MOL
REMARK 922        TOTAL FREE ENERGY PREDICTED BY IDOCK:  -10.59 KCAL/MOL
REMARK 923 INTER-LIGAND FREE ENERGY PREDICTED BY IDOCK:   -8.66 KCAL/MOL
REMARK 924 INTRA-LIGAND FREE ENERGY PREDICTED BY IDOCK:   -1.93 KCAL/MOL
REMARK 927      BINDING AFFINITY PREDICTED BY RF-SCORE:    0.00 PKD
ROOT
HETATM    1  O   UNL     1      -9.002  14.908  69.264  1.00  0.00    -0.331 OA 
HETATM    2  C   UNL     1      -7.769  15.114  68.630  1.00  0.00    -0.126 C  
HETATM    3  H   UNL     1      -9.519  14.287  68.764  1.00  0.00     0.000 HD 
ENDROOT
BRANCH   2   4
HETATM    4  C   UNL     1      -6.933  16.120  69.439  1.00  0.00    -0.220 C  
HETATM    5  O   UNL     1      -5.768  15.486  69.905  1.00  0.00    -0.122 OA 
HETATM    6  H   UNL     1      -5.251  16.108  70.405  1.00  0.00     0.000 HD 
BRANCH   4   7
HETATM    7  C   UNL     1      -6.544  17.355  68.584  1.00  0.00    -0.193 C  
HETATM    8  H   UNL     1      -5.127  17.838  67.344  1.00  0.00     0.000 HD 
HETATM    9  O   UNL     1      -5.365  17.081  67.866  1.00  0.00    -0.111 OA 
BRANCH   7  10
HETATM   10  C   UNL     1      -7.665  17.746  67.585  1.00  0.00    -0.208 C  
HETATM   11  H   UNL     1      -7.769  18.688  65.902  1.00  0.00     0.000 HD 
HETATM   12  O   UNL     1      -7.082  18.449  66.514  1.00  0.00    -0.200 OA 
BRANCH  10  13
HETATM   13  C   UNL     1      -8.778  18.626  68.218  1.00  0.00    -0.323 C  
HETATM   14  H   UNL     1      -9.211  20.517  68.318  1.00  0.00     0.000 HD 
HETATM   15  O   UNL     1      -8.530  19.978  67.931  1.00  0.00    -0.303 OA 
BRANCH  13  16
HETATM   16  C   UNL     1     -10.164  18.292  67.718  1.00  0.00    -0.385 C  
HETATM   17  O   UNL     1     -10.867  19.173  67.249  1.00  0.00    -0.476 OA 
BRANCH  16  18
HETATM   18  O   UNL     1     -10.646  17.035  67.790  1.00  0.00    -0.341 OA 
BRANCH  18  19
HETATM   19 CA   UNL     1     -11.303  15.906  65.753  1.00  0.00    -0.319 Ca 
BRANCH  19  20
HETATM   20  O   UNL     1     -11.962  14.776  63.717  1.00  0.00    -0.323 OA 
BRANCH  20  21
HETATM   21  C   UNL     1     -12.171  13.478  63.992  1.00  0.00    -0.402 C  
HETATM   22  O   UNL     1     -12.898  12.846  63.244  1.00  0.00    -0.605 OA 
BRANCH  21  23
HETATM   23  C   UNL     1     -11.678  12.844  65.273  1.00  0.00    -0.364 C  
HETATM   24  H   UNL     1     -12.076  11.248  66.284  1.00  0.00     0.000 HD 
HETATM   25  O   UNL     1     -12.386  11.646  65.479  1.00  0.00    -0.026 OA 
BRANCH  23  26
HETATM   26  C   UNL     1     -11.820  13.743  66.540  1.00  0.00    -0.407 C  
HETATM   27  H   UNL     1     -13.230  14.751  67.409  1.00  0.00     0.000 HD 
HETATM   28  O   UNL     1     -13.143  14.204  66.637  1.00  0.00     0.283 OA 
BRANCH  26  29
HETATM   29  C   UNL     1     -11.375  13.128  67.912  1.00  0.00    -0.286 C  
BRANCH  29  30
HETATM   30  O   UNL     1     -11.373  11.718  67.738  1.00  0.00    -0.247 OA 
BRANCH  30  31
HETATM   31  C   UNL     1     -10.138  11.072  67.974  1.00  0.00    -0.179 C  
HETATM   32  O   UNL     1      -9.379  11.019  66.777  1.00  0.00    -0.176 OA 
HETATM   33  C   UNL     1      -8.129  10.386  67.004  1.00  0.00    -0.116 C  
HETATM   34  H   UNL     1     -11.437   8.779  69.932  1.00  0.00     0.000 HD 
HETATM   35  C   UNL     1      -8.345   8.892  67.361  1.00  0.00    -0.108 C  
HETATM   36  O   UNL     1      -9.022   8.229  66.321  1.00  0.00    -0.162 OA 
HETATM   37  C   UNL     1      -9.181   8.821  68.656  1.00  0.00    -0.141 C  
HETATM   38  O   UNL     1     -11.235   9.658  69.636  1.00  0.00    -0.220 OA 
HETATM   39  H   UNL     1      -9.155   7.314  66.541  1.00  0.00     0.000 HD 
HETATM   40  O   UNL     1      -9.517   7.495  68.984  1.00  0.00    -0.146 OA 
HETATM   41  C   UNL     1     -10.469   9.637  68.456  1.00  0.00    -0.212 C  
HETATM   42  H   UNL     1     -10.031   7.451  69.782  1.00  0.00     0.000 HD 
BRANCH  33  43
HETATM   43  C   UNL     1      -7.274  10.561  65.739  1.00  0.00    -0.135 C  
HETATM   44  O   UNL     1      -6.460   9.441  65.515  1.00  0.00    -0.067 OA 
HETATM   45  H   UNL     1      -5.932   9.549  64.733  1.00  0.00     0.000 HD 
ENDBRANCH  33  43
ENDBRANCH  30  31
ENDBRANCH  29  30
BRANCH  29  46
HETATM   46  C   UNL     1     -12.213  13.567  69.164  1.00  0.00    -0.194 C  
HETATM   47  O   UNL     1     -12.003  14.928  69.460  1.00  0.00    -0.298 OA 
HETATM   48  H   UNL     1     -12.510  15.193  70.218  1.00  0.00     0.000 HD 
BRANCH  46  49
HETATM   49  C   UNL     1     -12.049  12.665  70.410  1.00  0.00    -0.300 C  
HETATM   50  H   UNL     1     -12.213  12.831  72.350  1.00  0.00     0.000 HD 
HETATM   51  O   UNL     1     -12.314  13.385  71.585  1.00  0.00    -0.170 OA 
ENDBRANCH  46  49
ENDBRANCH  29  46
ENDBRANCH  26  29
ENDBRANCH  23  26
ENDBRANCH  21  23
ENDBRANCH  20  21
ENDBRANCH  19  20
ENDBRANCH  18  19
ENDBRANCH  16  18
ENDBRANCH  13  16
ENDBRANCH  10  13
ENDBRANCH   7  10
ENDBRANCH   4   7
ENDBRANCH   2   4
TORSDOF 17
ENDMDL
MODEL      317
REMARK 921   NORMALIZED FREE ENERGY PREDICTED BY IDOCK:   -3.58 KCAL/MOL
REMARK 922        TOTAL FREE ENERGY PREDICTED BY IDOCK:  -10.59 KCAL/MOL
REMARK 923 INTER-LIGAND FREE ENERGY PREDICTED BY IDOCK:   -7.64 KCAL/MOL
REMARK 924 INTRA-LIGAND FREE ENERGY PREDICTED BY IDOCK:   -2.95 KCAL/MOL
REMARK 927      BINDING AFFINITY PREDICTED BY RF-SCORE:    0.00 PKD
ROOT
HETATM    1  O   UNL     1      -6.714  11.749  70.167  1.00  0.00    -0.421 OA 
HETATM    2  C   UNL     1      -7.193  11.675  68.852  1.00  0.00    -0.113 C  
HETATM    3  H   UNL     1      -6.991  10.980  70.652  1.00  0.00     0.000 HD 
ENDROOT
BRANCH   2   4
HETATM    4  C   UNL     1      -6.746  12.920  68.068  1.00  0.00    -0.109 C  
HETATM    5  O   UNL     1      -6.978  12.713  66.697  1.00  0.00    -0.352 OA 
HETATM    6  H   UNL     1      -6.701  13.482  66.212  1.00  0.00     0.000 HD 
BRANCH   4   7
HETATM    7  C   UNL     1      -7.504  14.191  68.534  1.00  0.00    -0.123 C  
HETATM    8  H   UNL     1      -7.320  16.115  68.326  1.00  0.00     0.000 HD 
HETATM    9  O   UNL     1      -6.856  15.337  68.040  1.00  0.00    -0.115 OA 
BRANCH   7  10
HETATM   10  C   UNL     1      -8.979  14.196  68.051  1.00  0.00    -0.183 C  
HETATM   11  H   UNL     1      -9.967  14.986  66.592  1.00  0.00     0.000 HD 
HETATM   12  O   UNL     1      -9.064  14.982  66.887  1.00  0.00    -0.217 OA 
BRANCH  10  13
HETATM   13  C   UNL     1      -9.973  14.752  69.108  1.00  0.00    -0.181 C  
HETATM   14  H   UNL     1     -10.126  16.335  70.223  1.00  0.00     0.000 HD 
HETATM   15  O   UNL     1      -9.517  15.995  69.577  1.00  0.00    -0.248 OA 
BRANCH  13  16
HETATM   16  C   UNL     1     -11.373  14.944  68.572  1.00  0.00    -0.298 C  
HETATM   17  O   UNL     1     -11.908  16.038  68.655  1.00  0.00    -0.367 OA 
BRANCH  16  18
HETATM   18  O   UNL     1     -12.049  13.922  68.010  1.00  0.00    -0.367 OA 
BRANCH  18  19
HETATM   19 CA   UNL     1     -12.659  12.020  69.377  1.00  0.00    -0.245 Ca 
BRANCH  19  20
HETATM   20  O   UNL     1     -13.269  10.118  70.743  1.00  0.00    -0.379 OA 
BRANCH  20  21
HETATM   21  C   UNL     1     -12.148   9.470  71.105  1.00  0.00    -0.347 C  
HETATM   22  O   UNL     1     -12.000   9.202  72.286  1.00  0.00    -0.321 OA 
BRANCH  21  23
HETATM   23  C   UNL     1     -11.017   9.227  70.131  1.00  0.00    -0.246 C  
HETATM   24  H   UNL     1      -9.088   9.263  70.197  1.00  0.00     0.000 HD 
HETATM   25  O   UNL     1      -9.799   9.416  70.809  1.00  0.00    -0.264 OA 
BRANCH  23  26
HETATM   26  C   UNL     1     -11.042  10.138  68.866  1.00  0.00    -0.207 C  
HETATM   27  H   UNL     1     -10.502  11.944  68.411  1.00  0.00     0.000 HD 
HETATM   28  O   UNL     1     -10.487  11.389  69.182  1.00  0.00    -0.200 OA 
BRANCH  26  29
HETATM   29  C   UNL     1     -10.371   9.579  67.564  1.00  0.00    -0.248 C  
BRANCH  29  30
HETATM   30  O   UNL     1      -9.166   8.947  67.972  1.00  0.00    -0.139 OA 
BRANCH  30  31
HETATM   31  C   UNL     1      -9.024   7.592  67.597  1.00  0.00    -0.127 C  
HETATM   32  O   UNL     1      -9.340   6.747  68.690  1.00  0.00    -0.133 OA 
HETATM   33  C   UNL     1      -9.216   5.382  68.322  1.00  0.00    -0.111 C  
HETATM   34  H   UNL     1      -6.291   8.111  65.854  1.00  0.00     0.000 HD 
HETATM   35  C   UNL     1      -7.734   5.043  68.020  1.00  0.00    -0.083 C  
HETATM   36  O   UNL     1      -6.930   5.296  69.146  1.00  0.00    -0.053 OA 
HETATM   37  C   UNL     1      -7.267   5.921  66.840  1.00  0.00    -0.071 C  
HETATM   38  O   UNL     1      -7.197   8.232  66.107  1.00  0.00    -0.068 OA 
HETATM   39  H   UNL     1      -6.022   5.089  68.961  1.00  0.00     0.000 HD 
HETATM   40  O   UNL     1      -5.896   5.754  66.578  1.00  0.00    -0.017 OA 
HETATM   41  C   UNL     1      -7.544   7.394  67.184  1.00  0.00    -0.107 C  
HETATM   42  H   UNL     1      -5.609   6.294  65.851  1.00  0.00     0.000 HD 
BRANCH  33  43
HETATM   43  C   UNL     1      -9.784   4.529  69.467  1.00  0.00    -0.212 C  
HETATM   44  O   UNL     1      -9.133   3.289  69.550  1.00  0.00    -0.104 OA 
HETATM   45  H   UNL     1      -9.484   2.763  70.258  1.00  0.00     0.000 HD 
ENDBRANCH  33  43
ENDBRANCH  30  31
ENDBRANCH  29  30
BRANCH  29  46
HETATM   46  C   UNL     1     -10.130  10.620  66.414  1.00  0.00    -0.225 C  
HETATM   47  O   UNL     1     -11.046  11.687  66.500  1.00  0.00    -0.289 OA 
HETATM   48  H   UNL     1     -10.901  12.317  65.805  1.00  0.00     0.000 HD 
BRANCH  46  49
HETATM   49  C   UNL     1     -10.063  10.019  64.991  1.00  0.00    -0.157 C  
HETATM   50  H   UNL     1      -8.876  10.099  63.440  1.00  0.00     0.000 HD 
HETATM   51  O   UNL     1      -8.918  10.468  64.315  1.00  0.00    -0.194 OA 
ENDBRANCH  46  49
ENDBRANCH  29  46
ENDBRANCH  26  29
ENDBRANCH  23  26
ENDBRANCH  21  23
ENDBRANCH  20  21
ENDBRANCH  19  20
ENDBRANCH  18  19
ENDBRANCH  16  18
ENDBRANCH  13  16
ENDBRANCH  10  13
ENDBRANCH   7  10
ENDBRANCH   4   7
ENDBRANCH   2   4
TORSDOF 17
ENDMDL
MODEL      318
REMARK 921   NORMALIZED FREE ENERGY PREDICTED BY IDOCK:   -3.58 KCAL/MOL
REMARK 922        TOTAL FREE ENERGY PREDICTED BY IDOCK:  -10.59 KCAL/MOL
REMARK 923 INTER-LIGAND FREE ENERGY PREDICTED BY IDOCK:   -7.94 KCAL/MOL
REMARK 924 INTRA-LIGAND FREE ENERGY PREDICTED BY IDOCK:   -2.65 KCAL/MOL
REMARK 927      BINDING AFFINITY PREDICTED BY RF-SCORE:    0.00 PKD
ROOT
HETATM    1  O   UNL     1     -12.222   8.084  70.307  1.00  0.00    -0.357 OA 
HETATM    2  C   UNL     1     -12.049   7.081  71.272  1.00  0.00    -0.361 C  
HETATM    3  H   UNL     1     -12.953   7.861  69.742  1.00  0.00     0.000 HD 
ENDROOT
BRANCH   2   4
HETATM    4  C   UNL     1     -10.865   7.442  72.186  1.00  0.00    -0.235 C  
HETATM    5  O   UNL     1     -11.263   7.322  73.529  1.00  0.00    -0.568 OA 
HETATM    6  H   UNL     1     -10.532   7.545  74.094  1.00  0.00     0.000 HD 
BRANCH   4   7
HETATM    7  C   UNL     1      -9.642   6.524  71.924  1.00  0.00    -0.150 C  
HETATM    8  H   UNL     1      -9.325   4.632  71.605  1.00  0.00     0.000 HD 
HETATM    9  O   UNL     1     -10.074   5.194  71.765  1.00  0.00    -0.186 OA 
BRANCH   7  10
HETATM   10  C   UNL     1      -8.854   6.954  70.659  1.00  0.00    -0.150 C  
HETATM   11  H   UNL     1      -8.420   6.166  68.950  1.00  0.00     0.000 HD 
HETATM   12  O   UNL     1      -8.903   5.903  69.725  1.00  0.00    -0.126 OA 
BRANCH  10  13
HETATM   13  C   UNL     1      -7.367   7.304  70.945  1.00  0.00    -0.074 C  
HETATM   14  H   UNL     1      -5.728   7.494  69.921  1.00  0.00     0.000 HD 
HETATM   15  O   UNL     1      -6.637   7.279  69.746  1.00  0.00    -0.038 OA 
BRANCH  13  16
HETATM   16  C   UNL     1      -7.182   8.665  71.574  1.00  0.00    -0.098 C  
HETATM   17  O   UNL     1      -6.843   8.749  72.744  1.00  0.00    -0.285 OA 
BRANCH  16  18
HETATM   18  O   UNL     1      -7.395   9.793  70.868  1.00  0.00    -0.321 OA 
BRANCH  18  19
HETATM   19 CA   UNL     1      -9.667  10.541  70.499  1.00  0.00    -0.364 Ca 
BRANCH  19  20
HETATM   20  O   UNL     1     -11.938  11.289  70.129  1.00  0.00    -0.311 OA 
BRANCH  20  21
HETATM   21  C   UNL     1     -11.958  12.633  70.141  1.00  0.00    -0.299 C  
HETATM   22  O   UNL     1     -12.475  13.187  71.096  1.00  0.00    -0.361 OA 
BRANCH  21  23
HETATM   23  C   UNL     1     -11.520  13.447  68.944  1.00  0.00    -0.304 C  
HETATM   24  H   UNL     1     -12.003  15.143  68.160  1.00  0.00     0.000 HD 
HETATM   25  O   UNL     1     -12.278  14.631  68.911  1.00  0.00    -0.246 OA 
BRANCH  23  26
HETATM   26  C   UNL     1     -11.660  12.716  67.574  1.00  0.00    -0.359 C  
HETATM   27  H   UNL     1     -12.891  12.739  66.076  1.00  0.00     0.000 HD 
HETATM   28  O   UNL     1     -12.806  13.184  66.911  1.00  0.00     0.157 OA 
BRANCH  26  29
HETATM   29  C   UNL     1     -10.431  12.769  66.602  1.00  0.00    -0.257 C  
BRANCH  29  30
HETATM   30  O   UNL     1     -10.647  13.879  65.742  1.00  0.00    -0.284 OA 
BRANCH  30  31
HETATM   31  C   UNL     1      -9.679  14.907  65.810  1.00  0.00    -0.324 C  
HETATM   32  O   UNL     1      -8.622  14.525  66.674  1.00  0.00    -0.188 OA 
HETATM   33  C   UNL     1      -7.635  15.543  66.739  1.00  0.00    -0.018 C  
HETATM   34  H   UNL     1     -11.899  17.324  65.879  1.00  0.00     0.000 HD 
HETATM   35  C   UNL     1      -8.218  16.809  67.417  1.00  0.00    -0.177 C  
HETATM   36  O   UNL     1      -8.666  16.512  68.717  1.00  0.00    -0.238 OA 
HETATM   37  C   UNL     1      -9.399  17.316  66.563  1.00  0.00    -0.264 C  
HETATM   38  O   UNL     1     -11.460  16.555  65.537  1.00  0.00     0.276 OA 
HETATM   39  H   UNL     1      -9.024  17.288  69.132  1.00  0.00     0.000 HD 
HETATM   40  O   UNL     1     -10.055  18.399  67.174  1.00  0.00    -0.320 OA 
HETATM   41  C   UNL     1     -10.396  16.161  66.369  1.00  0.00    -0.315 C  
HETATM   42  H   UNL     1     -10.782  18.711  66.647  1.00  0.00     0.000 HD 
BRANCH  33  43
HETATM   43  C   UNL     1      -6.425  14.981  67.503  1.00  0.00    -0.092 C  
HETATM   44  O   UNL     1      -6.225  13.624  67.213  1.00  0.00    -0.408 OA 
HETATM   45  H   UNL     1      -5.478  13.277  67.685  1.00  0.00     0.000 HD 
ENDBRANCH  33  43
ENDBRANCH  30  31
ENDBRANCH  29  30
BRANCH  29  46
HETATM   46  C   UNL     1     -10.132  11.452  65.802  1.00  0.00    -0.246 C  
HETATM   47  O   UNL     1     -11.325  10.784  65.465  1.00  0.00     0.252 OA 
HETATM   48  H   UNL     1     -11.144   9.988  64.981  1.00  0.00     0.000 HD 
BRANCH  46  49
HETATM   49  C   UNL     1      -9.097  10.509  66.457  1.00  0.00    -0.157 C  
HETATM   50  H   UNL     1      -7.328  10.644  67.277  1.00  0.00     0.000 HD 
HETATM   51  O   UNL     1      -7.964  11.224  66.874  1.00  0.00    -0.142 OA 
ENDBRANCH  46  49
ENDBRANCH  29  46
ENDBRANCH  26  29
ENDBRANCH  23  26
ENDBRANCH  21  23
ENDBRANCH  20  21
ENDBRANCH  19  20
ENDBRANCH  18  19
ENDBRANCH  16  18
ENDBRANCH  13  16
ENDBRANCH  10  13
ENDBRANCH   7  10
ENDBRANCH   4   7
ENDBRANCH   2   4
TORSDOF 17
ENDMDL
MODEL      319
REMARK 921   NORMALIZED FREE ENERGY PREDICTED BY IDOCK:   -3.58 KCAL/MOL
REMARK 922        TOTAL FREE ENERGY PREDICTED BY IDOCK:  -10.58 KCAL/MOL
REMARK 923 INTER-LIGAND FREE ENERGY PREDICTED BY IDOCK:   -8.91 KCAL/MOL
REMARK 924 INTRA-LIGAND FREE ENERGY PREDICTED BY IDOCK:   -1.68 KCAL/MOL
REMARK 927      BINDING AFFINITY PREDICTED BY RF-SCORE:    0.00 PKD
ROOT
HETATM    1  O   UNL     1      -8.601   8.983  72.018  1.00  0.00    -0.367 OA 
HETATM    2  C   UNL     1      -8.714   8.341  70.777  1.00  0.00    -0.140 C  
HETATM    3  H   UNL     1      -7.724   9.336  72.117  1.00  0.00     0.000 HD 
ENDROOT
BRANCH   2   4
HETATM    4  C   UNL     1     -10.134   7.771  70.617  1.00  0.00    -0.191 C  
HETATM    5  O   UNL     1     -10.961   8.296  71.625  1.00  0.00    -0.240 OA 
HETATM    6  H   UNL     1     -11.838   7.943  71.526  1.00  0.00     0.000 HD 
BRANCH   4   7
HETATM    7  C   UNL     1     -10.732   8.112  69.227  1.00  0.00    -0.129 C  
HETATM    8  H   UNL     1     -11.033   9.709  68.160  1.00  0.00     0.000 HD 
HETATM    9  O   UNL     1     -10.666   9.501  69.011  1.00  0.00    -0.222 OA 
BRANCH   7  10
HETATM   10  C   UNL     1      -9.982   7.386  68.079  1.00  0.00    -0.164 C  
HETATM   11  H   UNL     1      -9.024   5.722  67.870  1.00  0.00     0.000 HD 
HETATM   12  O   UNL     1      -9.484   6.166  68.573  1.00  0.00    -0.120 OA 
BRANCH  10  13
HETATM   13  C   UNL     1      -8.802   8.210  67.493  1.00  0.00    -0.135 C  
HETATM   14  H   UNL     1      -6.907   7.944  67.162  1.00  0.00     0.000 HD 
HETATM   15  O   UNL     1      -7.628   7.440  67.521  1.00  0.00    -0.101 OA 
BRANCH  13  16
HETATM   16  C   UNL     1      -9.031   8.656  66.068  1.00  0.00    -0.184 C  
HETATM   17  O   UNL     1      -8.196   8.402  65.213  1.00  0.00    -0.134 OA 
BRANCH  16  18
HETATM   18  O   UNL     1     -10.139   9.341  65.722  1.00  0.00    -0.268 OA 
BRANCH  18  19
HETATM   19 CA   UNL     1     -10.819  11.237  67.063  1.00  0.00    -0.196 Ca 
BRANCH  19  20
HETATM   20  O   UNL     1     -11.499  13.133  68.405  1.00  0.00    -0.271 OA 
BRANCH  20  21
HETATM   21  C   UNL     1     -11.359  14.252  67.673  1.00  0.00    -0.324 C  
HETATM   22  O   UNL     1     -12.222  14.508  66.851  1.00  0.00    -0.375 OA 
BRANCH  21  23
HETATM   23  C   UNL     1     -10.098  15.085  67.725  1.00  0.00    -0.234 C  
HETATM   24  H   UNL     1      -8.677  15.543  66.501  1.00  0.00     0.000 HD 
HETATM   25  O   UNL     1      -9.469  15.019  66.469  1.00  0.00    -0.247 OA 
BRANCH  23  26
HETATM   26  C   UNL     1      -9.080  14.658  68.826  1.00  0.00    -0.178 C  
HETATM   27  H   UNL     1      -7.977  13.110  69.210  1.00  0.00     0.000 HD 
HETATM   28  O   UNL     1      -8.597  13.370  68.539  1.00  0.00    -0.154 OA 
BRANCH  26  29
HETATM   29  C   UNL     1      -7.876  15.621  69.106  1.00  0.00    -0.220 C  
BRANCH  29  30
HETATM   30  O   UNL     1      -8.280  16.909  68.662  1.00  0.00    -0.235 OA 
BRANCH  30  31
HETATM   31  C   UNL     1      -7.242  17.762  68.223  1.00  0.00    -0.237 C  
HETATM   32  O   UNL     1      -7.139  18.886  69.080  1.00  0.00    -0.308 OA 
HETATM   33  C   UNL     1      -6.090  19.744  68.659  1.00  0.00    -0.247 C  
HETATM   34  H   UNL     1      -7.965  17.401  65.041  1.00  0.00     0.000 HD 
HETATM   35  C   UNL     1      -6.432  20.369  67.282  1.00  0.00    -0.223 C  
HETATM   36  O   UNL     1      -7.631  21.102  67.357  1.00  0.00    -0.534 OA 
HETATM   37  C   UNL     1      -6.583  19.227  66.256  1.00  0.00    -0.197 C  
HETATM   38  O   UNL     1      -7.737  17.121  65.919  1.00  0.00    -0.446 OA 
HETATM   39  H   UNL     1      -7.841  21.484  66.513  1.00  0.00     0.000 HD 
HETATM   40  O   UNL     1      -7.006  19.707  65.003  1.00  0.00    -0.385 OA 
HETATM   41  C   UNL     1      -7.614  18.219  66.790  1.00  0.00    -0.222 C  
HETATM   42  H   UNL     1      -7.098  19.003  64.372  1.00  0.00     0.000 HD 
BRANCH  33  43
HETATM   43  C   UNL     1      -5.886  20.811  69.746  1.00  0.00    -0.210 C  
HETATM   44  O   UNL     1      -5.871  20.239  71.026  1.00  0.00    -0.399 OA 
HETATM   45  H   UNL     1      -5.745  20.898  71.697  1.00  0.00     0.000 HD 
ENDBRANCH  33  43
ENDBRANCH  30  31
ENDBRANCH  29  30
BRANCH  29  46
HETATM   46  C   UNL     1      -6.496  15.192  68.493  1.00  0.00    -0.093 C  
HETATM   47  O   UNL     1      -6.668  14.605  67.224  1.00  0.00    -0.299 OA 
HETATM   48  H   UNL     1      -5.834  14.345  66.854  1.00  0.00     0.000 HD 
BRANCH  46  49
HETATM   49  C   UNL     1      -5.608  14.331  69.421  1.00  0.00    -0.087 C  
HETATM   50  H   UNL     1      -5.628  13.702  71.272  1.00  0.00     0.000 HD 
HETATM   51  O   UNL     1      -6.174  14.231  70.701  1.00  0.00    -0.188 OA 
ENDBRANCH  46  49
ENDBRANCH  29  46
ENDBRANCH  26  29
ENDBRANCH  23  26
ENDBRANCH  21  23
ENDBRANCH  20  21
ENDBRANCH  19  20
ENDBRANCH  18  19
ENDBRANCH  16  18
ENDBRANCH  13  16
ENDBRANCH  10  13
ENDBRANCH   7  10
ENDBRANCH   4   7
ENDBRANCH   2   4
TORSDOF 17
ENDMDL
MODEL      320
REMARK 921   NORMALIZED FREE ENERGY PREDICTED BY IDOCK:   -3.57 KCAL/MOL
REMARK 922        TOTAL FREE ENERGY PREDICTED BY IDOCK:  -10.56 KCAL/MOL
REMARK 923 INTER-LIGAND FREE ENERGY PREDICTED BY IDOCK:   -8.30 KCAL/MOL
REMARK 924 INTRA-LIGAND FREE ENERGY PREDICTED BY IDOCK:   -2.26 KCAL/MOL
REMARK 927      BINDING AFFINITY PREDICTED BY RF-SCORE:    0.00 PKD
ROOT
HETATM    1  O   UNL     1     -11.512   7.024  68.769  1.00  0.00    -0.494 OA 
HETATM    2  C   UNL     1     -10.914   5.757  68.822  1.00  0.00    -0.153 C  
HETATM    3  H   UNL     1     -11.771   7.292  69.642  1.00  0.00     0.000 HD 
ENDROOT
BRANCH   2   4
HETATM    4  C   UNL     1     -10.496   5.322  67.408  1.00  0.00    -0.148 C  
HETATM    5  O   UNL     1     -10.346   6.461  66.597  1.00  0.00    -0.311 OA 
HETATM    6  H   UNL     1     -10.087   6.192  65.723  1.00  0.00     0.000 HD 
BRANCH   4   7
HETATM    7  C   UNL     1      -9.166   4.523  67.427  1.00  0.00    -0.137 C  
HETATM    8  H   UNL     1      -7.958   3.736  66.122  1.00  0.00     0.000 HD 
HETATM    9  O   UNL     1      -8.772   4.226  66.110  1.00  0.00    -0.112 OA 
BRANCH   7  10
HETATM   10  C   UNL     1      -8.027   5.309  68.130  1.00  0.00    -0.091 C  
HETATM   11  H   UNL     1      -6.189   5.754  67.736  1.00  0.00     0.000 HD 
HETATM   12  O   UNL     1      -6.887   5.273  67.306  1.00  0.00    -0.057 OA 
BRANCH  10  13
HETATM   13  C   UNL     1      -7.655   4.742  69.528  1.00  0.00    -0.059 C  
HETATM   14  H   UNL     1      -6.308   3.556  70.270  1.00  0.00     0.000 HD 
HETATM   15  O   UNL     1      -6.535   3.902  69.415  1.00  0.00    -0.032 OA 
BRANCH  13  16
HETATM   16  C   UNL     1      -7.332   5.813  70.543  1.00  0.00    -0.084 C  
HETATM   17  O   UNL     1      -6.456   6.629  70.303  1.00  0.00    -0.041 OA 
BRANCH  16  18
HETATM   18  O   UNL     1      -7.987   5.879  71.719  1.00  0.00    -0.108 OA 
BRANCH  18  19
HETATM   19 CA   UNL     1      -9.799   7.463  71.972  1.00  0.00    -0.156 Ca 
BRANCH  19  20
HETATM   20  O   UNL     1     -11.610   9.048  72.225  1.00  0.00    -0.328 OA 
BRANCH  20  21
HETATM   21  C   UNL     1     -11.939   9.524  71.012  1.00  0.00    -0.328 C  
HETATM   22  O   UNL     1     -12.805   8.939  70.384  1.00  0.00     0.426 OA 
BRANCH  21  23
HETATM   23  C   UNL     1     -11.156  10.638  70.353  1.00  0.00    -0.174 C  
HETATM   24  H   UNL     1     -11.390  12.534  70.078  1.00  0.00     0.000 HD 
HETATM   25  O   UNL     1     -11.882  11.835  70.492  1.00  0.00    -0.330 OA 
BRANCH  23  26
HETATM   26  C   UNL     1     -10.840  10.407  68.844  1.00  0.00    -0.236 C  
HETATM   27  H   UNL     1     -11.768  10.617  67.155  1.00  0.00     0.000 HD 
HETATM   28  O   UNL     1     -11.961  10.758  68.074  1.00  0.00    -0.537 OA 
BRANCH  26  29
HETATM   29  C   UNL     1      -9.562  11.104  68.262  1.00  0.00    -0.185 C  
BRANCH  29  30
HETATM   30  O   UNL     1      -9.631  10.954  66.851  1.00  0.00    -0.174 OA 
BRANCH  30  31
HETATM   31  C   UNL     1      -9.733  12.153  66.109  1.00  0.00    -0.240 C  
HETATM   32  O   UNL     1     -10.250  13.190  66.927  1.00  0.00    -0.240 OA 
HETATM   33  C   UNL     1     -10.343  14.405  66.199  1.00  0.00    -0.298 C  
HETATM   34  H   UNL     1     -10.813  10.664  63.390  1.00  0.00     0.000 HD 
HETATM   35  C   UNL     1     -11.399  14.271  65.072  1.00  0.00    -0.365 C  
HETATM   36  O   UNL     1     -12.659  13.954  65.612  1.00  0.00    -0.492 OA 
HETATM   37  C   UNL     1     -10.946  13.150  64.114  1.00  0.00    -0.390 C  
HETATM   38  O   UNL     1     -10.219  10.836  64.111  1.00  0.00    -0.336 OA 
HETATM   39  H   UNL     1     -13.306  13.872  64.921  1.00  0.00     0.000 HD 
HETATM   40  O   UNL     1     -11.912  12.890  63.125  1.00  0.00    -0.747 OA 
HETATM   41  C   UNL     1     -10.701  11.872  64.933  1.00  0.00    -0.301 C  
HETATM   42  H   UNL     1     -11.633  12.200  62.535  1.00  0.00     0.000 HD 
BRANCH  33  43
HETATM   43  C   UNL     1     -10.691  15.526  67.190  1.00  0.00    -0.315 C  
HETATM   44  O   UNL     1     -11.676  15.114  68.099  1.00  0.00    -0.348 OA 
HETATM   45  H   UNL     1     -11.891  15.807  68.712  1.00  0.00     0.000 HD 
ENDBRANCH  33  43
ENDBRANCH  30  31
ENDBRANCH  29  30
BRANCH  29  46
HETATM   46  C   UNL     1      -8.188  10.613  68.840  1.00  0.00    -0.145 C  
HETATM   47  O   UNL     1      -7.731  11.474  69.856  1.00  0.00    -0.079 OA 
HETATM   48  H   UNL     1      -6.900  11.177  70.206  1.00  0.00     0.000 HD 
BRANCH  46  49
HETATM   49  C   UNL     1      -7.097  10.326  67.782  1.00  0.00    -0.085 C  
HETATM   50  H   UNL     1      -6.341   8.775  66.864  1.00  0.00     0.000 HD 
HETATM   51  O   UNL     1      -7.012   8.951  67.514  1.00  0.00    -0.073 OA 
ENDBRANCH  46  49
ENDBRANCH  29  46
ENDBRANCH  26  29
ENDBRANCH  23  26
ENDBRANCH  21  23
ENDBRANCH  20  21
ENDBRANCH  19  20
ENDBRANCH  18  19
ENDBRANCH  16  18
ENDBRANCH  13  16
ENDBRANCH  10  13
ENDBRANCH   7  10
ENDBRANCH   4   7
ENDBRANCH   2   4
TORSDOF 17
ENDMDL
MODEL      321
REMARK 921   NORMALIZED FREE ENERGY PREDICTED BY IDOCK:   -3.55 KCAL/MOL
REMARK 922        TOTAL FREE ENERGY PREDICTED BY IDOCK:  -10.52 KCAL/MOL
REMARK 923 INTER-LIGAND FREE ENERGY PREDICTED BY IDOCK:   -9.75 KCAL/MOL
REMARK 924 INTRA-LIGAND FREE ENERGY PREDICTED BY IDOCK:   -0.77 KCAL/MOL
REMARK 927      BINDING AFFINITY PREDICTED BY RF-SCORE:    0.00 PKD
ROOT
HETATM    1  O   UNL     1     -12.616   7.518  72.568  1.00  0.00    -0.513 OA 
HETATM    2  C   UNL     1     -11.796   8.549  72.091  1.00  0.00    -0.379 C  
HETATM    3  H   UNL     1     -13.520   7.696  72.336  1.00  0.00     0.000 HD 
ENDROOT
BRANCH   2   4
HETATM    4  C   UNL     1     -10.332   8.262  72.466  1.00  0.00    -0.331 C  
HETATM    5  O   UNL     1     -10.285   7.694  73.751  1.00  0.00    -0.356 OA 
HETATM    6  H   UNL     1      -9.380   7.517  73.983  1.00  0.00     0.000 HD 
BRANCH   4   7
HETATM    7  C   UNL     1      -9.662   7.299  71.450  1.00  0.00    -0.164 C  
HETATM    8  H   UNL     1      -8.456   7.445  69.932  1.00  0.00     0.000 HD 
HETATM    9  O   UNL     1      -8.866   8.035  70.554  1.00  0.00    -0.134 OA 
BRANCH   7  10
HETATM   10  C   UNL     1      -8.777   6.237  72.155  1.00  0.00    -0.133 C  
HETATM   11  H   UNL     1      -7.039   5.448  71.860  1.00  0.00     0.000 HD 
HETATM   12  O   UNL     1      -7.581   6.099  71.428  1.00  0.00    -0.095 OA 
BRANCH  10  13
HETATM   13  C   UNL     1      -9.457   4.844  72.273  1.00  0.00    -0.139 C  
HETATM   14  H   UNL     1     -11.268   4.150  72.371  1.00  0.00     0.000 HD 
HETATM   15  O   UNL     1     -10.853   5.001  72.300  1.00  0.00    -0.205 OA 
BRANCH  13  16
HETATM   16  C   UNL     1      -9.117   3.913  71.133  1.00  0.00    -0.120 C  
HETATM   17  O   UNL     1      -8.189   3.127  71.250  1.00  0.00    -0.061 OA 
BRANCH  16  18
HETATM   18  O   UNL     1      -9.814   3.939  69.980  1.00  0.00    -0.199 OA 
BRANCH  18  19
HETATM   19 CA   UNL     1      -9.371   5.695  68.375  1.00  0.00    -0.114 Ca 
BRANCH  19  20
HETATM   20  O   UNL     1      -8.927   7.451  66.770  1.00  0.00    -0.129 OA 
BRANCH  20  21
HETATM   21  C   UNL     1      -9.982   8.283  66.736  1.00  0.00    -0.285 C  
HETATM   22  O   UNL     1     -11.004   7.931  67.301  1.00  0.00    -0.199 OA 
BRANCH  21  23
HETATM   23  C   UNL     1      -9.984   9.534  65.887  1.00  0.00    -0.272 C  
HETATM   24  H   UNL     1      -9.071  10.143  64.299  1.00  0.00     0.000 HD 
HETATM   25  O   UNL     1      -9.070   9.357  64.833  1.00  0.00    -0.219 OA 
BRANCH  23  26
HETATM   26  C   UNL     1      -9.627  10.842  66.656  1.00  0.00    -0.185 C  
HETATM   27  H   UNL     1      -8.125  11.518  67.680  1.00  0.00     0.000 HD 
HETATM   28  O   UNL     1      -8.343  10.720  67.212  1.00  0.00    -0.122 OA 
BRANCH  26  29
HETATM   29  C   UNL     1      -9.732  12.192  65.866  1.00  0.00    -0.239 C  
BRANCH  29  30
HETATM   30  O   UNL     1      -8.980  13.147  66.600  1.00  0.00    -0.210 OA 
BRANCH  30  31
HETATM   31  C   UNL     1      -9.463  13.447  67.894  1.00  0.00    -0.216 C  
HETATM   32  O   UNL     1     -10.468  12.519  68.267  1.00  0.00    -0.221 OA 
HETATM   33  C   UNL     1     -10.951  12.800  69.572  1.00  0.00     0.111 C  
HETATM   34  H   UNL     1      -9.449  16.694  67.409  1.00  0.00     0.000 HD 
HETATM   35  C   UNL     1     -11.693  14.162  69.584  1.00  0.00    -0.316 C  
HETATM   36  O   UNL     1     -12.773  14.143  68.681  1.00  0.00    -0.323 OA 
HETATM   37  C   UNL     1     -10.692  15.263  69.176  1.00  0.00    -0.251 C  
HETATM   38  O   UNL     1      -9.085  15.818  67.448  1.00  0.00    -0.192 OA 
HETATM   39  H   UNL     1     -13.227  14.978  68.688  1.00  0.00     0.000 HD 
HETATM   40  O   UNL     1     -11.319  16.515  69.053  1.00  0.00    -0.282 OA 
HETATM   41  C   UNL     1     -10.058  14.877  67.830  1.00  0.00    -0.234 C  
HETATM   42  H   UNL     1     -10.703  17.193  68.803  1.00  0.00     0.000 HD 
BRANCH  33  43
HETATM   43  C   UNL     1     -11.863  11.639  69.999  1.00  0.00    -0.355 C  
HETATM   44  O   UNL     1     -12.416  10.990  68.886  1.00  0.00    -0.683 OA 
HETATM   45  H   UNL     1     -12.979  10.272  69.150  1.00  0.00     0.000 HD 
ENDBRANCH  33  43
ENDBRANCH  30  31
ENDBRANCH  29  30
BRANCH  29  46
HETATM   46  C   UNL     1     -11.186  12.697  65.559  1.00  0.00    -0.302 C  
HETATM   47  O   UNL     1     -12.133  12.020  66.352  1.00  0.00    -0.610 OA 
HETATM   48  H   UNL     1     -13.013  12.325  66.166  1.00  0.00     0.000 HD 
BRANCH  46  49
HETATM   49  C   UNL     1     -11.574  12.704  64.062  1.00  0.00    -0.418 C  
HETATM   50  H   UNL     1     -13.118  13.195  62.968  1.00  0.00     0.000 HD 
HETATM   51  O   UNL     1     -12.879  13.191  63.888  1.00  0.00    -0.653 OA 
ENDBRANCH  46  49
ENDBRANCH  29  46
ENDBRANCH  26  29
ENDBRANCH  23  26
ENDBRANCH  21  23
ENDBRANCH  20  21
ENDBRANCH  19  20
ENDBRANCH  18  19
ENDBRANCH  16  18
ENDBRANCH  13  16
ENDBRANCH  10  13
ENDBRANCH   7  10
ENDBRANCH   4   7
ENDBRANCH   2   4
TORSDOF 17
ENDMDL
MODEL      322
REMARK 921   NORMALIZED FREE ENERGY PREDICTED BY IDOCK:   -3.54 KCAL/MOL
REMARK 922        TOTAL FREE ENERGY PREDICTED BY IDOCK:  -10.50 KCAL/MOL
REMARK 923 INTER-LIGAND FREE ENERGY PREDICTED BY IDOCK:   -8.08 KCAL/MOL
REMARK 924 INTRA-LIGAND FREE ENERGY PREDICTED BY IDOCK:   -2.42 KCAL/MOL
REMARK 927      BINDING AFFINITY PREDICTED BY RF-SCORE:    0.00 PKD
ROOT
HETATM    1  O   UNL     1     -10.851   6.491  73.298  1.00  0.00    -0.298 OA 
HETATM    2  C   UNL     1     -11.457   7.668  72.837  1.00  0.00    -0.290 C  
HETATM    3  H   UNL     1     -10.812   6.503  74.248  1.00  0.00     0.000 HD 
ENDROOT
BRANCH   2   4
HETATM    4  C   UNL     1     -11.520   7.650  71.300  1.00  0.00    -0.269 C  
HETATM    5  O   UNL     1     -12.591   8.452  70.870  1.00  0.00    -0.499 OA 
HETATM    6  H   UNL     1     -12.630   8.441  69.921  1.00  0.00     0.000 HD 
BRANCH   4   7
HETATM    7  C   UNL     1     -10.200   8.166  70.669  1.00  0.00    -0.196 C  
HETATM    8  H   UNL     1      -8.327   8.277  71.178  1.00  0.00     0.000 HD 
HETATM    9  O   UNL     1      -9.135   7.960  71.564  1.00  0.00    -0.129 OA 
BRANCH   7  10
HETATM   10  C   UNL     1      -9.879   7.452  69.329  1.00  0.00    -0.168 C  
HETATM   11  H   UNL     1     -10.300   7.728  67.465  1.00  0.00     0.000 HD 
HETATM   12  O   UNL     1     -10.496   8.166  68.285  1.00  0.00    -0.204 OA 
BRANCH  10  13
HETATM   13  C   UNL     1     -10.363   5.976  69.284  1.00  0.00    -0.233 C  
HETATM   14  H   UNL     1     -11.504   4.888  68.150  1.00  0.00     0.000 HD 
HETATM   15  O   UNL     1     -11.209   5.790  68.178  1.00  0.00    -0.067 OA 
BRANCH  13  16
HETATM   16  C   UNL     1      -9.234   4.978  69.178  1.00  0.00    -0.110 C  
HETATM   17  O   UNL     1      -9.337   3.888  69.720  1.00  0.00    -0.137 OA 
BRANCH  16  18
HETATM   18  O   UNL     1      -8.105   5.272  68.503  1.00  0.00    -0.087 OA 
BRANCH  18  19
HETATM   19 CA   UNL     1      -7.803   7.509  67.629  1.00  0.00    -0.093 Ca 
BRANCH  19  20
HETATM   20  O   UNL     1      -7.502   9.745  66.755  1.00  0.00    -0.093 OA 
BRANCH  20  21
HETATM   21  C   UNL     1      -7.903  10.630  67.685  1.00  0.00    -0.105 C  
HETATM   22  O   UNL     1      -7.924  10.265  68.848  1.00  0.00    -0.097 OA 
BRANCH  21  23
HETATM   23  C   UNL     1      -8.480  11.976  67.307  1.00  0.00    -0.175 C  
HETATM   24  H   UNL     1      -9.189  13.503  68.251  1.00  0.00     0.000 HD 
HETATM   25  O   UNL     1      -8.826  12.658  68.488  1.00  0.00    -0.146 OA 
BRANCH  23  26
HETATM   26  C   UNL     1      -9.728  11.910  66.374  1.00  0.00    -0.221 C  
HETATM   27  H   UNL     1     -11.627  11.571  66.570  1.00  0.00     0.000 HD 
HETATM   28  O   UNL     1     -10.867  11.610  67.139  1.00  0.00    -0.234 OA 
BRANCH  26  29
HETATM   29  C   UNL     1     -10.015  13.158  65.469  1.00  0.00    -0.207 C  
BRANCH  29  30
HETATM   30  O   UNL     1     -11.033  13.902  66.123  1.00  0.00    -0.291 OA 
BRANCH  30  31
HETATM   31  C   UNL     1     -10.612  15.089  66.765  1.00  0.00    -0.301 C  
HETATM   32  O   UNL     1      -9.197  15.183  66.736  1.00  0.00    -0.221 OA 
HETATM   33  C   UNL     1      -8.760  16.378  67.364  1.00  0.00    -0.182 C  
HETATM   34  H   UNL     1     -12.814  14.848  69.187  1.00  0.00     0.000 HD 
HETATM   35  C   UNL     1      -9.089  16.336  68.879  1.00  0.00    -0.250 C  
HETATM   36  O   UNL     1      -8.463  15.234  69.489  1.00  0.00    -0.292 OA 
HETATM   37  C   UNL     1     -10.620  16.220  69.039  1.00  0.00    -0.286 C  
HETATM   38  O   UNL     1     -12.510  14.898  68.289  1.00  0.00     0.045 OA 
HETATM   39  H   UNL     1      -8.665  15.208  70.417  1.00  0.00     0.000 HD 
HETATM   40  O   UNL     1     -10.990  16.061  70.386  1.00  0.00    -0.335 OA 
HETATM   41  C   UNL     1     -11.108  15.006  68.230  1.00  0.00    -0.286 C  
HETATM   42  H   UNL     1     -11.933  15.990  70.484  1.00  0.00     0.000 HD 
BRANCH  33  43
HETATM   43  C   UNL     1      -7.254  16.528  67.102  1.00  0.00    -0.188 C  
HETATM   44  O   UNL     1      -7.004  17.453  66.078  1.00  0.00    -0.271 OA 
HETATM   45  H   UNL     1      -6.073  17.546  65.917  1.00  0.00     0.000 HD 
ENDBRANCH  33  43
ENDBRANCH  30  31
ENDBRANCH  29  30
BRANCH  29  46
HETATM   46  C   UNL     1     -10.378  12.852  63.973  1.00  0.00    -0.322 C  
HETATM   47  O   UNL     1     -11.771  12.727  63.806  1.00  0.00    -0.416 OA 
HETATM   48  H   UNL     1     -11.990  12.542  62.901  1.00  0.00     0.000 HD 
BRANCH  46  49
HETATM   49  C   UNL     1      -9.605  11.671  63.341  1.00  0.00    -0.287 C  
HETATM   50  H   UNL     1      -9.883   9.763  63.020  1.00  0.00     0.000 HD 
HETATM   51  O   UNL     1     -10.358  10.489  63.408  1.00  0.00    -0.135 OA 
ENDBRANCH  46  49
ENDBRANCH  29  46
ENDBRANCH  26  29
ENDBRANCH  23  26
ENDBRANCH  21  23
ENDBRANCH  20  21
ENDBRANCH  19  20
ENDBRANCH  18  19
ENDBRANCH  16  18
ENDBRANCH  13  16
ENDBRANCH  10  13
ENDBRANCH   7  10
ENDBRANCH   4   7
ENDBRANCH   2   4
TORSDOF 17
ENDMDL
MODEL      323
REMARK 921   NORMALIZED FREE ENERGY PREDICTED BY IDOCK:   -3.52 KCAL/MOL
REMARK 922        TOTAL FREE ENERGY PREDICTED BY IDOCK:  -10.46 KCAL/MOL
REMARK 923 INTER-LIGAND FREE ENERGY PREDICTED BY IDOCK:   -7.63 KCAL/MOL
REMARK 924 INTRA-LIGAND FREE ENERGY PREDICTED BY IDOCK:   -2.82 KCAL/MOL
REMARK 927      BINDING AFFINITY PREDICTED BY RF-SCORE:    0.00 PKD
ROOT
HETATM    1  O   UNL     1     -12.024   6.611  69.508  1.00  0.00    -0.642 OA 
HETATM    2  C   UNL     1     -10.764   6.048  69.260  1.00  0.00    -0.332 C  
HETATM    3  H   UNL     1     -12.099   6.834  70.428  1.00  0.00     0.000 HD 
ENDROOT
BRANCH   2   4
HETATM    4  C   UNL     1     -10.643   5.687  67.770  1.00  0.00    -0.200 C  
HETATM    5  O   UNL     1     -11.193   6.723  66.995  1.00  0.00    -0.581 OA 
HETATM    6  H   UNL     1     -11.118   6.500  66.074  1.00  0.00     0.000 HD 
BRANCH   4   7
HETATM    7  C   UNL     1      -9.165   5.462  67.356  1.00  0.00    -0.111 C  
HETATM    8  H   UNL     1      -8.175   5.172  65.708  1.00  0.00     0.000 HD 
HETATM    9  O   UNL     1      -9.081   5.310  65.960  1.00  0.00    -0.144 OA 
BRANCH   7  10
HETATM   10  C   UNL     1      -8.254   6.640  67.792  1.00  0.00    -0.119 C  
HETATM   11  H   UNL     1      -7.546   8.237  66.967  1.00  0.00     0.000 HD 
HETATM   12  O   UNL     1      -8.104   7.515  66.700  1.00  0.00    -0.116 OA 
BRANCH  10  13
HETATM   13  C   UNL     1      -6.847   6.190  68.273  1.00  0.00    -0.074 C  
HETATM   14  H   UNL     1      -5.058   6.075  67.526  1.00  0.00     0.000 HD 
HETATM   15  O   UNL     1      -5.918   6.350  67.232  1.00  0.00    -0.019 OA 
BRANCH  13  16
HETATM   16  C   UNL     1      -6.344   6.967  69.467  1.00  0.00    -0.035 C  
HETATM   17  O   UNL     1      -5.449   7.786  69.323  1.00  0.00    -0.025 OA 
BRANCH  16  18
HETATM   18  O   UNL     1      -6.859   6.765  70.697  1.00  0.00    -0.056 OA 
BRANCH  18  19
HETATM   19 CA   UNL     1      -8.695   8.151  71.448  1.00  0.00    -0.107 Ca 
BRANCH  19  20
HETATM   20  O   UNL     1     -10.531   9.537  72.198  1.00  0.00     0.234 OA 
BRANCH  20  21
HETATM   21  C   UNL     1     -11.506   9.501  71.274  1.00  0.00    -0.377 C  
HETATM   22  O   UNL     1     -12.231   8.521  71.247  1.00  0.00    -0.295 OA 
BRANCH  21  23
HETATM   23  C   UNL     1     -11.609  10.543  70.182  1.00  0.00    -0.326 C  
HETATM   24  H   UNL     1     -12.879  10.993  68.800  1.00  0.00     0.000 HD 
HETATM   25  O   UNL     1     -12.814  10.339  69.486  1.00  0.00     0.054 OA 
BRANCH  23  26
HETATM   26  C   UNL     1     -10.427  10.538  69.166  1.00  0.00    -0.228 C  
HETATM   27  H   UNL     1      -9.776   9.377  67.756  1.00  0.00     0.000 HD 
HETATM   28  O   UNL     1     -10.496   9.379  68.376  1.00  0.00    -0.208 OA 
BRANCH  26  29
HETATM   29  C   UNL     1     -10.268  11.795  68.242  1.00  0.00    -0.205 C  
BRANCH  29  30
HETATM   30  O   UNL     1      -8.891  11.872  67.902  1.00  0.00    -0.157 OA 
BRANCH  30  31
HETATM   31  C   UNL     1      -8.593  11.814  66.522  1.00  0.00    -0.148 C  
HETATM   32  O   UNL     1      -9.767  11.523  65.782  1.00  0.00    -0.221 OA 
HETATM   33  C   UNL     1      -9.485  11.477  64.391  1.00  0.00    -0.080 C  
HETATM   34  H   UNL     1      -5.744  10.243  66.955  1.00  0.00     0.000 HD 
HETATM   35  C   UNL     1      -8.552  10.280  64.076  1.00  0.00    -0.190 C  
HETATM   36  O   UNL     1      -9.151   9.069  64.470  1.00  0.00    -0.424 OA 
HETATM   37  C   UNL     1      -7.230  10.481  64.845  1.00  0.00     0.027 C  
HETATM   38  O   UNL     1      -6.381  10.937  67.070  1.00  0.00    -0.067 OA 
HETATM   39  H   UNL     1      -8.579   8.336  64.276  1.00  0.00     0.000 HD 
HETATM   40  O   UNL     1      -6.371   9.376  64.700  1.00  0.00    -0.074 OA 
HETATM   41  C   UNL     1      -7.553  10.681  66.335  1.00  0.00    -0.138 C  
HETATM   42  H   UNL     1      -5.557   9.501  65.173  1.00  0.00     0.000 HD 
BRANCH  33  43
HETATM   43  C   UNL     1     -10.823  11.383  63.640  1.00  0.00    -0.384 C  
HETATM   44  O   UNL     1     -11.596  12.538  63.830  1.00  0.00    -0.394 OA 
HETATM   45  H   UNL     1     -12.422  12.480  63.365  1.00  0.00     0.000 HD 
ENDBRANCH  33  43
ENDBRANCH  30  31
ENDBRANCH  29  30
BRANCH  29  46
HETATM   46  C   UNL     1     -10.808  13.148  68.825  1.00  0.00    -0.246 C  
HETATM   47  O   UNL     1     -11.280  12.978  70.141  1.00  0.00    -0.467 OA 
HETATM   48  H   UNL     1     -11.606  13.797  70.494  1.00  0.00     0.000 HD 
BRANCH  46  49
HETATM   49  C   UNL     1     -11.829  13.886  67.928  1.00  0.00    -0.378 C  
HETATM   50  H   UNL     1     -12.612  13.676  66.150  1.00  0.00     0.000 HD 
HETATM   51  O   UNL     1     -11.985  13.223  66.701  1.00  0.00    -0.381 OA 
ENDBRANCH  46  49
ENDBRANCH  29  46
ENDBRANCH  26  29
ENDBRANCH  23  26
ENDBRANCH  21  23
ENDBRANCH  20  21
ENDBRANCH  19  20
ENDBRANCH  18  19
ENDBRANCH  16  18
ENDBRANCH  13  16
ENDBRANCH  10  13
ENDBRANCH   7  10
ENDBRANCH   4   7
ENDBRANCH   2   4
TORSDOF 17
ENDMDL
MODEL      324
REMARK 921   NORMALIZED FREE ENERGY PREDICTED BY IDOCK:   -3.51 KCAL/MOL
REMARK 922        TOTAL FREE ENERGY PREDICTED BY IDOCK:  -10.45 KCAL/MOL
REMARK 923 INTER-LIGAND FREE ENERGY PREDICTED BY IDOCK:   -9.67 KCAL/MOL
REMARK 924 INTRA-LIGAND FREE ENERGY PREDICTED BY IDOCK:   -0.77 KCAL/MOL
REMARK 927      BINDING AFFINITY PREDICTED BY RF-SCORE:    0.00 PKD
ROOT
HETATM    1  O   UNL     1     -12.524  15.644  71.486  1.00  0.00    -0.375 OA 
HETATM    2  C   UNL     1     -11.380  15.006  70.986  1.00  0.00    -0.273 C  
HETATM    3  H   UNL     1     -12.420  15.803  72.417  1.00  0.00     0.000 HD 
ENDROOT
BRANCH   2   4
HETATM    4  C   UNL     1     -11.549  14.749  69.479  1.00  0.00    -0.304 C  
HETATM    5  O   UNL     1     -12.775  14.099  69.252  1.00  0.00    -0.440 OA 
HETATM    6  H   UNL     1     -12.879  13.940  68.321  1.00  0.00     0.000 HD 
BRANCH   4   7
HETATM    7  C   UNL     1     -11.506  16.070  68.667  1.00  0.00    -0.377 C  
HETATM    8  H   UNL     1     -10.881  17.891  68.942  1.00  0.00     0.000 HD 
HETATM    9  O   UNL     1     -10.907  17.082  69.439  1.00  0.00    -0.275 OA 
BRANCH   7  10
HETATM   10  C   UNL     1     -10.714  15.911  67.341  1.00  0.00    -0.313 C  
HETATM   11  H   UNL     1     -10.413  16.976  65.759  1.00  0.00     0.000 HD 
HETATM   12  O   UNL     1     -10.898  17.074  66.570  1.00  0.00    -0.133 OA 
BRANCH  10  13
HETATM   13  C   UNL     1     -11.151  14.678  66.504  1.00  0.00    -0.329 C  
HETATM   14  H   UNL     1     -12.818  13.905  65.872  1.00  0.00     0.000 HD 
HETATM   15  O   UNL     1     -12.550  14.660  66.385  1.00  0.00    -0.126 OA 
BRANCH  13  16
HETATM   16  C   UNL     1     -10.566  14.660  65.111  1.00  0.00    -0.421 C  
HETATM   17  O   UNL     1      -9.760  15.517  64.782  1.00  0.00    -0.057 OA 
BRANCH  16  18
HETATM   18  O   UNL     1     -10.928  13.720  64.215  1.00  0.00    -0.367 OA 
BRANCH  18  19
HETATM   19 CA   UNL     1      -9.671  11.655  64.101  1.00  0.00    -0.214 Ca 
BRANCH  19  20
HETATM   20  O   UNL     1      -8.414   9.591  63.987  1.00  0.00    -0.160 OA 
BRANCH  20  21
HETATM   21  C   UNL     1      -8.459   8.991  65.189  1.00  0.00    -0.167 C  
HETATM   22  O   UNL     1      -8.046   7.846  65.271  1.00  0.00    -0.121 OA 
BRANCH  21  23
HETATM   23  C   UNL     1      -9.153   9.627  66.372  1.00  0.00    -0.156 C  
HETATM   24  H   UNL     1      -9.564  11.424  66.946  1.00  0.00     0.000 HD 
HETATM   25  O   UNL     1      -9.128  11.024  66.203  1.00  0.00    -0.180 OA 
BRANCH  23  26
HETATM   26  C   UNL     1      -8.534   9.272  67.758  1.00  0.00    -0.116 C  
HETATM   27  H   UNL     1      -6.790   9.377  68.599  1.00  0.00     0.000 HD 
HETATM   28  O   UNL     1      -7.167   9.594  67.754  1.00  0.00    -0.084 OA 
BRANCH  26  29
HETATM   29  C   UNL     1      -9.216   9.885  69.029  1.00  0.00    -0.168 C  
BRANCH  29  30
HETATM   30  O   UNL     1      -8.554   9.320  70.152  1.00  0.00    -0.158 OA 
BRANCH  30  31
HETATM   31  C   UNL     1      -8.934   8.002  70.491  1.00  0.00    -0.152 C  
HETATM   32  O   UNL     1      -9.391   7.314  69.339  1.00  0.00    -0.152 OA 
HETATM   33  C   UNL     1      -9.762   5.983  69.663  1.00  0.00    -0.152 C  
HETATM   34  H   UNL     1     -10.359   8.882  73.315  1.00  0.00     0.000 HD 
HETATM   35  C   UNL     1     -11.000   5.987  70.597  1.00  0.00    -0.307 C  
HETATM   36  O   UNL     1     -12.084   6.634  69.977  1.00  0.00    -0.633 OA 
HETATM   37  C   UNL     1     -10.624   6.729  71.896  1.00  0.00    -0.209 C  
HETATM   38  O   UNL     1      -9.658   8.811  72.679  1.00  0.00    -0.224 OA 
HETATM   39  H   UNL     1     -12.842   6.636  70.549  1.00  0.00     0.000 HD 
HETATM   40  O   UNL     1     -11.731   6.874  72.751  1.00  0.00    -0.484 OA 
HETATM   41  C   UNL     1     -10.079   8.119  71.529  1.00  0.00    -0.188 C  
HETATM   42  H   UNL     1     -11.499   7.330  73.551  1.00  0.00     0.000 HD 
BRANCH  33  43
HETATM   43  C   UNL     1     -10.029   5.233  68.348  1.00  0.00    -0.159 C  
HETATM   44  O   UNL     1     -10.098   6.117  67.262  1.00  0.00    -0.135 OA 
HETATM   45  H   UNL     1     -10.262   5.653  66.450  1.00  0.00     0.000 HD 
ENDBRANCH  33  43
ENDBRANCH  30  31
ENDBRANCH  29  30
BRANCH  29  46
HETATM   46  C   UNL     1     -10.774   9.721  69.119  1.00  0.00    -0.221 C  
HETATM   47  O   UNL     1     -11.244   8.816  68.147  1.00  0.00    -0.390 OA 
HETATM   48  H   UNL     1     -12.186   8.717  68.202  1.00  0.00     0.000 HD 
BRANCH  46  49
HETATM   49  C   UNL     1     -11.573  11.046  69.120  1.00  0.00    -0.319 C  
HETATM   50  H   UNL     1     -12.446  12.211  67.816  1.00  0.00     0.000 HD 
HETATM   51  O   UNL     1     -11.956  11.397  67.816  1.00  0.00    -0.637 OA 
ENDBRANCH  46  49
ENDBRANCH  29  46
ENDBRANCH  26  29
ENDBRANCH  23  26
ENDBRANCH  21  23
ENDBRANCH  20  21
ENDBRANCH  19  20
ENDBRANCH  18  19
ENDBRANCH  16  18
ENDBRANCH  13  16
ENDBRANCH  10  13
ENDBRANCH   7  10
ENDBRANCH   4   7
ENDBRANCH   2   4
TORSDOF 17
ENDMDL
MODEL      325
REMARK 921   NORMALIZED FREE ENERGY PREDICTED BY IDOCK:   -3.51 KCAL/MOL
REMARK 922        TOTAL FREE ENERGY PREDICTED BY IDOCK:  -10.43 KCAL/MOL
REMARK 923 INTER-LIGAND FREE ENERGY PREDICTED BY IDOCK:   -9.93 KCAL/MOL
REMARK 924 INTRA-LIGAND FREE ENERGY PREDICTED BY IDOCK:   -0.51 KCAL/MOL
REMARK 927      BINDING AFFINITY PREDICTED BY RF-SCORE:    0.00 PKD
ROOT
HETATM    1  O   UNL     1     -10.477   7.080  73.737  1.00  0.00    -0.364 OA 
HETATM    2  C   UNL     1     -10.619   7.915  72.620  1.00  0.00    -0.329 C  
HETATM    3  H   UNL     1     -10.065   7.560  74.445  1.00  0.00     0.000 HD 
ENDROOT
BRANCH   2   4
HETATM    4  C   UNL     1     -11.285   7.137  71.473  1.00  0.00    -0.245 C  
HETATM    5  O   UNL     1     -12.060   8.021  70.701  1.00  0.00    -0.490 OA 
HETATM    6  H   UNL     1     -12.471   7.540  69.992  1.00  0.00     0.000 HD 
BRANCH   4   7
HETATM    7  C   UNL     1     -10.233   6.445  70.567  1.00  0.00    -0.189 C  
HETATM    8  H   UNL     1     -10.212   5.031  69.233  1.00  0.00     0.000 HD 
HETATM    9  O   UNL     1     -10.857   5.454  69.788  1.00  0.00    -0.297 OA 
BRANCH   7  10
HETATM   10  C   UNL     1      -9.524   7.456  69.626  1.00  0.00    -0.156 C  
HETATM   11  H   UNL     1      -8.863   9.265  69.764  1.00  0.00     0.000 HD 
HETATM   12  O   UNL     1      -9.297   8.647  70.340  1.00  0.00    -0.158 OA 
BRANCH  10  13
HETATM   13  C   UNL     1     -10.339   7.785  68.345  1.00  0.00    -0.196 C  
HETATM   14  H   UNL     1     -11.223   9.337  67.581  1.00  0.00     0.000 HD 
HETATM   15  O   UNL     1     -10.725   9.135  68.365  1.00  0.00    -0.194 OA 
BRANCH  13  16
HETATM   16  C   UNL     1      -9.573   7.540  67.066  1.00  0.00    -0.170 C  
HETATM   17  O   UNL     1      -9.514   6.412  66.603  1.00  0.00    -0.154 OA 
BRANCH  16  18
HETATM   18  O   UNL     1      -8.941   8.546  66.430  1.00  0.00    -0.145 OA 
BRANCH  18  19
HETATM   19 CA   UNL     1     -10.216  10.018  64.993  1.00  0.00    -0.261 Ca 
BRANCH  19  20
HETATM   20  O   UNL     1     -11.491  11.490  63.557  1.00  0.00    -0.404 OA 
BRANCH  20  21
HETATM   21  C   UNL     1     -12.339  12.206  64.316  1.00  0.00    -0.371 C  
HETATM   22  O   UNL     1     -13.503  11.848  64.365  1.00  0.00    -0.447 OA 
BRANCH  21  23
HETATM   23  C   UNL     1     -11.927  13.514  64.953  1.00  0.00    -0.379 C  
HETATM   24  H   UNL     1     -11.016  15.117  64.383  1.00  0.00     0.000 HD 
HETATM   25  O   UNL     1     -11.275  14.296  63.982  1.00  0.00    -0.091 OA 
BRANCH  23  26
HETATM   26  C   UNL     1     -10.996  13.367  66.196  1.00  0.00    -0.276 C  
HETATM   27  H   UNL     1      -9.407  12.358  66.664  1.00  0.00     0.000 HD 
HETATM   28  O   UNL     1      -9.974  12.448  65.906  1.00  0.00    -0.250 OA 
BRANCH  26  29
HETATM   29  C   UNL     1     -10.372  14.678  66.787  1.00  0.00    -0.268 C  
BRANCH  29  30
HETATM   30  O   UNL     1      -9.213  14.955  66.014  1.00  0.00    -0.277 OA 
BRANCH  30  31
HETATM   31  C   UNL     1      -8.687  16.260  66.139  1.00  0.00    -0.318 C  
HETATM   32  O   UNL     1      -7.972  16.384  67.358  1.00  0.00    -0.143 OA 
HETATM   33  C   UNL     1      -7.425  17.687  67.489  1.00  0.00    -0.194 C  
HETATM   34  H   UNL     1     -11.369  17.717  64.932  1.00  0.00     0.000 HD 
HETATM   35  C   UNL     1      -8.563  18.731  67.629  1.00  0.00    -0.272 C  
HETATM   36  O   UNL     1      -9.360  18.445  68.753  1.00  0.00    -0.326 OA 
HETATM   37  C   UNL     1      -9.426  18.680  66.352  1.00  0.00    -0.311 C  
HETATM   38  O   UNL     1     -10.630  17.121  64.937  1.00  0.00    -0.620 OA 
HETATM   39  H   UNL     1     -10.057  19.085  68.838  1.00  0.00     0.000 HD 
HETATM   40  O   UNL     1     -10.550  19.522  66.450  1.00  0.00    -0.444 OA 
HETATM   41  C   UNL     1      -9.894  17.232  66.131  1.00  0.00    -0.253 C  
HETATM   42  H   UNL     1     -11.081  19.491  65.664  1.00  0.00     0.000 HD 
BRANCH  33  43
HETATM   43  C   UNL     1      -6.486  17.686  68.706  1.00  0.00    -0.213 C  
HETATM   44  O   UNL     1      -7.209  17.658  69.907  1.00  0.00     0.370 OA 
HETATM   45  H   UNL     1      -6.629  17.657  70.659  1.00  0.00     0.000 HD 
ENDBRANCH  33  43
ENDBRANCH  30  31
ENDBRANCH  29  30
BRANCH  29  46
HETATM   46  C   UNL     1     -10.066  14.659  68.326  1.00  0.00    -0.228 C  
HETATM   47  O   UNL     1      -8.995  13.791  68.616  1.00  0.00    -0.306 OA 
HETATM   48  H   UNL     1      -8.809  13.780  69.547  1.00  0.00     0.000 HD 
BRANCH  46  49
HETATM   49  C   UNL     1     -11.290  14.403  69.234  1.00  0.00    -0.284 C  
HETATM   50  H   UNL     1     -12.284  15.347  70.627  1.00  0.00     0.000 HD 
HETATM   51  O   UNL     1     -11.532  15.505  70.068  1.00  0.00    -0.276 OA 
ENDBRANCH  46  49
ENDBRANCH  29  46
ENDBRANCH  26  29
ENDBRANCH  23  26
ENDBRANCH  21  23
ENDBRANCH  20  21
ENDBRANCH  19  20
ENDBRANCH  18  19
ENDBRANCH  16  18
ENDBRANCH  13  16
ENDBRANCH  10  13
ENDBRANCH   7  10
ENDBRANCH   4   7
ENDBRANCH   2   4
TORSDOF 17
ENDMDL
MODEL      326
REMARK 921   NORMALIZED FREE ENERGY PREDICTED BY IDOCK:   -3.50 KCAL/MOL
REMARK 922        TOTAL FREE ENERGY PREDICTED BY IDOCK:  -10.42 KCAL/MOL
REMARK 923 INTER-LIGAND FREE ENERGY PREDICTED BY IDOCK:   -9.07 KCAL/MOL
REMARK 924 INTRA-LIGAND FREE ENERGY PREDICTED BY IDOCK:   -1.35 KCAL/MOL
REMARK 927      BINDING AFFINITY PREDICTED BY RF-SCORE:    0.00 PKD
ROOT
HETATM    1  O   UNL     1     -10.523  10.899  69.873  1.00  0.00    -0.446 OA 
HETATM    2  C   UNL     1     -11.458  10.935  68.829  1.00  0.00    -0.308 C  
HETATM    3  H   UNL     1     -10.251  10.002  70.027  1.00  0.00     0.000 HD 
ENDROOT
BRANCH   2   4
HETATM    4  C   UNL     1     -11.898  12.388  68.579  1.00  0.00    -0.304 C  
HETATM    5  O   UNL     1     -11.239  13.236  69.487  1.00  0.00    -0.411 OA 
HETATM    6  H   UNL     1     -11.511  14.133  69.332  1.00  0.00     0.000 HD 
BRANCH   4   7
HETATM    7  C   UNL     1     -11.581  12.838  67.128  1.00  0.00    -0.364 C  
HETATM    8  H   UNL     1     -11.837  12.138  65.333  1.00  0.00     0.000 HD 
HETATM    9  O   UNL     1     -12.032  11.862  66.221  1.00  0.00    -0.554 OA 
BRANCH   7  10
HETATM   10  C   UNL     1     -12.247  14.196  66.783  1.00  0.00    -0.394 C  
HETATM   11  H   UNL     1     -13.515  14.836  65.474  1.00  0.00     0.000 HD 
HETATM   12  O   UNL     1     -13.107  14.005  65.685  1.00  0.00    -0.639 OA 
BRANCH  10  13
HETATM   13  C   UNL     1     -11.227  15.315  66.434  1.00  0.00    -0.224 C  
HETATM   14  H   UNL     1      -9.381  15.740  66.861  1.00  0.00     0.000 HD 
HETATM   15  O   UNL     1     -10.005  15.056  67.075  1.00  0.00    -0.238 OA 
BRANCH  13  16
HETATM   16  C   UNL     1     -10.958  15.441  64.953  1.00  0.00    -0.437 C  
HETATM   17  O   UNL     1     -10.981  16.542  64.425  1.00  0.00    -0.872 OA 
BRANCH  16  18
HETATM   18  O   UNL     1     -10.703  14.355  64.197  1.00  0.00     0.010 OA 
BRANCH  18  19
HETATM   19 CA   UNL     1      -9.178  12.670  65.030  1.00  0.00    -0.415 Ca 
BRANCH  19  20
HETATM   20  O   UNL     1      -7.653  10.986  65.863  1.00  0.00    -0.103 OA 
BRANCH  20  21
HETATM   21  C   UNL     1      -8.217  10.377  66.919  1.00  0.00    -0.124 C  
HETATM   22  O   UNL     1      -8.326  11.013  67.954  1.00  0.00    -0.118 OA 
BRANCH  21  23
HETATM   23  C   UNL     1      -8.552   8.902  66.904  1.00  0.00    -0.115 C  
HETATM   24  H   UNL     1      -9.824   7.771  65.994  1.00  0.00     0.000 HD 
HETATM   25  O   UNL     1      -9.614   8.697  66.004  1.00  0.00    -0.236 OA 
BRANCH  23  26
HETATM   26  C   UNL     1      -8.941   8.309  68.292  1.00  0.00    -0.136 C  
HETATM   27  H   UNL     1     -10.341   7.171  69.004  1.00  0.00     0.000 HD 
HETATM   28  O   UNL     1     -10.105   7.533  68.158  1.00  0.00    -0.170 OA 
BRANCH  26  29
HETATM   29  C   UNL     1      -7.846   7.486  69.055  1.00  0.00    -0.120 C  
BRANCH  29  30
HETATM   30  O   UNL     1      -7.589   6.333  68.268  1.00  0.00    -0.095 OA 
BRANCH  30  31
HETATM   31  C   UNL     1      -8.580   5.326  68.309  1.00  0.00    -0.099 C  
HETATM   32  O   UNL     1      -8.340   4.449  69.396  1.00  0.00    -0.072 OA 
HETATM   33  C   UNL     1      -9.338   3.441  69.458  1.00  0.00    -0.170 C  
HETATM   34  H   UNL     1      -8.651   4.927  65.051  1.00  0.00     0.000 HD 
HETATM   35  C   UNL     1      -9.239   2.516  68.217  1.00  0.00    -0.202 C  
HETATM   36  O   UNL     1      -7.971   1.911  68.152  1.00  0.00    -0.057 OA 
HETATM   37  C   UNL     1      -9.474   3.372  66.955  1.00  0.00    -0.156 C  
HETATM   38  O   UNL     1      -8.708   5.402  65.871  1.00  0.00    -0.134 OA 
HETATM   39  H   UNL     1      -7.911   1.345  67.391  1.00  0.00     0.000 HD 
HETATM   40  O   UNL     1      -9.288   2.625  65.778  1.00  0.00    -0.299 OA 
HETATM   41  C   UNL     1      -8.487   4.551  66.970  1.00  0.00    -0.104 C  
HETATM   42  H   UNL     1      -9.433   3.152  65.002  1.00  0.00     0.000 HD 
BRANCH  33  43
HETATM   43  C   UNL     1      -9.150   2.669  70.773  1.00  0.00    -0.118 C  
HETATM   44  O   UNL     1      -8.815   3.531  71.827  1.00  0.00    -0.090 OA 
HETATM   45  H   UNL     1      -8.699   3.054  72.640  1.00  0.00     0.000 HD 
ENDBRANCH  33  43
ENDBRANCH  30  31
ENDBRANCH  29  30
BRANCH  29  46
HETATM   46  C   UNL     1      -8.176   7.122  70.546  1.00  0.00    -0.125 C  
HETATM   47  O   UNL     1      -9.554   6.880  70.713  1.00  0.00    -0.165 OA 
HETATM   48  H   UNL     1      -9.754   6.659  71.615  1.00  0.00     0.000 HD 
BRANCH  46  49
HETATM   49  C   UNL     1      -7.624   8.110  71.599  1.00  0.00    -0.087 C  
HETATM   50  H   UNL     1      -8.332   9.367  72.918  1.00  0.00     0.000 HD 
HETATM   51  O   UNL     1      -8.671   8.760  72.271  1.00  0.00    -0.375 OA 
ENDBRANCH  46  49
ENDBRANCH  29  46
ENDBRANCH  26  29
ENDBRANCH  23  26
ENDBRANCH  21  23
ENDBRANCH  20  21
ENDBRANCH  19  20
ENDBRANCH  18  19
ENDBRANCH  16  18
ENDBRANCH  13  16
ENDBRANCH  10  13
ENDBRANCH   7  10
ENDBRANCH   4   7
ENDBRANCH   2   4
TORSDOF 17
ENDMDL
MODEL      327
REMARK 921   NORMALIZED FREE ENERGY PREDICTED BY IDOCK:   -3.47 KCAL/MOL
REMARK 922        TOTAL FREE ENERGY PREDICTED BY IDOCK:  -10.36 KCAL/MOL
REMARK 923 INTER-LIGAND FREE ENERGY PREDICTED BY IDOCK:   -7.56 KCAL/MOL
REMARK 924 INTRA-LIGAND FREE ENERGY PREDICTED BY IDOCK:   -2.80 KCAL/MOL
REMARK 927      BINDING AFFINITY PREDICTED BY RF-SCORE:    0.00 PKD
ROOT
HETATM    1  O   UNL     1     -11.140   5.889  69.182  1.00  0.00    -0.351 OA 
HETATM    2  C   UNL     1     -10.098   4.991  68.914  1.00  0.00    -0.144 C  
HETATM    3  H   UNL     1     -11.218   6.018  70.120  1.00  0.00     0.000 HD 
ENDROOT
BRANCH   2   4
HETATM    4  C   UNL     1      -9.972   4.783  67.395  1.00  0.00    -0.159 C  
HETATM    5  O   UNL     1     -10.998   5.489  66.743  1.00  0.00    -0.486 OA 
HETATM    6  H   UNL     1     -10.920   5.360  65.805  1.00  0.00     0.000 HD 
BRANCH   4   7
HETATM    7  C   UNL     1      -8.595   5.264  66.866  1.00  0.00    -0.105 C  
HETATM    8  H   UNL     1      -7.913   6.158  65.280  1.00  0.00     0.000 HD 
HETATM    9  O   UNL     1      -8.757   5.864  65.604  1.00  0.00    -0.152 OA 
BRANCH   7  10
HETATM   10  C   UNL     1      -7.929   6.284  67.828  1.00  0.00    -0.114 C  
HETATM   11  H   UNL     1      -7.075   8.008  67.660  1.00  0.00     0.000 HD 
HETATM   12  O   UNL     1      -7.483   7.384  67.072  1.00  0.00    -0.093 OA 
BRANCH  10  13
HETATM   13  C   UNL     1      -6.727   5.696  68.617  1.00  0.00    -0.057 C  
HETATM   14  H   UNL     1      -4.806   5.539  68.375  1.00  0.00     0.000 HD 
HETATM   15  O   UNL     1      -5.541   5.899  67.892  1.00  0.00    -0.008 OA 
BRANCH  13  16
HETATM   16  C   UNL     1      -6.547   6.313  69.984  1.00  0.00    -0.048 C  
HETATM   17  O   UNL     1      -5.810   7.278  70.120  1.00  0.00    -0.023 OA 
BRANCH  16  18
HETATM   18  O   UNL     1      -7.177   5.810  71.064  1.00  0.00    -0.072 OA 
BRANCH  18  19
HETATM   19 CA   UNL     1      -9.477   6.437  71.484  1.00  0.00    -0.148 Ca 
BRANCH  19  20
HETATM   20  O   UNL     1     -11.776   7.064  71.905  1.00  0.00    -0.273 OA 
BRANCH  20  21
HETATM   21  C   UNL     1     -11.982   8.299  71.416  1.00  0.00    -0.299 C  
HETATM   22  O   UNL     1     -13.123   8.729  71.416  1.00  0.00    -0.318 OA 
BRANCH  21  23
HETATM   23  C   UNL     1     -10.885   9.076  70.724  1.00  0.00    -0.251 C  
HETATM   24  H   UNL     1      -9.269   9.985  71.259  1.00  0.00     0.000 HD 
HETATM   25  O   UNL     1      -9.958   9.497  71.694  1.00  0.00    -0.142 OA 
BRANCH  23  26
HETATM   26  C   UNL     1     -11.376  10.317  69.917  1.00  0.00    -0.290 C  
HETATM   27  H   UNL     1     -12.174  12.039  70.316  1.00  0.00     0.000 HD 
HETATM   28  O   UNL     1     -11.875  11.283  70.807  1.00  0.00    -0.322 OA 
BRANCH  26  29
HETATM   29  C   UNL     1     -10.356  10.985  68.933  1.00  0.00    -0.205 C  
BRANCH  29  30
HETATM   30  O   UNL     1     -11.079  11.974  68.215  1.00  0.00    -0.211 OA 
BRANCH  30  31
HETATM   31  C   UNL     1     -10.306  13.014  67.650  1.00  0.00    -0.222 C  
HETATM   32  O   UNL     1      -9.149  13.243  68.436  1.00  0.00    -0.191 OA 
HETATM   33  C   UNL     1      -8.355  14.275  67.871  1.00  0.00    -0.162 C  
HETATM   34  H   UNL     1     -12.911  14.853  66.867  1.00  0.00     0.000 HD 
HETATM   35  C   UNL     1      -9.111  15.627  67.938  1.00  0.00    -0.185 C  
HETATM   36  O   UNL     1      -9.421  15.954  69.271  1.00  0.00    -0.235 OA 
HETATM   37  C   UNL     1     -10.412  15.495  67.118  1.00  0.00    -0.286 C  
HETATM   38  O   UNL     1     -12.364  14.076  66.875  1.00  0.00    -0.418 OA 
HETATM   39  H   UNL     1      -9.884  16.782  69.311  1.00  0.00     0.000 HD 
HETATM   40  O   UNL     1     -11.211  16.647  67.224  1.00  0.00    -0.035 OA 
HETATM   41  C   UNL     1     -11.199  14.280  67.638  1.00  0.00    -0.304 C  
HETATM   42  H   UNL     1     -12.012  16.566  66.719  1.00  0.00     0.000 HD 
BRANCH  33  43
HETATM   43  C   UNL     1      -7.022  14.318  68.634  1.00  0.00    -0.105 C  
HETATM   44  O   UNL     1      -7.229  14.363  70.021  1.00  0.00    -0.389 OA 
HETATM   45  H   UNL     1      -6.406  14.389  70.492  1.00  0.00     0.000 HD 
ENDBRANCH  33  43
ENDBRANCH  30  31
ENDBRANCH  29  30
BRANCH  29  46
HETATM   46  C   UNL     1      -9.583  10.009  67.977  1.00  0.00    -0.138 C  
HETATM   47  O   UNL     1      -8.311  10.520  67.655  1.00  0.00    -0.114 OA 
HETATM   48  H   UNL     1      -7.843   9.929  67.077  1.00  0.00     0.000 HD 
BRANCH  46  49
HETATM   49  C   UNL     1     -10.370   9.563  66.723  1.00  0.00    -0.228 C  
HETATM   50  H   UNL     1     -11.174   7.923  66.025  1.00  0.00     0.000 HD 
HETATM   51  O   UNL     1     -10.690   8.198  66.795  1.00  0.00    -0.278 OA 
ENDBRANCH  46  49
ENDBRANCH  29  46
ENDBRANCH  26  29
ENDBRANCH  23  26
ENDBRANCH  21  23
ENDBRANCH  20  21
ENDBRANCH  19  20
ENDBRANCH  18  19
ENDBRANCH  16  18
ENDBRANCH  13  16
ENDBRANCH  10  13
ENDBRANCH   7  10
ENDBRANCH   4   7
ENDBRANCH   2   4
TORSDOF 17
ENDMDL
MODEL      328
REMARK 921   NORMALIZED FREE ENERGY PREDICTED BY IDOCK:   -3.47 KCAL/MOL
REMARK 922        TOTAL FREE ENERGY PREDICTED BY IDOCK:  -10.36 KCAL/MOL
REMARK 923 INTER-LIGAND FREE ENERGY PREDICTED BY IDOCK:   -9.33 KCAL/MOL
REMARK 924 INTRA-LIGAND FREE ENERGY PREDICTED BY IDOCK:   -1.02 KCAL/MOL
REMARK 927      BINDING AFFINITY PREDICTED BY RF-SCORE:    0.00 PKD
ROOT
HETATM    1  O   UNL     1      -6.096   6.553  74.337  1.00  0.00    -0.064 OA 
HETATM    2  C   UNL     1      -7.377   6.013  74.160  1.00  0.00    -0.088 C  
HETATM    3  H   UNL     1      -5.791   6.371  75.218  1.00  0.00     0.000 HD 
ENDROOT
BRANCH   2   4
HETATM    4  C   UNL     1      -7.871   6.307  72.734  1.00  0.00    -0.105 C  
HETATM    5  O   UNL     1      -8.919   5.426  72.414  1.00  0.00    -0.134 OA 
HETATM    6  H   UNL     1      -9.224   5.608  71.533  1.00  0.00     0.000 HD 
BRANCH   4   7
HETATM    7  C   UNL     1      -8.365   7.771  72.592  1.00  0.00    -0.132 C  
HETATM    8  H   UNL     1      -8.339   9.156  71.228  1.00  0.00     0.000 HD 
HETATM    9  O   UNL     1      -8.037   8.260  71.314  1.00  0.00    -0.100 OA 
BRANCH   7  10
HETATM   10  C   UNL     1      -9.898   7.889  72.800  1.00  0.00    -0.270 C  
HETATM   11  H   UNL     1     -11.183   7.268  74.102  1.00  0.00     0.000 HD 
HETATM   12  O   UNL     1     -10.243   7.196  73.975  1.00  0.00    -0.342 OA 
BRANCH  10  13
HETATM   13  C   UNL     1     -10.729   7.318  71.617  1.00  0.00    -0.215 C  
HETATM   14  H   UNL     1     -12.283   6.176  71.391  1.00  0.00     0.000 HD 
HETATM   15  O   UNL     1     -11.776   6.525  72.115  1.00  0.00    -0.294 OA 
BRANCH  13  16
HETATM   16  C   UNL     1     -11.333   8.386  70.737  1.00  0.00    -0.265 C  
HETATM   17  O   UNL     1     -12.182   9.136  71.193  1.00  0.00    -0.296 OA 
BRANCH  16  18
HETATM   18  O   UNL     1     -10.960   8.521  69.449  1.00  0.00    -0.147 OA 
BRANCH  18  19
HETATM   19 CA   UNL     1      -9.528  10.369  68.824  1.00  0.00    -0.131 Ca 
BRANCH  19  20
HETATM   20  O   UNL     1      -8.095  12.216  68.199  1.00  0.00    -0.144 OA 
BRANCH  20  21
HETATM   21  C   UNL     1      -8.865  13.274  67.890  1.00  0.00    -0.192 C  
HETATM   22  O   UNL     1      -8.465  14.038  67.027  1.00  0.00    -0.207 OA 
BRANCH  21  23
HETATM   23  C   UNL     1     -10.099  13.623  68.691  1.00  0.00    -0.180 C  
HETATM   24  H   UNL     1     -11.736  12.731  69.189  1.00  0.00     0.000 HD 
HETATM   25  O   UNL     1     -10.961  12.512  68.686  1.00  0.00    -0.235 OA 
BRANCH  23  26
HETATM   26  C   UNL     1     -10.877  14.872  68.176  1.00  0.00    -0.256 C  
HETATM   27  H   UNL     1     -12.421  15.216  67.055  1.00  0.00     0.000 HD 
HETATM   28  O   UNL     1     -11.947  14.454  67.368  1.00  0.00    -0.398 OA 
BRANCH  26  29
HETATM   29  C   UNL     1     -11.395  15.890  69.250  1.00  0.00    -0.355 C  
BRANCH  29  30
HETATM   30  O   UNL     1     -10.301  16.743  69.556  1.00  0.00    -0.280 OA 
BRANCH  30  31
HETATM   31  C   UNL     1      -9.359  16.931  68.520  1.00  0.00    -0.259 C  
HETATM   32  O   UNL     1      -8.071  17.160  69.067  1.00  0.00    -0.220 OA 
HETATM   33  C   UNL     1      -7.112  17.336  68.036  1.00  0.00    -0.182 C  
HETATM   34  H   UNL     1     -11.388  18.738  66.677  1.00  0.00     0.000 HD 
HETATM   35  C   UNL     1      -7.407  18.639  67.249  1.00  0.00    -0.217 C  
HETATM   36  O   UNL     1      -7.376  19.752  68.109  1.00  0.00    -0.289 OA 
HETATM   37  C   UNL     1      -8.806  18.512  66.611  1.00  0.00    -0.294 C  
HETATM   38  O   UNL     1     -11.105  17.978  67.171  1.00  0.00    -0.126 OA 
HETATM   39  H   UNL     1      -7.558  20.550  67.626  1.00  0.00     0.000 HD 
HETATM   40  O   UNL     1      -9.195  19.704  65.972  1.00  0.00    -0.356 OA 
HETATM   41  C   UNL     1      -9.821  18.172  67.714  1.00  0.00    -0.310 C  
HETATM   42  H   UNL     1     -10.057  19.625  65.579  1.00  0.00     0.000 HD 
BRANCH  33  43
HETATM   43  C   UNL     1      -5.718  17.353  68.684  1.00  0.00    -0.157 C  
HETATM   44  O   UNL     1      -5.691  18.185  69.812  1.00  0.00    -0.219 OA 
HETATM   45  H   UNL     1      -4.830  18.195  70.213  1.00  0.00     0.000 HD 
ENDBRANCH  33  43
ENDBRANCH  30  31
ENDBRANCH  29  30
BRANCH  29  46
HETATM   46  C   UNL     1     -12.032  15.263  70.540  1.00  0.00    -0.344 C  
HETATM   47  O   UNL     1     -13.319  14.754  70.271  1.00  0.00    -0.577 OA 
HETATM   48  H   UNL     1     -13.704  14.375  71.051  1.00  0.00     0.000 HD 
BRANCH  46  49
HETATM   49  C   UNL     1     -12.012  16.173  71.790  1.00  0.00    -0.489 C  
HETATM   50  H   UNL     1     -13.141  16.520  73.348  1.00  0.00     0.000 HD 
HETATM   51  O   UNL     1     -13.153  15.960  72.580  1.00  0.00    -0.463 OA 
ENDBRANCH  46  49
ENDBRANCH  29  46
ENDBRANCH  26  29
ENDBRANCH  23  26
ENDBRANCH  21  23
ENDBRANCH  20  21
ENDBRANCH  19  20
ENDBRANCH  18  19
ENDBRANCH  16  18
ENDBRANCH  13  16
ENDBRANCH  10  13
ENDBRANCH   7  10
ENDBRANCH   4   7
ENDBRANCH   2   4
TORSDOF 17
ENDMDL
MODEL      329
REMARK 921   NORMALIZED FREE ENERGY PREDICTED BY IDOCK:   -3.47 KCAL/MOL
REMARK 922        TOTAL FREE ENERGY PREDICTED BY IDOCK:  -10.35 KCAL/MOL
REMARK 923 INTER-LIGAND FREE ENERGY PREDICTED BY IDOCK:   -8.60 KCAL/MOL
REMARK 924 INTRA-LIGAND FREE ENERGY PREDICTED BY IDOCK:   -1.76 KCAL/MOL
REMARK 927      BINDING AFFINITY PREDICTED BY RF-SCORE:    0.00 PKD
ROOT
HETATM    1  O   UNL     1      -9.688  15.154  69.726  1.00  0.00    -0.415 OA 
HETATM    2  C   UNL     1      -9.092  15.860  68.672  1.00  0.00    -0.206 C  
HETATM    3  H   UNL     1      -9.386  14.253  69.719  1.00  0.00     0.000 HD 
ENDROOT
BRANCH   2   4
HETATM    4  C   UNL     1      -9.581  17.319  68.685  1.00  0.00    -0.284 C  
HETATM    5  O   UNL     1      -8.503  18.172  68.393  1.00  0.00    -0.287 OA 
HETATM    6  H   UNL     1      -8.804  19.073  68.400  1.00  0.00     0.000 HD 
BRANCH   4   7
HETATM    7  C   UNL     1     -10.716  17.548  67.653  1.00  0.00    -0.306 C  
HETATM    8  H   UNL     1     -11.830  19.031  67.068  1.00  0.00     0.000 HD 
HETATM    9  O   UNL     1     -11.135  18.891  67.700  1.00  0.00    -0.328 OA 
BRANCH   7  10
HETATM   10  C   UNL     1     -10.263  17.212  66.207  1.00  0.00    -0.334 C  
HETATM   11  H   UNL     1      -9.793  18.211  64.622  1.00  0.00     0.000 HD 
HETATM   12  O   UNL     1     -10.071  18.418  65.508  1.00  0.00    -0.450 OA 
BRANCH  10  13
HETATM   13  C   UNL     1     -11.282  16.335  65.428  1.00  0.00     0.037 C  
HETATM   14  H   UNL     1     -11.901  16.163  63.595  1.00  0.00     0.000 HD 
HETATM   15  O   UNL     1     -11.278  16.699  64.071  1.00  0.00    -1.052 OA 
BRANCH  13  16
HETATM   16  C   UNL     1     -10.989  14.856  65.512  1.00  0.00    -0.350 C  
HETATM   17  O   UNL     1     -10.481  14.284  64.560  1.00  0.00    -0.381 OA 
BRANCH  16  18
HETATM   18  O   UNL     1     -11.289  14.148  66.620  1.00  0.00    -0.322 OA 
BRANCH  18  19
HETATM   19 CA   UNL     1      -9.532  12.929  67.752  1.00  0.00    -0.166 Ca 
BRANCH  19  20
HETATM   20  O   UNL     1      -7.776  11.709  68.883  1.00  0.00    -0.125 OA 
BRANCH  20  21
HETATM   21  C   UNL     1      -7.650  10.500  68.308  1.00  0.00    -0.096 C  
HETATM   22  O   UNL     1      -6.628  10.268  67.685  1.00  0.00    -0.065 OA 
BRANCH  21  23
HETATM   23  C   UNL     1      -8.794   9.512  68.273  1.00  0.00    -0.124 C  
HETATM   24  H   UNL     1     -10.547   9.436  67.468  1.00  0.00     0.000 HD 
HETATM   25  O   UNL     1      -9.828  10.057  67.491  1.00  0.00    -0.164 OA 
BRANCH  23  26
HETATM   26  C   UNL     1      -9.364   9.125  69.671  1.00  0.00    -0.172 C  
HETATM   27  H   UNL     1     -10.975   9.478  70.690  1.00  0.00     0.000 HD 
HETATM   28  O   UNL     1     -10.628   9.714  69.838  1.00  0.00    -0.215 OA 
BRANCH  26  29
HETATM   29  C   UNL     1      -9.444   7.599  70.019  1.00  0.00    -0.161 C  
BRANCH  29  30
HETATM   30  O   UNL     1     -10.689   7.137  69.513  1.00  0.00    -0.232 OA 
BRANCH  30  31
HETATM   31  C   UNL     1     -10.647   5.927  68.785  1.00  0.00    -0.272 C  
HETATM   32  O   UNL     1      -9.821   4.986  69.451  1.00  0.00    -0.166 OA 
HETATM   33  C   UNL     1      -9.782   3.759  68.737  1.00  0.00    -0.019 C  
HETATM   34  H   UNL     1     -10.486   7.410  65.861  1.00  0.00     0.000 HD 
HETATM   35  C   UNL     1      -9.076   3.959  67.372  1.00  0.00    -0.156 C  
HETATM   36  O   UNL     1      -7.764   4.431  67.558  1.00  0.00    -0.083 OA 
HETATM   37  C   UNL     1      -9.887   4.985  66.553  1.00  0.00    -0.199 C  
HETATM   38  O   UNL     1     -10.848   7.205  66.714  1.00  0.00    -0.320 OA 
HETATM   39  H   UNL     1      -7.331   4.553  66.721  1.00  0.00     0.000 HD 
HETATM   40  O   UNL     1      -9.246   5.306  65.342  1.00  0.00    -0.228 OA 
HETATM   41  C   UNL     1     -10.055   6.262  67.393  1.00  0.00    -0.156 C  
HETATM   42  H   UNL     1      -9.746   5.937  64.838  1.00  0.00     0.000 HD 
BRANCH  33  43
HETATM   43  C   UNL     1      -9.063   2.723  69.616  1.00  0.00    -0.124 C  
HETATM   44  O   UNL     1      -9.449   2.839  70.959  1.00  0.00    -0.137 OA 
HETATM   45  H   UNL     1      -9.006   2.198  71.502  1.00  0.00     0.000 HD 
ENDBRANCH  33  43
ENDBRANCH  30  31
ENDBRANCH  29  30
BRANCH  29  46
HETATM   46  C   UNL     1      -9.247   7.227  71.531  1.00  0.00    -0.144 C  
HETATM   47  O   UNL     1     -10.101   7.989  72.353  1.00  0.00    -0.218 OA 
HETATM   48  H   UNL     1      -9.982   7.764  73.268  1.00  0.00     0.000 HD 
BRANCH  46  49
HETATM   49  C   UNL     1      -7.783   7.253  72.025  1.00  0.00    -0.089 C  
HETATM   50  H   UNL     1      -6.738   6.506  73.499  1.00  0.00     0.000 HD 
HETATM   51  O   UNL     1      -7.638   6.490  73.195  1.00  0.00    -0.089 OA 
ENDBRANCH  46  49
ENDBRANCH  29  46
ENDBRANCH  26  29
ENDBRANCH  23  26
ENDBRANCH  21  23
ENDBRANCH  20  21
ENDBRANCH  19  20
ENDBRANCH  18  19
ENDBRANCH  16  18
ENDBRANCH  13  16
ENDBRANCH  10  13
ENDBRANCH   7  10
ENDBRANCH   4   7
ENDBRANCH   2   4
TORSDOF 17
ENDMDL
MODEL      330
REMARK 921   NORMALIZED FREE ENERGY PREDICTED BY IDOCK:   -3.47 KCAL/MOL
REMARK 922        TOTAL FREE ENERGY PREDICTED BY IDOCK:  -10.35 KCAL/MOL
REMARK 923 INTER-LIGAND FREE ENERGY PREDICTED BY IDOCK:   -8.95 KCAL/MOL
REMARK 924 INTRA-LIGAND FREE ENERGY PREDICTED BY IDOCK:   -1.40 KCAL/MOL
REMARK 927      BINDING AFFINITY PREDICTED BY RF-SCORE:    0.00 PKD
ROOT
HETATM    1  O   UNL     1      -8.769   8.833  67.976  1.00  0.00    -0.138 OA 
HETATM    2  C   UNL     1      -7.481   8.287  68.060  1.00  0.00    -0.097 C  
HETATM    3  H   UNL     1      -8.757   9.730  68.288  1.00  0.00     0.000 HD 
ENDROOT
BRANCH   2   4
HETATM    4  C   UNL     1      -7.501   6.834  67.556  1.00  0.00    -0.097 C  
HETATM    5  O   UNL     1      -6.222   6.489  67.083  1.00  0.00    -0.033 OA 
HETATM    6  H   UNL     1      -6.234   5.592  66.771  1.00  0.00     0.000 HD 
BRANCH   4   7
HETATM    7  C   UNL     1      -7.921   5.847  68.676  1.00  0.00    -0.103 C  
HETATM    8  H   UNL     1      -8.919   5.927  70.343  1.00  0.00     0.000 HD 
HETATM    9  O   UNL     1      -8.662   6.531  69.657  1.00  0.00    -0.136 OA 
BRANCH   7  10
HETATM   10  C   UNL     1      -8.775   4.674  68.125  1.00  0.00    -0.103 C  
HETATM   11  H   UNL     1      -8.873   3.673  66.477  1.00  0.00     0.000 HD 
HETATM   12  O   UNL     1      -8.350   4.391  66.814  1.00  0.00    -0.105 OA 
BRANCH  10  13
HETATM   13  C   UNL     1     -10.299   4.973  68.107  1.00  0.00    -0.021 C  
HETATM   14  H   UNL     1     -11.576   5.921  69.222  1.00  0.00     0.000 HD 
HETATM   15  O   UNL     1     -10.644   5.738  69.234  1.00  0.00    -0.255 OA 
BRANCH  13  16
HETATM   16  C   UNL     1     -10.748   5.728  66.879  1.00  0.00    -0.305 C  
HETATM   17  O   UNL     1     -10.968   5.121  65.842  1.00  0.00    -0.170 OA 
BRANCH  16  18
HETATM   18  O   UNL     1     -10.901   7.067  66.901  1.00  0.00    -0.354 OA 
BRANCH  18  19
HETATM   19 CA   UNL     1     -10.640   8.248  68.997  1.00  0.00    -0.196 Ca 
BRANCH  19  20
HETATM   20  O   UNL     1     -10.378   9.428  71.093  1.00  0.00    -0.301 OA 
BRANCH  20  21
HETATM   21  C   UNL     1     -11.584   9.546  71.676  1.00  0.00    -0.381 C  
HETATM   22  O   UNL     1     -11.965   8.633  72.389  1.00  0.00    -0.375 OA 
BRANCH  21  23
HETATM   23  C   UNL     1     -12.527  10.678  71.336  1.00  0.00    -0.390 C  
HETATM   24  H   UNL     1     -14.359  10.838  70.751  1.00  0.00     0.000 HD 
HETATM   25  O   UNL     1     -13.767  10.127  70.964  1.00  0.00    -0.189 OA 
BRANCH  23  26
HETATM   26  C   UNL     1     -12.028  11.620  70.198  1.00  0.00    -0.359 C  
HETATM   27  H   UNL     1     -12.066  11.643  68.260  1.00  0.00     0.000 HD 
HETATM   28  O   UNL     1     -12.370  11.068  68.953  1.00  0.00    -0.516 OA 
BRANCH  26  29
HETATM   29  C   UNL     1     -12.485  13.119  70.253  1.00  0.00    -0.163 C  
BRANCH  29  30
HETATM   30  O   UNL     1     -11.532  13.857  69.501  1.00  0.00    -0.264 OA 
BRANCH  30  31
HETATM   31  C   UNL     1     -10.824  13.127  68.519  1.00  0.00    -0.262 C  
HETATM   32  O   UNL     1      -9.456  13.030  68.876  1.00  0.00     0.054 OA 
HETATM   33  C   UNL     1      -8.735  12.286  67.906  1.00  0.00    -0.177 C  
HETATM   34  H   UNL     1     -12.415  14.506  66.000  1.00  0.00     0.000 HD 
HETATM   35  C   UNL     1      -8.705  13.054  66.559  1.00  0.00     0.075 C  
HETATM   36  O   UNL     1      -8.100  14.313  66.722  1.00  0.00    -0.382 OA 
HETATM   37  C   UNL     1     -10.158  13.232  66.071  1.00  0.00    -0.299 C  
HETATM   38  O   UNL     1     -12.324  14.029  66.816  1.00  0.00    -0.439 OA 
HETATM   39  H   UNL     1      -8.082  14.784  65.897  1.00  0.00     0.000 HD 
HETATM   40  O   UNL     1     -10.222  14.022  64.908  1.00  0.00    -0.477 OA 
HETATM   41  C   UNL     1     -10.972  13.906  67.188  1.00  0.00    -0.291 C  
HETATM   42  H   UNL     1     -11.116  14.131  64.608  1.00  0.00     0.000 HD 
BRANCH  33  43
HETATM   43  C   UNL     1      -7.324  12.028  68.458  1.00  0.00    -0.111 C  
HETATM   44  O   UNL     1      -6.365  12.052  67.435  1.00  0.00    -0.106 OA 
HETATM   45  H   UNL     1      -5.493  11.894  67.777  1.00  0.00     0.000 HD 
ENDBRANCH  33  43
ENDBRANCH  30  31
ENDBRANCH  29  30
BRANCH  29  46
HETATM   46  C   UNL     1     -12.698  13.720  71.687  1.00  0.00    -0.321 C  
HETATM   47  O   UNL     1     -14.069  13.867  71.974  1.00  0.00    -0.468 OA 
HETATM   48  H   UNL     1     -14.197  14.231  72.842  1.00  0.00     0.000 HD 
BRANCH  46  49
HETATM   49  C   UNL     1     -11.896  15.009  71.982  1.00  0.00    -0.384 C  
HETATM   50  H   UNL     1     -11.117  15.907  73.533  1.00  0.00     0.000 HD 
HETATM   51  O   UNL     1     -11.609  15.115  73.352  1.00  0.00    -0.309 OA 
ENDBRANCH  46  49
ENDBRANCH  29  46
ENDBRANCH  26  29
ENDBRANCH  23  26
ENDBRANCH  21  23
ENDBRANCH  20  21
ENDBRANCH  19  20
ENDBRANCH  18  19
ENDBRANCH  16  18
ENDBRANCH  13  16
ENDBRANCH  10  13
ENDBRANCH   7  10
ENDBRANCH   4   7
ENDBRANCH   2   4
TORSDOF 17
ENDMDL
MODEL      331
REMARK 921   NORMALIZED FREE ENERGY PREDICTED BY IDOCK:   -3.44 KCAL/MOL
REMARK 922        TOTAL FREE ENERGY PREDICTED BY IDOCK:  -10.30 KCAL/MOL
REMARK 923 INTER-LIGAND FREE ENERGY PREDICTED BY IDOCK:   -6.17 KCAL/MOL
REMARK 924 INTRA-LIGAND FREE ENERGY PREDICTED BY IDOCK:   -4.14 KCAL/MOL
REMARK 927      BINDING AFFINITY PREDICTED BY RF-SCORE:    0.00 PKD
ROOT
HETATM    1  O   UNL     1     -10.745  10.273  71.422  1.00  0.00     0.052 OA 
HETATM    2  C   UNL     1     -11.458   9.369  70.622  1.00  0.00    -0.284 C  
HETATM    3  H   UNL     1     -11.178  10.367  72.262  1.00  0.00     0.000 HD 
ENDROOT
BRANCH   2   4
HETATM    4  C   UNL     1     -10.756   9.216  69.262  1.00  0.00    -0.183 C  
HETATM    5  O   UNL     1     -11.115   7.982  68.690  1.00  0.00    -0.413 OA 
HETATM    6  H   UNL     1     -10.681   7.888  67.850  1.00  0.00     0.000 HD 
BRANCH   4   7
HETATM    7  C   UNL     1     -11.137  10.365  68.292  1.00  0.00    -0.281 C  
HETATM    8  H   UNL     1     -12.448  11.799  68.229  1.00  0.00     0.000 HD 
HETATM    9  O   UNL     1     -12.215  11.096  68.823  1.00  0.00    -0.555 OA 
BRANCH   7  10
HETATM   10  C   UNL     1      -9.948  11.330  68.041  1.00  0.00    -0.179 C  
HETATM   11  H   UNL     1      -9.668  13.241  68.080  1.00  0.00     0.000 HD 
HETATM   12  O   UNL     1     -10.397  12.650  68.234  1.00  0.00    -0.229 OA 
BRANCH  10  13
HETATM   13  C   UNL     1      -9.343  11.208  66.615  1.00  0.00    -0.177 C  
HETATM   14  H   UNL     1      -7.706  11.740  65.714  1.00  0.00     0.000 HD 
HETATM   15  O   UNL     1      -8.077  11.815  66.586  1.00  0.00    -0.161 OA 
BRANCH  13  16
HETATM   16  C   UNL     1      -9.183   9.780  66.151  1.00  0.00    -0.176 C  
HETATM   17  O   UNL     1      -9.907   9.346  65.268  1.00  0.00    -0.231 OA 
BRANCH  16  18
HETATM   18  O   UNL     1      -8.260   8.967  66.703  1.00  0.00    -0.109 OA 
BRANCH  18  19
HETATM   19 CA   UNL     1      -7.744   9.196  69.056  1.00  0.00    -0.068 Ca 
BRANCH  19  20
HETATM   20  O   UNL     1      -7.229   9.426  71.409  1.00  0.00    -0.318 OA 
BRANCH  20  21
HETATM   21  C   UNL     1      -7.756   8.381  72.071  1.00  0.00    -0.123 C  
HETATM   22  O   UNL     1      -8.677   8.598  72.840  1.00  0.00    -0.384 OA 
BRANCH  21  23
HETATM   23  C   UNL     1      -7.132   7.004  72.013  1.00  0.00    -0.073 C  
HETATM   24  H   UNL     1      -5.485   6.247  71.352  1.00  0.00     0.000 HD 
HETATM   25  O   UNL     1      -5.877   7.111  71.388  1.00  0.00    -0.035 OA 
BRANCH  23  26
HETATM   26  C   UNL     1      -7.984   5.935  71.263  1.00  0.00    -0.113 C  
HETATM   27  H   UNL     1      -9.787   5.798  70.562  1.00  0.00     0.000 HD 
HETATM   28  O   UNL     1      -9.268   6.450  71.020  1.00  0.00    -0.153 OA 
BRANCH  26  29
HETATM   29  C   UNL     1      -7.393   5.347  69.935  1.00  0.00    -0.065 C  
BRANCH  29  30
HETATM   30  O   UNL     1      -8.029   6.039  68.871  1.00  0.00    -0.098 OA 
BRANCH  30  31
HETATM   31  C   UNL     1      -8.177   5.314  67.667  1.00  0.00    -0.099 C  
HETATM   32  O   UNL     1      -7.281   5.809  66.686  1.00  0.00    -0.071 OA 
HETATM   33  C   UNL     1      -7.408   5.079  65.476  1.00  0.00    -0.073 C  
HETATM   34  H   UNL     1     -11.450   5.169  67.873  1.00  0.00     0.000 HD 
HETATM   35  C   UNL     1      -8.804   5.326  64.848  1.00  0.00    -0.088 C  
HETATM   36  O   UNL     1      -8.992   6.696  64.588  1.00  0.00    -0.188 OA 
HETATM   37  C   UNL     1      -9.876   4.833  65.842  1.00  0.00    -0.211 C  
HETATM   38  O   UNL     1     -10.554   5.046  68.160  1.00  0.00    -0.018 OA 
HETATM   39  H   UNL     1      -9.848   6.847  64.203  1.00  0.00     0.000 HD 
HETATM   40  O   UNL     1     -11.176   5.127  65.392  1.00  0.00    -0.710 OA 
HETATM   41  C   UNL     1      -9.640   5.516  67.199  1.00  0.00    -0.134 C  
HETATM   42  H   UNL     1     -11.836   4.823  66.004  1.00  0.00     0.000 HD 
BRANCH  33  43
HETATM   43  C   UNL     1      -6.267   5.510  64.541  1.00  0.00    -0.022 C  
HETATM   44  O   UNL     1      -5.964   6.870  64.699  1.00  0.00    -0.035 OA 
HETATM   45  H   UNL     1      -5.259   7.136  64.122  1.00  0.00     0.000 HD 
ENDBRANCH  33  43
ENDBRANCH  30  31
ENDBRANCH  29  30
BRANCH  29  46
HETATM   46  C   UNL     1      -7.494   3.789  69.770  1.00  0.00    -0.052 C  
HETATM   47  O   UNL     1      -8.563   3.270  70.527  1.00  0.00    -0.062 OA 
HETATM   48  H   UNL     1      -8.624   2.328  70.427  1.00  0.00     0.000 HD 
BRANCH  46  49
HETATM   49  C   UNL     1      -6.176   3.018  70.013  1.00  0.00    -0.024 C  
HETATM   50  H   UNL     1      -5.558   1.164  69.994  1.00  0.00     0.000 HD 
HETATM   51  O   UNL     1      -6.368   1.638  69.844  1.00  0.00    -0.024 OA 
ENDBRANCH  46  49
ENDBRANCH  29  46
ENDBRANCH  26  29
ENDBRANCH  23  26
ENDBRANCH  21  23
ENDBRANCH  20  21
ENDBRANCH  19  20
ENDBRANCH  18  19
ENDBRANCH  16  18
ENDBRANCH  13  16
ENDBRANCH  10  13
ENDBRANCH   7  10
ENDBRANCH   4   7
ENDBRANCH   2   4
TORSDOF 17
ENDMDL
MODEL      332
REMARK 921   NORMALIZED FREE ENERGY PREDICTED BY IDOCK:   -3.44 KCAL/MOL
REMARK 922        TOTAL FREE ENERGY PREDICTED BY IDOCK:  -10.30 KCAL/MOL
REMARK 923 INTER-LIGAND FREE ENERGY PREDICTED BY IDOCK:   -9.35 KCAL/MOL
REMARK 924 INTRA-LIGAND FREE ENERGY PREDICTED BY IDOCK:   -0.95 KCAL/MOL
REMARK 927      BINDING AFFINITY PREDICTED BY RF-SCORE:    0.00 PKD
ROOT
HETATM    1  O   UNL     1     -11.157  11.256  70.172  1.00  0.00    -0.475 OA 
HETATM    2  C   UNL     1     -11.828  10.239  70.865  1.00  0.00    -0.377 C  
HETATM    3  H   UNL     1     -11.743  11.992  70.038  1.00  0.00     0.000 HD 
ENDROOT
BRANCH   2   4
HETATM    4  C   UNL     1     -10.880   9.048  71.082  1.00  0.00    -0.294 C  
HETATM    5  O   UNL     1      -9.630   9.523  71.517  1.00  0.00    -0.263 OA 
HETATM    6  H   UNL     1      -9.044   8.787  71.651  1.00  0.00     0.000 HD 
BRANCH   4   7
HETATM    7  C   UNL     1     -11.446   8.051  72.128  1.00  0.00    -0.335 C  
HETATM    8  H   UNL     1     -13.166   7.243  72.538  1.00  0.00     0.000 HD 
HETATM    9  O   UNL     1     -12.820   7.854  71.898  1.00  0.00    -0.316 OA 
BRANCH   7  10
HETATM   10  C   UNL     1     -10.722   6.680  72.073  1.00  0.00    -0.219 C  
HETATM   11  H   UNL     1      -8.928   6.035  72.383  1.00  0.00     0.000 HD 
HETATM   12  O   UNL     1      -9.371   6.875  72.416  1.00  0.00    -0.138 OA 
BRANCH  10  13
HETATM   13  C   UNL     1     -10.794   5.997  70.679  1.00  0.00    -0.297 C  
HETATM   14  H   UNL     1     -11.896   6.129  69.086  1.00  0.00     0.000 HD 
HETATM   15  O   UNL     1     -11.853   6.546  69.939  1.00  0.00    -0.381 OA 
BRANCH  13  16
HETATM   16  C   UNL     1      -9.529   6.155  69.868  1.00  0.00    -0.152 C  
HETATM   17  O   UNL     1      -8.886   7.191  69.946  1.00  0.00    -0.141 OA 
BRANCH  16  18
HETATM   18  O   UNL     1      -9.101   5.175  69.048  1.00  0.00    -0.101 OA 
BRANCH  18  19
HETATM   19 CA   UNL     1      -8.572   5.710  66.748  1.00  0.00    -0.109 Ca 
BRANCH  19  20
HETATM   20  O   UNL     1      -8.043   6.244  64.448  1.00  0.00    -0.124 OA 
BRANCH  20  21
HETATM   21  C   UNL     1      -7.881   7.574  64.340  1.00  0.00    -0.128 C  
HETATM   22  O   UNL     1      -7.821   8.053  63.220  1.00  0.00    -0.136 OA 
BRANCH  21  23
HETATM   23  C   UNL     1      -7.603   8.444  65.546  1.00  0.00    -0.090 C  
HETATM   24  H   UNL     1      -7.148   8.154  67.399  1.00  0.00     0.000 HD 
HETATM   25  O   UNL     1      -7.322   7.608  66.642  1.00  0.00    -0.084 OA 
BRANCH  23  26
HETATM   26  C   UNL     1      -8.763   9.412  65.930  1.00  0.00    -0.154 C  
HETATM   27  H   UNL     1     -10.638   9.260  66.400  1.00  0.00     0.000 HD 
HETATM   28  O   UNL     1      -9.932   8.670  66.166  1.00  0.00    -0.260 OA 
BRANCH  26  29
HETATM   29  C   UNL     1      -8.514  10.395  67.126  1.00  0.00    -0.126 C  
BRANCH  29  30
HETATM   30  O   UNL     1      -9.765  11.003  67.413  1.00  0.00    -0.167 OA 
BRANCH  30  31
HETATM   31  C   UNL     1      -9.900  12.352  67.011  1.00  0.00    -0.211 C  
HETATM   32  O   UNL     1      -9.853  13.204  68.143  1.00  0.00    -0.217 OA 
HETATM   33  C   UNL     1      -9.972  14.564  67.753  1.00  0.00    -0.225 C  
HETATM   34  H   UNL     1     -12.198  11.704  64.759  1.00  0.00     0.000 HD 
HETATM   35  C   UNL     1     -11.380  14.827  67.159  1.00  0.00    -0.356 C  
HETATM   36  O   UNL     1     -12.379  14.524  68.103  1.00  0.00    -0.596 OA 
HETATM   37  C   UNL     1     -11.554  13.934  65.913  1.00  0.00    -0.340 C  
HETATM   38  O   UNL     1     -11.355  11.628  65.189  1.00  0.00    -0.256 OA 
HETATM   39  H   UNL     1     -13.241  14.685  67.739  1.00  0.00     0.000 HD 
HETATM   40  O   UNL     1     -12.853  14.032  65.381  1.00  0.00    -0.658 OA 
HETATM   41  C   UNL     1     -11.276  12.475  66.310  1.00  0.00    -0.315 C  
HETATM   42  H   UNL     1     -12.960  13.482  64.614  1.00  0.00     0.000 HD 
BRANCH  33  43
HETATM   43  C   UNL     1      -9.691  15.437  68.986  1.00  0.00    -0.239 C  
HETATM   44  O   UNL     1      -9.941  14.736  70.175  1.00  0.00    -0.435 OA 
HETATM   45  H   UNL     1      -9.767  15.275  70.936  1.00  0.00     0.000 HD 
ENDBRANCH  33  43
ENDBRANCH  30  31
ENDBRANCH  29  30
BRANCH  29  46
HETATM   46  C   UNL     1      -7.376  11.456  66.917  1.00  0.00    -0.147 C  
HETATM   47  O   UNL     1      -6.611  11.157  65.772  1.00  0.00    -0.357 OA 
HETATM   48  H   UNL     1      -5.923  11.799  65.646  1.00  0.00     0.000 HD 
BRANCH  46  49
HETATM   49  C   UNL     1      -6.492  11.720  68.158  1.00  0.00    -0.051 C  
HETATM   50  H   UNL     1      -4.802  12.612  68.570  1.00  0.00     0.000 HD 
HETATM   51  O   UNL     1      -5.345  12.449  67.807  1.00  0.00    -0.074 OA 
ENDBRANCH  46  49
ENDBRANCH  29  46
ENDBRANCH  26  29
ENDBRANCH  23  26
ENDBRANCH  21  23
ENDBRANCH  20  21
ENDBRANCH  19  20
ENDBRANCH  18  19
ENDBRANCH  16  18
ENDBRANCH  13  16
ENDBRANCH  10  13
ENDBRANCH   7  10
ENDBRANCH   4   7
ENDBRANCH   2   4
TORSDOF 17
ENDMDL
MODEL      333
REMARK 921   NORMALIZED FREE ENERGY PREDICTED BY IDOCK:   -3.43 KCAL/MOL
REMARK 922        TOTAL FREE ENERGY PREDICTED BY IDOCK:  -10.28 KCAL/MOL
REMARK 923 INTER-LIGAND FREE ENERGY PREDICTED BY IDOCK:   -6.99 KCAL/MOL
REMARK 924 INTRA-LIGAND FREE ENERGY PREDICTED BY IDOCK:   -3.28 KCAL/MOL
REMARK 927      BINDING AFFINITY PREDICTED BY RF-SCORE:    0.00 PKD
ROOT
HETATM    1  O   UNL     1     -12.136   7.608  73.056  1.00  0.00    -0.569 OA 
HETATM    2  C   UNL     1     -11.300   8.477  72.341  1.00  0.00    -0.342 C  
HETATM    3  H   UNL     1     -13.042   7.873  72.945  1.00  0.00     0.000 HD 
ENDROOT
BRANCH   2   4
HETATM    4  C   UNL     1      -9.834   8.048  72.520  1.00  0.00    -0.263 C  
HETATM    5  O   UNL     1      -9.555   7.906  73.890  1.00  0.00    -0.340 OA 
HETATM    6  H   UNL     1      -8.649   7.641  74.000  1.00  0.00     0.000 HD 
BRANCH   4   7
HETATM    7  C   UNL     1      -9.539   6.710  71.791  1.00  0.00    -0.158 C  
HETATM    8  H   UNL     1      -8.631   6.143  70.168  1.00  0.00     0.000 HD 
HETATM    9  O   UNL     1      -8.811   6.962  70.614  1.00  0.00    -0.148 OA 
BRANCH   7  10
HETATM   10  C   UNL     1      -8.732   5.729  72.683  1.00  0.00    -0.119 C  
HETATM   11  H   UNL     1      -7.068   4.759  72.540  1.00  0.00     0.000 HD 
HETATM   12  O   UNL     1      -7.562   5.360  71.993  1.00  0.00    -0.095 OA 
BRANCH  10  13
HETATM   13  C   UNL     1      -9.520   4.445  73.060  1.00  0.00    -0.128 C  
HETATM   14  H   UNL     1     -11.380   3.929  73.277  1.00  0.00     0.000 HD 
HETATM   15  O   UNL     1     -10.898   4.715  73.047  1.00  0.00    -0.217 OA 
BRANCH  13  16
HETATM   16  C   UNL     1      -9.265   3.287  72.124  1.00  0.00    -0.111 C  
HETATM   17  O   UNL     1      -8.489   2.403  72.453  1.00  0.00    -0.061 OA 
BRANCH  16  18
HETATM   18  O   UNL     1      -9.871   3.216  70.923  1.00  0.00    -0.148 OA 
BRANCH  18  19
HETATM   19 CA   UNL     1      -9.435   4.938  69.279  1.00  0.00    -0.095 Ca 
BRANCH  19  20
HETATM   20  O   UNL     1      -8.999   6.660  67.636  1.00  0.00    -0.114 OA 
BRANCH  20  21
HETATM   21  C   UNL     1     -10.165   7.233  67.290  1.00  0.00    -0.253 C  
HETATM   22  O   UNL     1     -11.174   6.550  67.345  1.00  0.00    -0.359 OA 
BRANCH  21  23
HETATM   23  C   UNL     1     -10.224   8.616  66.683  1.00  0.00    -0.273 C  
HETATM   24  H   UNL     1      -9.033   9.746  65.667  1.00  0.00     0.000 HD 
HETATM   25  O   UNL     1      -8.996   8.877  66.048  1.00  0.00    -0.167 OA 
BRANCH  23  26
HETATM   26  C   UNL     1     -10.524   9.760  67.699  1.00  0.00    -0.251 C  
HETATM   27  H   UNL     1     -10.601   9.957  69.627  1.00  0.00     0.000 HD 
HETATM   28  O   UNL     1     -10.418   9.260  69.008  1.00  0.00    -0.210 OA 
BRANCH  26  29
HETATM   29  C   UNL     1      -9.682  11.076  67.570  1.00  0.00    -0.172 C  
BRANCH  29  30
HETATM   30  O   UNL     1      -8.840  11.128  68.713  1.00  0.00    -0.162 OA 
BRANCH  30  31
HETATM   31  C   UNL     1      -7.463  10.920  68.472  1.00  0.00    -0.103 C  
HETATM   32  O   UNL     1      -7.245  10.631  67.101  1.00  0.00    -0.091 OA 
HETATM   33  C   UNL     1      -5.864  10.434  66.843  1.00  0.00    -0.052 C  
HETATM   34  H   UNL     1      -6.987   9.229  71.246  1.00  0.00     0.000 HD 
HETATM   35  C   UNL     1      -5.361   9.158  67.567  1.00  0.00    -0.037 C  
HETATM   36  O   UNL     1      -6.081   8.030  67.133  1.00  0.00    -0.050 OA 
HETATM   37  C   UNL     1      -5.561   9.352  69.084  1.00  0.00    -0.036 C  
HETATM   38  O   UNL     1      -7.251   9.968  70.711  1.00  0.00    -0.328 OA 
HETATM   39  H   UNL     1      -5.773   7.248  67.577  1.00  0.00     0.000 HD 
HETATM   40  O   UNL     1      -5.234   8.189  69.804  1.00  0.00    -0.023 OA 
HETATM   41  C   UNL     1      -7.033   9.714  69.345  1.00  0.00    -0.056 C  
HETATM   42  H   UNL     1      -5.356   8.309  70.738  1.00  0.00     0.000 HD 
BRANCH  33  43
HETATM   43  C   UNL     1      -5.674  10.350  65.320  1.00  0.00    -0.134 C  
HETATM   44  O   UNL     1      -6.469   9.338  64.763  1.00  0.00    -0.073 OA 
HETATM   45  H   UNL     1      -6.353   9.286  63.822  1.00  0.00     0.000 HD 
ENDBRANCH  33  43
ENDBRANCH  30  31
ENDBRANCH  29  30
BRANCH  29  46
HETATM   46  C   UNL     1     -10.503  12.400  67.382  1.00  0.00    -0.215 C  
HETATM   47  O   UNL     1     -11.872  12.186  67.636  1.00  0.00    -0.478 OA 
HETATM   48  H   UNL     1     -12.369  12.987  67.522  1.00  0.00     0.000 HD 
BRANCH  46  49
HETATM   49  C   UNL     1     -10.264  13.133  66.041  1.00  0.00    -0.286 C  
HETATM   50  H   UNL     1      -9.702  14.906  65.439  1.00  0.00     0.000 HD 
HETATM   51  O   UNL     1      -9.848  14.455  66.263  1.00  0.00    -0.279 OA 
ENDBRANCH  46  49
ENDBRANCH  29  46
ENDBRANCH  26  29
ENDBRANCH  23  26
ENDBRANCH  21  23
ENDBRANCH  20  21
ENDBRANCH  19  20
ENDBRANCH  18  19
ENDBRANCH  16  18
ENDBRANCH  13  16
ENDBRANCH  10  13
ENDBRANCH   7  10
ENDBRANCH   4   7
ENDBRANCH   2   4
TORSDOF 17
ENDMDL
MODEL      334
REMARK 921   NORMALIZED FREE ENERGY PREDICTED BY IDOCK:   -3.41 KCAL/MOL
REMARK 922        TOTAL FREE ENERGY PREDICTED BY IDOCK:  -10.24 KCAL/MOL
REMARK 923 INTER-LIGAND FREE ENERGY PREDICTED BY IDOCK:   -9.94 KCAL/MOL
REMARK 924 INTRA-LIGAND FREE ENERGY PREDICTED BY IDOCK:   -0.30 KCAL/MOL
REMARK 927      BINDING AFFINITY PREDICTED BY RF-SCORE:    0.00 PKD
ROOT
HETATM    1  O   UNL     1      -7.194  15.446  68.915  1.00  0.00    -0.121 OA 
HETATM    2  C   UNL     1      -6.539  16.654  69.194  1.00  0.00    -0.207 C  
HETATM    3  H   UNL     1      -6.844  14.757  69.469  1.00  0.00     0.000 HD 
ENDROOT
BRANCH   2   4
HETATM    4  C   UNL     1      -7.106  17.768  68.299  1.00  0.00    -0.230 C  
HETATM    5  O   UNL     1      -6.044  18.469  67.701  1.00  0.00    -0.180 OA 
HETATM    6  H   UNL     1      -6.394  19.158  67.148  1.00  0.00     0.000 HD 
BRANCH   4   7
HETATM    7  C   UNL     1      -8.034  17.197  67.195  1.00  0.00    -0.191 C  
HETATM    8  H   UNL     1      -9.932  16.834  66.978  1.00  0.00     0.000 HD 
HETATM    9  O   UNL     1      -9.364  17.184  67.654  1.00  0.00    -0.235 OA 
BRANCH   7  10
HETATM   10  C   UNL     1      -7.959  18.027  65.886  1.00  0.00    -0.021 C  
HETATM   11  H   UNL     1      -6.576  18.922  64.878  1.00  0.00     0.000 HD 
HETATM   12  O   UNL     1      -6.622  18.413  65.679  1.00  0.00    -0.256 OA 
BRANCH  10  13
HETATM   13  C   UNL     1      -8.852  19.299  65.909  1.00  0.00     0.047 C  
HETATM   14  H   UNL     1     -10.717  19.733  65.586  1.00  0.00     0.000 HD 
HETATM   15  O   UNL     1     -10.172  18.955  65.572  1.00  0.00    -0.442 OA 
BRANCH  13  16
HETATM   16  C   UNL     1      -8.880  19.989  67.252  1.00  0.00    -0.344 C  
HETATM   17  O   UNL     1      -7.850  20.452  67.717  1.00  0.00    -0.279 OA 
BRANCH  16  18
HETATM   18  O   UNL     1     -10.024  20.093  67.958  1.00  0.00    -0.396 OA 
BRANCH  18  19
HETATM   19 CA   UNL     1     -10.787  18.196  69.254  1.00  0.00    -0.396 Ca 
BRANCH  19  20
HETATM   20  O   UNL     1     -11.550  16.301  70.551  1.00  0.00    -0.343 OA 
BRANCH  20  21
HETATM   21  C   UNL     1     -10.931  15.195  70.103  1.00  0.00    -0.253 C  
HETATM   22  O   UNL     1      -9.722  15.121  70.241  1.00  0.00     0.008 OA 
BRANCH  21  23
HETATM   23  C   UNL     1     -11.662  14.145  69.296  1.00  0.00    -0.323 C  
HETATM   24  H   UNL     1     -13.496  13.589  69.067  1.00  0.00     0.000 HD 
HETATM   25  O   UNL     1     -13.037  14.248  69.573  1.00  0.00     0.400 OA 
BRANCH  23  26
HETATM   26  C   UNL     1     -11.198  12.680  69.563  1.00  0.00    -0.082 C  
HETATM   27  H   UNL     1     -12.036  10.941  69.742  1.00  0.00     0.000 HD 
HETATM   28  O   UNL     1     -12.319  11.833  69.580  1.00  0.00    -0.190 OA 
BRANCH  26  29
HETATM   29  C   UNL     1     -10.104  12.087  68.610  1.00  0.00    -0.160 C  
BRANCH  29  30
HETATM   30  O   UNL     1     -10.770  11.732  67.406  1.00  0.00    -0.218 OA 
BRANCH  30  31
HETATM   31  C   UNL     1     -10.358  12.428  66.247  1.00  0.00    -0.244 C  
HETATM   32  O   UNL     1     -11.049  13.662  66.149  1.00  0.00    -0.294 OA 
HETATM   33  C   UNL     1     -10.634  14.379  64.996  1.00  0.00    -0.432 C  
HETATM   34  H   UNL     1     -10.256   9.735  64.372  1.00  0.00     0.000 HD 
HETATM   35  C   UNL     1     -11.062  13.621  63.713  1.00  0.00     0.208 C  
HETATM   36  O   UNL     1     -12.459  13.456  63.680  1.00  0.00    -0.711 OA 
HETATM   37  C   UNL     1     -10.374  12.240  63.715  1.00  0.00    -0.435 C  
HETATM   38  O   UNL     1     -10.043  10.288  65.115  1.00  0.00    -0.310 OA 
HETATM   39  H   UNL     1     -12.721  12.991  62.894  1.00  0.00     0.000 HD 
HETATM   40  O   UNL     1     -10.802  11.445  62.636  1.00  0.00    -0.504 OA 
HETATM   41  C   UNL     1     -10.706  11.527  65.036  1.00  0.00    -0.290 C  
HETATM   42  H   UNL     1     -10.378  10.595  62.637  1.00  0.00     0.000 HD 
BRANCH  33  43
HETATM   43  C   UNL     1     -11.246  15.787  65.069  1.00  0.00    -0.308 C  
HETATM   44  O   UNL     1     -11.617  16.248  63.797  1.00  0.00    -1.539 OA 
HETATM   45  H   UNL     1     -11.996  17.117  63.842  1.00  0.00     0.000 HD 
ENDBRANCH  33  43
ENDBRANCH  30  31
ENDBRANCH  29  30
BRANCH  29  46
HETATM   46  C   UNL     1      -9.260  10.897  69.190  1.00  0.00    -0.060 C  
HETATM   47  O   UNL     1      -8.513  10.267  68.176  1.00  0.00    -0.119 OA 
HETATM   48  H   UNL     1      -8.003   9.547  68.527  1.00  0.00     0.000 HD 
BRANCH  46  49
HETATM   49  C   UNL     1     -10.058   9.885  70.045  1.00  0.00    -0.260 C  
HETATM   50  H   UNL     1     -11.116   8.266  69.761  1.00  0.00     0.000 HD 
HETATM   51  O   UNL     1     -10.626   8.888  69.236  1.00  0.00    -0.227 OA 
ENDBRANCH  46  49
ENDBRANCH  29  46
ENDBRANCH  26  29
ENDBRANCH  23  26
ENDBRANCH  21  23
ENDBRANCH  20  21
ENDBRANCH  19  20
ENDBRANCH  18  19
ENDBRANCH  16  18
ENDBRANCH  13  16
ENDBRANCH  10  13
ENDBRANCH   7  10
ENDBRANCH   4   7
ENDBRANCH   2   4
TORSDOF 17
ENDMDL
MODEL      335
REMARK 921   NORMALIZED FREE ENERGY PREDICTED BY IDOCK:   -3.40 KCAL/MOL
REMARK 922        TOTAL FREE ENERGY PREDICTED BY IDOCK:  -10.22 KCAL/MOL
REMARK 923 INTER-LIGAND FREE ENERGY PREDICTED BY IDOCK:   -8.37 KCAL/MOL
REMARK 924 INTRA-LIGAND FREE ENERGY PREDICTED BY IDOCK:   -1.85 KCAL/MOL
REMARK 927      BINDING AFFINITY PREDICTED BY RF-SCORE:    0.00 PKD
ROOT
HETATM    1  O   UNL     1     -10.027  12.689  63.319  1.00  0.00    -0.579 OA 
HETATM    2  C   UNL     1     -11.294  12.113  63.151  1.00  0.00    -0.181 C  
HETATM    3  H   UNL     1      -9.392  12.228  62.783  1.00  0.00     0.000 HD 
ENDROOT
BRANCH   2   4
HETATM    4  C   UNL     1     -12.321  12.859  64.019  1.00  0.00    -0.380 C  
HETATM    5  O   UNL     1     -13.407  12.007  64.288  1.00  0.00    -0.709 OA 
HETATM    6  H   UNL     1     -14.042  12.468  64.824  1.00  0.00     0.000 HD 
BRANCH   4   7
HETATM    7  C   UNL     1     -11.697  13.339  65.355  1.00  0.00    -0.343 C  
HETATM    8  H   UNL     1     -12.247  14.415  66.878  1.00  0.00     0.000 HD 
HETATM    9  O   UNL     1     -12.630  14.121  66.060  1.00  0.00    -0.478 OA 
BRANCH   7  10
HETATM   10  C   UNL     1     -11.257  12.149  66.250  1.00  0.00    -0.334 C  
HETATM   11  H   UNL     1     -11.670  11.511  68.026  1.00  0.00     0.000 HD 
HETATM   12  O   UNL     1     -11.940  12.239  67.478  1.00  0.00    -0.513 OA 
BRANCH  10  13
HETATM   13  C   UNL     1      -9.729  12.115  66.526  1.00  0.00    -0.223 C  
HETATM   14  H   UNL     1      -8.511  12.798  67.876  1.00  0.00     0.000 HD 
HETATM   15  O   UNL     1      -9.446  12.819  67.708  1.00  0.00    -0.191 OA 
BRANCH  13  16
HETATM   16  C   UNL     1      -9.177  10.717  66.676  1.00  0.00    -0.164 C  
HETATM   17  O   UNL     1      -8.145  10.537  67.304  1.00  0.00    -0.114 OA 
BRANCH  16  18
HETATM   18  O   UNL     1      -9.799   9.659  66.118  1.00  0.00    -0.227 OA 
BRANCH  18  19
HETATM   19 CA   UNL     1      -9.561   7.477  67.138  1.00  0.00    -0.128 Ca 
BRANCH  19  20
HETATM   20  O   UNL     1      -9.324   5.296  68.158  1.00  0.00    -0.111 OA 
BRANCH  20  21
HETATM   21  C   UNL     1      -8.423   5.380  69.152  1.00  0.00    -0.103 C  
HETATM   22  O   UNL     1      -8.733   4.929  70.242  1.00  0.00    -0.095 OA 
BRANCH  21  23
HETATM   23  C   UNL     1      -7.136   6.158  68.998  1.00  0.00    -0.081 C  
HETATM   24  H   UNL     1      -5.272   5.867  69.410  1.00  0.00     0.000 HD 
HETATM   25  O   UNL     1      -6.081   5.378  69.507  1.00  0.00    -0.019 OA 
BRANCH  23  26
HETATM   26  C   UNL     1      -7.126   7.548  69.705  1.00  0.00    -0.064 C  
HETATM   27  H   UNL     1      -8.176   9.177  69.638  1.00  0.00     0.000 HD 
HETATM   28  O   UNL     1      -8.181   8.330  69.207  1.00  0.00    -0.114 OA 
BRANCH  26  29
HETATM   29  C   UNL     1      -7.158   7.558  71.272  1.00  0.00    -0.058 C  
BRANCH  29  30
HETATM   30  O   UNL     1      -8.088   8.563  71.648  1.00  0.00    -0.132 OA 
BRANCH  30  31
HETATM   31  C   UNL     1      -9.255   8.108  72.304  1.00  0.00    -0.201 C  
HETATM   32  O   UNL     1      -9.140   6.726  72.599  1.00  0.00    -0.133 OA 
HETATM   33  C   UNL     1     -10.299   6.259  73.272  1.00  0.00    -0.231 C  
HETATM   34  H   UNL     1     -11.291   9.856  70.413  1.00  0.00     0.000 HD 
HETATM   35  C   UNL     1     -11.527   6.326  72.328  1.00  0.00    -0.306 C  
HETATM   36  O   UNL     1     -11.310   5.545  71.178  1.00  0.00    -0.080 OA 
HETATM   37  C   UNL     1     -11.746   7.799  71.923  1.00  0.00    -0.292 C  
HETATM   38  O   UNL     1     -10.566   9.710  71.009  1.00  0.00    -0.311 OA 
HETATM   39  H   UNL     1     -12.062   5.587  70.600  1.00  0.00     0.000 HD 
HETATM   40  O   UNL     1     -12.776   7.929  70.974  1.00  0.00    -0.502 OA 
HETATM   41  C   UNL     1     -10.437   8.347  71.331  1.00  0.00    -0.224 C  
HETATM   42  H   UNL     1     -12.911   8.836  70.726  1.00  0.00     0.000 HD 
BRANCH  33  43
HETATM   43  C   UNL     1     -10.020   4.828  73.759  1.00  0.00    -0.158 C  
HETATM   44  O   UNL     1      -9.815   3.954  72.681  1.00  0.00    -0.136 OA 
HETATM   45  H   UNL     1      -9.642   3.071  72.982  1.00  0.00     0.000 HD 
ENDBRANCH  33  43
ENDBRANCH  30  31
ENDBRANCH  29  30
BRANCH  29  46
HETATM   46  C   UNL     1      -5.772   7.741  71.985  1.00  0.00    -0.036 C  
HETATM   47  O   UNL     1      -5.486   6.643  72.821  1.00  0.00    -0.036 OA 
HETATM   48  H   UNL     1      -4.647   6.753  73.252  1.00  0.00     0.000 HD 
BRANCH  46  49
HETATM   49  C   UNL     1      -5.582   9.093  72.711  1.00  0.00    -0.053 C  
HETATM   50  H   UNL     1      -6.309  10.012  74.275  1.00  0.00     0.000 HD 
HETATM   51  O   UNL     1      -6.425   9.181  73.830  1.00  0.00    -0.332 OA 
ENDBRANCH  46  49
ENDBRANCH  29  46
ENDBRANCH  26  29
ENDBRANCH  23  26
ENDBRANCH  21  23
ENDBRANCH  20  21
ENDBRANCH  19  20
ENDBRANCH  18  19
ENDBRANCH  16  18
ENDBRANCH  13  16
ENDBRANCH  10  13
ENDBRANCH   7  10
ENDBRANCH   4   7
ENDBRANCH   2   4
TORSDOF 17
ENDMDL
MODEL      336
REMARK 921   NORMALIZED FREE ENERGY PREDICTED BY IDOCK:   -3.39 KCAL/MOL
REMARK 922        TOTAL FREE ENERGY PREDICTED BY IDOCK:  -10.19 KCAL/MOL
REMARK 923 INTER-LIGAND FREE ENERGY PREDICTED BY IDOCK:   -8.47 KCAL/MOL
REMARK 924 INTRA-LIGAND FREE ENERGY PREDICTED BY IDOCK:   -1.72 KCAL/MOL
REMARK 927      BINDING AFFINITY PREDICTED BY RF-SCORE:    0.00 PKD
ROOT
HETATM    1  O   UNL     1      -6.579  12.194  70.205  1.00  0.00    -0.447 OA 
HETATM    2  C   UNL     1      -7.161  12.067  68.937  1.00  0.00    -0.089 C  
HETATM    3  H   UNL     1      -6.992  11.587  70.809  1.00  0.00     0.000 HD 
ENDROOT
BRANCH   2   4
HETATM    4  C   UNL     1      -6.493  13.049  67.960  1.00  0.00    -0.120 C  
HETATM    5  O   UNL     1      -6.599  12.547  66.651  1.00  0.00    -0.428 OA 
HETATM    6  H   UNL     1      -6.186  13.153  66.048  1.00  0.00     0.000 HD 
BRANCH   4   7
HETATM    7  C   UNL     1      -7.145  14.455  68.029  1.00  0.00    -0.138 C  
HETATM    8  H   UNL     1      -6.851  16.202  67.228  1.00  0.00     0.000 HD 
HETATM    9  O   UNL     1      -6.451  15.341  67.185  1.00  0.00    -0.299 OA 
BRANCH   7  10
HETATM   10  C   UNL     1      -8.639  14.422  67.608  1.00  0.00    -0.185 C  
HETATM   11  H   UNL     1      -9.711  15.204  66.204  1.00  0.00     0.000 HD 
HETATM   12  O   UNL     1      -8.796  15.224  66.462  1.00  0.00    -0.276 OA 
BRANCH  10  13
HETATM   13  C   UNL     1      -9.604  14.931  68.714  1.00  0.00    -0.214 C  
HETATM   14  H   UNL     1      -9.587  16.286  70.104  1.00  0.00     0.000 HD 
HETATM   15  O   UNL     1      -8.996  15.976  69.428  1.00  0.00    -0.244 OA 
BRANCH  13  16
HETATM   16  C   UNL     1     -10.919  15.441  68.174  1.00  0.00    -0.297 C  
HETATM   17  O   UNL     1     -11.213  16.619  68.310  1.00  0.00    -0.349 OA 
BRANCH  16  18
HETATM   18  O   UNL     1     -11.785  14.616  67.552  1.00  0.00    -0.365 OA 
BRANCH  18  19
HETATM   19 CA   UNL     1     -12.489  12.588  68.669  1.00  0.00    -0.289 Ca 
BRANCH  19  20
HETATM   20  O   UNL     1     -13.192  10.559  69.784  1.00  0.00     0.007 OA 
BRANCH  20  21
HETATM   21  C   UNL     1     -12.146  10.052  70.459  1.00  0.00    -0.251 C  
HETATM   22  O   UNL     1     -12.163  10.125  71.676  1.00  0.00    -0.382 OA 
BRANCH  21  23
HETATM   23  C   UNL     1     -10.902   9.564  69.751  1.00  0.00    -0.243 C  
HETATM   24  H   UNL     1      -8.999   9.646  70.061  1.00  0.00     0.000 HD 
HETATM   25  O   UNL     1      -9.780   9.953  70.505  1.00  0.00    -0.203 OA 
BRANCH  23  26
HETATM   26  C   UNL     1     -10.738  10.085  68.291  1.00  0.00    -0.240 C  
HETATM   27  H   UNL     1     -10.207  11.738  67.428  1.00  0.00     0.000 HD 
HETATM   28  O   UNL     1     -10.307  11.421  68.318  1.00  0.00    -0.180 OA 
BRANCH  26  29
HETATM   29  C   UNL     1      -9.818   9.255  67.330  1.00  0.00    -0.182 C  
BRANCH  29  30
HETATM   30  O   UNL     1      -9.021   8.421  68.158  1.00  0.00    -0.138 OA 
BRANCH  30  31
HETATM   31  C   UNL     1      -8.919   7.070  67.756  1.00  0.00    -0.121 C  
HETATM   32  O   UNL     1      -7.791   6.895  66.915  1.00  0.00    -0.104 OA 
HETATM   33  C   UNL     1      -7.668   5.539  66.515  1.00  0.00    -0.100 C  
HETATM   34  H   UNL     1     -12.151   6.708  67.309  1.00  0.00     0.000 HD 
HETATM   35  C   UNL     1      -8.860   5.140  65.608  1.00  0.00    -0.146 C  
HETATM   36  O   UNL     1      -8.907   5.960  64.466  1.00  0.00    -0.357 OA 
HETATM   37  C   UNL     1     -10.162   5.303  66.420  1.00  0.00    -0.249 C  
HETATM   38  O   UNL     1     -11.356   6.913  67.785  1.00  0.00    -0.110 OA 
HETATM   39  H   UNL     1      -9.638   5.715  63.910  1.00  0.00     0.000 HD 
HETATM   40  O   UNL     1     -11.301   5.069  65.629  1.00  0.00    -0.832 OA 
HETATM   41  C   UNL     1     -10.217   6.735  66.979  1.00  0.00    -0.237 C  
HETATM   42  H   UNL     1     -12.102   5.169  66.129  1.00  0.00     0.000 HD 
BRANCH  33  43
HETATM   43  C   UNL     1      -6.317   5.376  65.802  1.00  0.00    -0.035 C  
HETATM   44  O   UNL     1      -6.421   4.507  64.706  1.00  0.00    -0.037 OA 
HETATM   45  H   UNL     1      -5.586   4.407  64.265  1.00  0.00     0.000 HD 
ENDBRANCH  33  43
ENDBRANCH  30  31
ENDBRANCH  29  30
BRANCH  29  46
HETATM   46  C   UNL     1      -8.950  10.088  66.322  1.00  0.00    -0.148 C  
HETATM   47  O   UNL     1      -9.704  11.130  65.747  1.00  0.00    -0.206 OA 
HETATM   48  H   UNL     1      -9.179  11.634  65.138  1.00  0.00     0.000 HD 
BRANCH  46  49
HETATM   49  C   UNL     1      -8.202   9.252  65.258  1.00  0.00    -0.134 C  
HETATM   50  H   UNL     1      -6.459   9.260  64.372  1.00  0.00     0.000 HD 
HETATM   51  O   UNL     1      -6.919   9.774  65.026  1.00  0.00    -0.106 OA 
ENDBRANCH  46  49
ENDBRANCH  29  46
ENDBRANCH  26  29
ENDBRANCH  23  26
ENDBRANCH  21  23
ENDBRANCH  20  21
ENDBRANCH  19  20
ENDBRANCH  18  19
ENDBRANCH  16  18
ENDBRANCH  13  16
ENDBRANCH  10  13
ENDBRANCH   7  10
ENDBRANCH   4   7
ENDBRANCH   2   4
TORSDOF 17
ENDMDL
MODEL      337
REMARK 921   NORMALIZED FREE ENERGY PREDICTED BY IDOCK:   -3.38 KCAL/MOL
REMARK 922        TOTAL FREE ENERGY PREDICTED BY IDOCK:  -10.19 KCAL/MOL
REMARK 923 INTER-LIGAND FREE ENERGY PREDICTED BY IDOCK:   -7.55 KCAL/MOL
REMARK 924 INTRA-LIGAND FREE ENERGY PREDICTED BY IDOCK:   -2.64 KCAL/MOL
REMARK 927      BINDING AFFINITY PREDICTED BY RF-SCORE:    0.00 PKD
ROOT
HETATM    1  O   UNL     1     -14.306   6.098  72.329  1.00  0.00    -0.538 OA 
HETATM    2  C   UNL     1     -13.995   7.087  71.387  1.00  0.00    -0.183 C  
HETATM    3  H   UNL     1     -15.198   5.799  72.197  1.00  0.00     0.000 HD 
ENDROOT
BRANCH   2   4
HETATM    4  C   UNL     1     -12.551   7.571  71.601  1.00  0.00    -0.348 C  
HETATM    5  O   UNL     1     -12.453   8.202  72.854  1.00  0.00    -0.617 OA 
HETATM    6  H   UNL     1     -11.561   8.501  72.986  1.00  0.00     0.000 HD 
BRANCH   4   7
HETATM    7  C   UNL     1     -11.540   6.396  71.535  1.00  0.00    -0.310 C  
HETATM    8  H   UNL     1     -10.054   5.858  70.401  1.00  0.00     0.000 HD 
HETATM    9  O   UNL     1     -10.673   6.578  70.442  1.00  0.00    -0.226 OA 
BRANCH   7  10
HETATM   10  C   UNL     1     -10.698   6.280  72.833  1.00  0.00    -0.247 C  
HETATM   11  H   UNL     1      -8.858   6.581  73.336  1.00  0.00     0.000 HD 
HETATM   12  O   UNL     1      -9.373   6.652  72.540  1.00  0.00    -0.139 OA 
BRANCH  10  13
HETATM   13  C   UNL     1     -10.696   4.851  73.444  1.00  0.00    -0.268 C  
HETATM   14  H   UNL     1     -11.930   3.356  73.569  1.00  0.00     0.000 HD 
HETATM   15  O   UNL     1     -11.931   4.230  73.196  1.00  0.00    -0.029 OA 
BRANCH  13  16
HETATM   16  C   UNL     1      -9.609   3.962  72.887  1.00  0.00    -0.126 C  
HETATM   17  O   UNL     1      -8.687   3.610  73.607  1.00  0.00    -0.088 OA 
BRANCH  16  18
HETATM   18  O   UNL     1      -9.631   3.557  71.602  1.00  0.00    -0.136 OA 
BRANCH  18  19
HETATM   19 CA   UNL     1      -8.616   4.957  69.908  1.00  0.00    -0.078 Ca 
BRANCH  19  20
HETATM   20  O   UNL     1      -7.601   6.356  68.214  1.00  0.00    -0.099 OA 
BRANCH  20  21
HETATM   21  C   UNL     1      -8.531   7.204  67.742  1.00  0.00    -0.120 C  
HETATM   22  O   UNL     1      -9.653   6.770  67.545  1.00  0.00    -0.125 OA 
BRANCH  21  23
HETATM   23  C   UNL     1      -8.177   8.605  67.295  1.00  0.00    -0.105 C  
HETATM   24  H   UNL     1      -6.789   9.421  66.230  1.00  0.00     0.000 HD 
HETATM   25  O   UNL     1      -7.011   8.541  66.511  1.00  0.00    -0.073 OA 
BRANCH  23  26
HETATM   26  C   UNL     1      -7.953   9.621  68.456  1.00  0.00    -0.089 C  
HETATM   27  H   UNL     1      -6.552  10.834  69.026  1.00  0.00     0.000 HD 
HETATM   28  O   UNL     1      -6.688  10.215  68.318  1.00  0.00    -0.054 OA 
BRANCH  26  29
HETATM   29  C   UNL     1      -9.038  10.735  68.658  1.00  0.00    -0.173 C  
BRANCH  29  30
HETATM   30  O   UNL     1      -8.337  11.922  68.997  1.00  0.00     0.047 OA 
BRANCH  30  31
HETATM   31  C   UNL     1      -8.751  13.095  68.326  1.00  0.00    -0.165 C  
HETATM   32  O   UNL     1      -9.954  13.583  68.895  1.00  0.00    -0.126 OA 
HETATM   33  C   UNL     1     -10.374  14.770  68.239  1.00  0.00    -0.238 C  
HETATM   34  H   UNL     1      -7.951  11.963  65.350  1.00  0.00     0.000 HD 
HETATM   35  C   UNL     1     -10.767  14.459  66.772  1.00  0.00    -0.292 C  
HETATM   36  O   UNL     1     -11.807  13.512  66.730  1.00  0.00    -0.364 OA 
HETATM   37  C   UNL     1      -9.525  13.902  66.046  1.00  0.00    -0.118 C  
HETATM   38  O   UNL     1      -7.808  12.202  66.257  1.00  0.00     0.213 OA 
HETATM   39  H   UNL     1     -12.048  13.321  65.832  1.00  0.00     0.000 HD 
HETATM   40  O   UNL     1      -9.832  13.487  64.737  1.00  0.00    -0.607 OA 
HETATM   41  C   UNL     1      -8.984  12.704  66.844  1.00  0.00    -0.213 C  
HETATM   42  H   UNL     1      -9.067  13.145  64.290  1.00  0.00     0.000 HD 
BRANCH  33  43
HETATM   43  C   UNL     1     -11.543  15.365  69.040  1.00  0.00    -0.347 C  
HETATM   44  O   UNL     1     -12.545  14.410  69.264  1.00  0.00    -0.553 OA 
HETATM   45  H   UNL     1     -13.267  14.778  69.758  1.00  0.00     0.000 HD 
ENDBRANCH  33  43
ENDBRANCH  30  31
ENDBRANCH  29  30
BRANCH  29  46
HETATM   46  C   UNL     1     -10.176  10.407  69.688  1.00  0.00    -0.209 C  
HETATM   47  O   UNL     1      -9.790   9.362  70.551  1.00  0.00    -0.234 OA 
HETATM   48  H   UNL     1     -10.477   9.164  71.175  1.00  0.00     0.000 HD 
BRANCH  46  49
HETATM   49  C   UNL     1     -11.572  10.167  69.068  1.00  0.00    -0.011 C  
HETATM   50  H   UNL     1     -13.434  10.127  69.663  1.00  0.00     0.000 HD 
HETATM   51  O   UNL     1     -12.576  10.274  70.044  1.00  0.00    -0.161 OA 
ENDBRANCH  46  49
ENDBRANCH  29  46
ENDBRANCH  26  29
ENDBRANCH  23  26
ENDBRANCH  21  23
ENDBRANCH  20  21
ENDBRANCH  19  20
ENDBRANCH  18  19
ENDBRANCH  16  18
ENDBRANCH  13  16
ENDBRANCH  10  13
ENDBRANCH   7  10
ENDBRANCH   4   7
ENDBRANCH   2   4
TORSDOF 17
ENDMDL
MODEL      338
REMARK 921   NORMALIZED FREE ENERGY PREDICTED BY IDOCK:   -3.38 KCAL/MOL
REMARK 922        TOTAL FREE ENERGY PREDICTED BY IDOCK:  -10.18 KCAL/MOL
REMARK 923 INTER-LIGAND FREE ENERGY PREDICTED BY IDOCK:   -7.91 KCAL/MOL
REMARK 924 INTRA-LIGAND FREE ENERGY PREDICTED BY IDOCK:   -2.27 KCAL/MOL
REMARK 927      BINDING AFFINITY PREDICTED BY RF-SCORE:    0.00 PKD
ROOT
HETATM    1  O   UNL     1      -6.601  10.336  68.048  1.00  0.00    -0.060 OA 
HETATM    2  C   UNL     1      -7.840  10.266  67.395  1.00  0.00    -0.102 C  
HETATM    3  H   UNL     1      -6.269  11.225  68.009  1.00  0.00     0.000 HD 
ENDROOT
BRANCH   2   4
HETATM    4  C   UNL     1      -8.378   8.826  67.459  1.00  0.00    -0.109 C  
HETATM    5  O   UNL     1      -9.011   8.621  68.697  1.00  0.00    -0.141 OA 
HETATM    6  H   UNL     1      -9.343   7.732  68.736  1.00  0.00     0.000 HD 
BRANCH   4   7
HETATM    7  C   UNL     1      -9.382   8.542  66.311  1.00  0.00    -0.224 C  
HETATM    8  H   UNL     1      -9.402   8.673  64.371  1.00  0.00     0.000 HD 
HETATM    9  O   UNL     1      -8.786   8.847  65.074  1.00  0.00    -0.190 OA 
BRANCH   7  10
HETATM   10  C   UNL     1      -9.844   7.060  66.298  1.00  0.00     0.060 C  
HETATM   11  H   UNL     1     -11.053   5.966  67.333  1.00  0.00     0.000 HD 
HETATM   12  O   UNL     1     -10.770   6.873  67.341  1.00  0.00    -0.257 OA 
BRANCH  10  13
HETATM   13  C   UNL     1      -8.679   6.047  66.473  1.00  0.00    -0.128 C  
HETATM   14  H   UNL     1      -7.856   5.064  67.931  1.00  0.00     0.000 HD 
HETATM   15  O   UNL     1      -8.568   5.683  67.824  1.00  0.00    -0.103 OA 
BRANCH  13  16
HETATM   16  C   UNL     1      -8.856   4.784  65.664  1.00  0.00    -0.135 C  
HETATM   17  O   UNL     1      -9.066   4.858  64.463  1.00  0.00    -0.139 OA 
BRANCH  16  18
HETATM   18  O   UNL     1      -8.798   3.570  66.247  1.00  0.00    -0.118 OA 
BRANCH  18  19
HETATM   19 CA   UNL     1      -8.587   3.427  68.654  1.00  0.00    -0.075 Ca 
BRANCH  19  20
HETATM   20  O   UNL     1      -8.378   3.285  71.061  1.00  0.00    -0.063 OA 
BRANCH  20  21
HETATM   21  C   UNL     1      -9.541   3.663  71.618  1.00  0.00    -0.156 C  
HETATM   22  O   UNL     1     -10.278   2.791  72.047  1.00  0.00    -0.151 OA 
BRANCH  21  23
HETATM   23  C   UNL     1     -10.020   5.096  71.570  1.00  0.00    -0.187 C  
HETATM   24  H   UNL     1     -10.815   6.256  70.247  1.00  0.00     0.000 HD 
HETATM   25  O   UNL     1     -10.514   5.356  70.278  1.00  0.00    -0.271 OA 
BRANCH  23  26
HETATM   26  C   UNL     1      -8.933   6.157  71.921  1.00  0.00    -0.140 C  
HETATM   27  H   UNL     1      -7.768   7.366  70.950  1.00  0.00     0.000 HD 
HETATM   28  O   UNL     1      -8.430   6.719  70.736  1.00  0.00    -0.130 OA 
BRANCH  26  29
HETATM   29  C   UNL     1      -9.338   7.301  72.914  1.00  0.00    -0.154 C  
BRANCH  29  30
HETATM   30  O   UNL     1      -9.485   8.478  72.133  1.00  0.00    -0.257 OA 
BRANCH  30  31
HETATM   31  C   UNL     1     -10.749   8.661  71.528  1.00  0.00    -0.282 C  
HETATM   32  O   UNL     1     -10.773   9.883  70.809  1.00  0.00    -0.306 OA 
HETATM   33  C   UNL     1     -12.033  10.073  70.183  1.00  0.00    -0.131 C  
HETATM   34  H   UNL     1     -12.421   7.527  74.116  1.00  0.00     0.000 HD 
HETATM   35  C   UNL     1     -13.137  10.263  71.255  1.00  0.00    -0.398 C  
HETATM   36  O   UNL     1     -12.850  11.373  72.069  1.00  0.00    -0.359 OA 
HETATM   37  C   UNL     1     -13.198   8.985  72.119  1.00  0.00    -0.446 C  
HETATM   38  O   UNL     1     -11.782   7.504  73.414  1.00  0.00     0.014 OA 
HETATM   39  H   UNL     1     -13.526  11.489  72.725  1.00  0.00     0.000 HD 
HETATM   40  O   UNL     1     -14.101   9.125  73.188  1.00  0.00    -1.104 OA 
HETATM   41  C   UNL     1     -11.793   8.700  72.673  1.00  0.00    -0.164 C  
HETATM   42  H   UNL     1     -14.138   8.338  73.720  1.00  0.00     0.000 HD 
BRANCH  33  43
HETATM   43  C   UNL     1     -11.919  11.286  69.247  1.00  0.00    -0.342 C  
HETATM   44  O   UNL     1     -11.117  12.290  69.810  1.00  0.00    -0.470 OA 
HETATM   45  H   UNL     1     -11.047  13.039  69.231  1.00  0.00     0.000 HD 
ENDBRANCH  33  43
ENDBRANCH  30  31
ENDBRANCH  29  30
BRANCH  29  46
HETATM   46  C   UNL     1      -8.379   7.520  74.137  1.00  0.00    -0.201 C  
HETATM   47  O   UNL     1      -8.165   8.893  74.371  1.00  0.00    -0.334 OA 
HETATM   48  H   UNL     1      -7.585   9.026  75.110  1.00  0.00     0.000 HD 
BRANCH  46  49
HETATM   49  C   UNL     1      -7.055   6.723  74.081  1.00  0.00    -0.093 C  
HETATM   50  H   UNL     1      -5.235   6.982  73.416  1.00  0.00     0.000 HD 
HETATM   51  O   UNL     1      -6.049   7.472  73.451  1.00  0.00    -0.058 OA 
ENDBRANCH  46  49
ENDBRANCH  29  46
ENDBRANCH  26  29
ENDBRANCH  23  26
ENDBRANCH  21  23
ENDBRANCH  20  21
ENDBRANCH  19  20
ENDBRANCH  18  19
ENDBRANCH  16  18
ENDBRANCH  13  16
ENDBRANCH  10  13
ENDBRANCH   7  10
ENDBRANCH   4   7
ENDBRANCH   2   4
TORSDOF 17
ENDMDL
MODEL      339
REMARK 921   NORMALIZED FREE ENERGY PREDICTED BY IDOCK:   -3.36 KCAL/MOL
REMARK 922        TOTAL FREE ENERGY PREDICTED BY IDOCK:  -10.14 KCAL/MOL
REMARK 923 INTER-LIGAND FREE ENERGY PREDICTED BY IDOCK:   -9.86 KCAL/MOL
REMARK 924 INTRA-LIGAND FREE ENERGY PREDICTED BY IDOCK:   -0.28 KCAL/MOL
REMARK 927      BINDING AFFINITY PREDICTED BY RF-SCORE:    0.00 PKD
ROOT
HETATM    1  O   UNL     1      -8.118   8.798  69.203  1.00  0.00    -0.113 OA 
HETATM    2  C   UNL     1      -7.000   8.602  68.380  1.00  0.00    -0.066 C  
HETATM    3  H   UNL     1      -7.951   9.516  69.803  1.00  0.00     0.000 HD 
ENDROOT
BRANCH   2   4
HETATM    4  C   UNL     1      -7.270   7.440  67.410  1.00  0.00    -0.093 C  
HETATM    5  O   UNL     1      -6.525   7.634  66.233  1.00  0.00    -0.047 OA 
HETATM    6  H   UNL     1      -6.691   6.916  65.634  1.00  0.00     0.000 HD 
BRANCH   4   7
HETATM    7  C   UNL     1      -6.893   6.073  68.040  1.00  0.00    -0.063 C  
HETATM    8  H   UNL     1      -6.819   5.298  69.822  1.00  0.00     0.000 HD 
HETATM    9  O   UNL     1      -7.050   6.136  69.436  1.00  0.00    -0.065 OA 
BRANCH   7  10
HETATM   10  C   UNL     1      -7.769   4.917  67.485  1.00  0.00    -0.091 C  
HETATM   11  H   UNL     1      -8.258   4.251  65.739  1.00  0.00     0.000 HD 
HETATM   12  O   UNL     1      -7.722   4.959  66.079  1.00  0.00    -0.089 OA 
BRANCH  10  13
HETATM   13  C   UNL     1      -9.252   4.991  67.941  1.00  0.00    -0.119 C  
HETATM   14  H   UNL     1     -10.264   5.859  69.353  1.00  0.00     0.000 HD 
HETATM   15  O   UNL     1      -9.357   5.813  69.074  1.00  0.00    -0.121 OA 
BRANCH  13  16
HETATM   16  C   UNL     1     -10.179   5.539  66.882  1.00  0.00    -0.233 C  
HETATM   17  O   UNL     1     -10.603   4.800  66.007  1.00  0.00    -0.311 OA 
BRANCH  16  18
HETATM   18  O   UNL     1     -10.540   6.838  66.877  1.00  0.00    -0.280 OA 
BRANCH  18  19
HETATM   19 CA   UNL     1     -10.384   8.112  68.928  1.00  0.00    -0.178 Ca 
BRANCH  19  20
HETATM   20  O   UNL     1     -10.227   9.386  70.980  1.00  0.00    -0.287 OA 
BRANCH  20  21
HETATM   21  C   UNL     1     -11.437   9.897  71.264  1.00  0.00    -0.361 C  
HETATM   22  O   UNL     1     -12.045   9.431  72.213  1.00  0.00    -0.290 OA 
BRANCH  21  23
HETATM   23  C   UNL     1     -12.116  10.893  70.351  1.00  0.00    -0.363 C  
HETATM   24  H   UNL     1     -13.867  11.093  69.562  1.00  0.00     0.000 HD 
HETATM   25  O   UNL     1     -13.440  10.468  70.136  1.00  0.00     0.096 OA 
BRANCH  23  26
HETATM   26  C   UNL     1     -11.416  11.094  68.973  1.00  0.00    -0.296 C  
HETATM   27  H   UNL     1     -11.569  10.356  67.186  1.00  0.00     0.000 HD 
HETATM   28  O   UNL     1     -11.996  10.233  68.026  1.00  0.00    -0.059 OA 
BRANCH  26  29
HETATM   29  C   UNL     1     -11.366  12.552  68.397  1.00  0.00    -0.291 C  
BRANCH  29  30
HETATM   30  O   UNL     1     -10.082  12.708  67.811  1.00  0.00    -0.210 OA 
BRANCH  30  31
HETATM   31  C   UNL     1     -10.066  12.958  66.420  1.00  0.00    -0.269 C  
HETATM   32  O   UNL     1     -11.145  13.807  66.065  1.00  0.00    -0.290 OA 
HETATM   33  C   UNL     1     -11.132  14.078  64.672  1.00  0.00    -0.382 C  
HETATM   34  H   UNL     1      -9.258   9.875  65.631  1.00  0.00     0.000 HD 
HETATM   35  C   UNL     1     -11.415  12.780  63.873  1.00  0.00    -0.444 C  
HETATM   36  O   UNL     1     -12.665  12.242  64.231  1.00  0.00    -0.584 OA 
HETATM   37  C   UNL     1     -10.299  11.763  64.192  1.00  0.00    -0.331 C  
HETATM   38  O   UNL     1      -9.166  10.716  66.063  1.00  0.00    -0.171 OA 
HETATM   39  H   UNL     1     -12.837  11.447  63.741  1.00  0.00     0.000 HD 
HETATM   40  O   UNL     1     -10.547  10.515  63.591  1.00  0.00    -0.432 OA 
HETATM   41  C   UNL     1     -10.217  11.585  65.717  1.00  0.00    -0.249 C  
HETATM   42  H   UNL     1      -9.860   9.889  63.787  1.00  0.00     0.000 HD 
BRANCH  33  43
HETATM   43  C   UNL     1     -12.177  15.170  64.393  1.00  0.00    -0.275 C  
HETATM   44  O   UNL     1     -11.669  16.152  63.529  1.00  0.00    -1.156 OA 
HETATM   45  H   UNL     1     -12.315  16.826  63.357  1.00  0.00     0.000 HD 
ENDBRANCH  33  43
ENDBRANCH  30  31
ENDBRANCH  29  30
BRANCH  29  46
HETATM   46  C   UNL     1     -11.696  13.703  69.412  1.00  0.00    -0.324 C  
HETATM   47  O   UNL     1     -10.519  14.338  69.854  1.00  0.00    -0.430 OA 
HETATM   48  H   UNL     1     -10.718  15.035  70.467  1.00  0.00     0.000 HD 
BRANCH  46  49
HETATM   49  C   UNL     1     -12.617  13.296  70.585  1.00  0.00    -0.231 C  
HETATM   50  H   UNL     1     -13.896  14.156  71.788  1.00  0.00     0.000 HD 
HETATM   51  O   UNL     1     -13.330  14.406  71.067  1.00  0.00    -0.361 OA 
ENDBRANCH  46  49
ENDBRANCH  29  46
ENDBRANCH  26  29
ENDBRANCH  23  26
ENDBRANCH  21  23
ENDBRANCH  20  21
ENDBRANCH  19  20
ENDBRANCH  18  19
ENDBRANCH  16  18
ENDBRANCH  13  16
ENDBRANCH  10  13
ENDBRANCH   7  10
ENDBRANCH   4   7
ENDBRANCH   2   4
TORSDOF 17
ENDMDL
MODEL      340
REMARK 921   NORMALIZED FREE ENERGY PREDICTED BY IDOCK:   -3.36 KCAL/MOL
REMARK 922        TOTAL FREE ENERGY PREDICTED BY IDOCK:  -10.14 KCAL/MOL
REMARK 923 INTER-LIGAND FREE ENERGY PREDICTED BY IDOCK:   -7.49 KCAL/MOL
REMARK 924 INTRA-LIGAND FREE ENERGY PREDICTED BY IDOCK:   -2.65 KCAL/MOL
REMARK 927      BINDING AFFINITY PREDICTED BY RF-SCORE:    0.00 PKD
ROOT
HETATM    1  O   UNL     1     -11.469   7.037  69.256  1.00  0.00    -0.516 OA 
HETATM    2  C   UNL     1     -10.719   5.966  68.751  1.00  0.00    -0.284 C  
HETATM    3  H   UNL     1     -11.735   7.605  68.543  1.00  0.00     0.000 HD 
ENDROOT
BRANCH   2   4
HETATM    4  C   UNL     1     -10.288   5.046  69.906  1.00  0.00    -0.228 C  
HETATM    5  O   UNL     1      -9.034   4.484  69.610  1.00  0.00    -0.087 OA 
HETATM    6  H   UNL     1      -8.768   3.916  70.323  1.00  0.00     0.000 HD 
BRANCH   4   7
HETATM    7  C   UNL     1     -10.205   5.818  71.249  1.00  0.00    -0.215 C  
HETATM    8  H   UNL     1     -11.441   6.418  72.625  1.00  0.00     0.000 HD 
HETATM    9  O   UNL     1     -11.492   5.945  71.803  1.00  0.00    -0.269 OA 
BRANCH   7  10
HETATM   10  C   UNL     1      -9.284   5.103  72.273  1.00  0.00    -0.138 C  
HETATM   11  H   UNL     1      -9.426   3.582  73.456  1.00  0.00     0.000 HD 
HETATM   12  O   UNL     1      -9.991   4.020  72.829  1.00  0.00    -0.137 OA 
BRANCH  10  13
HETATM   13  C   UNL     1      -8.798   6.029  73.422  1.00  0.00    -0.126 C  
HETATM   14  H   UNL     1      -7.574   5.910  74.924  1.00  0.00     0.000 HD 
HETATM   15  O   UNL     1      -7.871   5.343  74.222  1.00  0.00    -0.098 OA 
BRANCH  13  16
HETATM   16  C   UNL     1      -8.140   7.298  72.932  1.00  0.00    -0.106 C  
HETATM   17  O   UNL     1      -7.059   7.240  72.368  1.00  0.00    -0.066 OA 
BRANCH  16  18
HETATM   18  O   UNL     1      -8.722   8.500  73.116  1.00  0.00    -0.345 OA 
BRANCH  18  19
HETATM   19 CA   UNL     1     -10.246   9.342  71.434  1.00  0.00    -0.208 Ca 
BRANCH  19  20
HETATM   20  O   UNL     1     -11.768  10.184  69.753  1.00  0.00    -0.218 OA 
BRANCH  20  21
HETATM   21  C   UNL     1     -11.055  10.579  68.684  1.00  0.00    -0.267 C  
HETATM   22  O   UNL     1     -11.626  11.232  67.827  1.00  0.00    -0.463 OA 
BRANCH  21  23
HETATM   23  C   UNL     1      -9.643  10.094  68.444  1.00  0.00    -0.143 C  
HETATM   24  H   UNL     1      -8.558   8.612  69.037  1.00  0.00     0.000 HD 
HETATM   25  O   UNL     1      -9.445   8.916  69.188  1.00  0.00    -0.154 OA 
BRANCH  23  26
HETATM   26  C   UNL     1      -8.531  11.122  68.815  1.00  0.00    -0.134 C  
HETATM   27  H   UNL     1      -6.948  11.153  69.935  1.00  0.00     0.000 HD 
HETATM   28  O   UNL     1      -7.626  10.527  69.709  1.00  0.00    -0.151 OA 
BRANCH  26  29
HETATM   29  C   UNL     1      -7.743  11.788  67.634  1.00  0.00    -0.137 C  
BRANCH  29  30
HETATM   30  O   UNL     1      -8.700  12.507  66.869  1.00  0.00    -0.200 OA 
BRANCH  30  31
HETATM   31  C   UNL     1      -8.464  13.894  66.735  1.00  0.00     0.023 C  
HETATM   32  O   UNL     1      -7.424  14.298  67.611  1.00  0.00    -0.149 OA 
HETATM   33  C   UNL     1      -7.166  15.687  67.475  1.00  0.00    -0.191 C  
HETATM   34  H   UNL     1     -11.647  14.658  66.496  1.00  0.00     0.000 HD 
HETATM   35  C   UNL     1      -8.389  16.507  67.962  1.00  0.00    -0.180 C  
HETATM   36  O   UNL     1      -8.675  16.215  69.308  1.00  0.00    -0.247 OA 
HETATM   37  C   UNL     1      -9.601  16.138  67.081  1.00  0.00    -0.229 C  
HETATM   38  O   UNL     1     -10.838  14.218  66.266  1.00  0.00    -0.302 OA 
HETATM   39  H   UNL     1      -9.424  16.717  69.606  1.00  0.00     0.000 HD 
HETATM   40  O   UNL     1     -10.780  16.757  67.533  1.00  0.00    -0.328 OA 
HETATM   41  C   UNL     1      -9.784  14.611  67.111  1.00  0.00    -0.235 C  
HETATM   42  H   UNL     1     -11.526  16.530  66.990  1.00  0.00     0.000 HD 
BRANCH  33  43
HETATM   43  C   UNL     1      -5.895  16.013  68.275  1.00  0.00    -0.111 C  
HETATM   44  O   UNL     1      -5.900  15.372  69.523  1.00  0.00    -0.108 OA 
HETATM   45  H   UNL     1      -5.114  15.573  70.016  1.00  0.00     0.000 HD 
ENDBRANCH  33  43
ENDBRANCH  30  31
ENDBRANCH  29  30
BRANCH  29  46
HETATM   46  C   UNL     1      -6.887  10.817  66.747  1.00  0.00    -0.115 C  
HETATM   47  O   UNL     1      -6.122  11.535  65.807  1.00  0.00    -0.454 OA 
HETATM   48  H   UNL     1      -5.603  10.948  65.270  1.00  0.00     0.000 HD 
BRANCH  46  49
HETATM   49  C   UNL     1      -7.676   9.658  66.096  1.00  0.00    -0.102 C  
HETATM   50  H   UNL     1      -7.397   7.768  65.682  1.00  0.00     0.000 HD 
HETATM   51  O   UNL     1      -6.912   8.480  66.082  1.00  0.00    -0.074 OA 
ENDBRANCH  46  49
ENDBRANCH  29  46
ENDBRANCH  26  29
ENDBRANCH  23  26
ENDBRANCH  21  23
ENDBRANCH  20  21
ENDBRANCH  19  20
ENDBRANCH  18  19
ENDBRANCH  16  18
ENDBRANCH  13  16
ENDBRANCH  10  13
ENDBRANCH   7  10
ENDBRANCH   4   7
ENDBRANCH   2   4
TORSDOF 17
ENDMDL
MODEL      341
REMARK 921   NORMALIZED FREE ENERGY PREDICTED BY IDOCK:   -3.36 KCAL/MOL
REMARK 922        TOTAL FREE ENERGY PREDICTED BY IDOCK:  -10.14 KCAL/MOL
REMARK 923 INTER-LIGAND FREE ENERGY PREDICTED BY IDOCK:   -7.71 KCAL/MOL
REMARK 924 INTRA-LIGAND FREE ENERGY PREDICTED BY IDOCK:   -2.43 KCAL/MOL
REMARK 927      BINDING AFFINITY PREDICTED BY RF-SCORE:    0.00 PKD
ROOT
HETATM    1  O   UNL     1      -8.371   8.625  69.844  1.00  0.00    -0.116 OA 
HETATM    2  C   UNL     1      -8.203  10.015  69.775  1.00  0.00    -0.178 C  
HETATM    3  H   UNL     1      -7.561   8.219  70.131  1.00  0.00     0.000 HD 
ENDROOT
BRANCH   2   4
HETATM    4  C   UNL     1      -9.515  10.672  69.311  1.00  0.00    -0.133 C  
HETATM    5  O   UNL     1      -9.532  10.734  67.907  1.00  0.00    -0.153 OA 
HETATM    6  H   UNL     1     -10.342  11.140  67.620  1.00  0.00     0.000 HD 
BRANCH   4   7
HETATM    7  C   UNL     1     -10.754   9.883  69.809  1.00  0.00    -0.267 C  
HETATM    8  H   UNL     1     -11.320   9.007  71.450  1.00  0.00     0.000 HD 
HETATM    9  O   UNL     1     -10.561   9.490  71.146  1.00  0.00    -0.319 OA 
BRANCH   7  10
HETATM   10  C   UNL     1     -12.055  10.724  69.712  1.00  0.00    -0.318 C  
HETATM   11  H   UNL     1     -12.972  11.724  68.338  1.00  0.00     0.000 HD 
HETATM   12  O   UNL     1     -12.176  11.208  68.397  1.00  0.00    -0.610 OA 
BRANCH  10  13
HETATM   13  C   UNL     1     -12.087  11.927  70.695  1.00  0.00    -0.294 C  
HETATM   14  H   UNL     1     -12.273  13.857  70.576  1.00  0.00     0.000 HD 
HETATM   15  O   UNL     1     -12.253  13.121  69.975  1.00  0.00    -0.306 OA 
BRANCH  13  16
HETATM   16  C   UNL     1     -13.201  11.841  71.713  1.00  0.00    -0.329 C  
HETATM   17  O   UNL     1     -13.844  12.840  71.992  1.00  0.00    -0.327 OA 
BRANCH  16  18
HETATM   18  O   UNL     1     -13.491  10.678  72.330  1.00  0.00    -0.333 OA 
BRANCH  18  19
HETATM   19 CA   UNL     1     -12.679   8.605  71.382  1.00  0.00    -0.292 Ca 
BRANCH  19  20
HETATM   20  O   UNL     1     -11.867   6.532  70.433  1.00  0.00    -0.400 OA 
BRANCH  20  21
HETATM   21  C   UNL     1     -10.918   6.030  71.242  1.00  0.00    -0.278 C  
HETATM   22  O   UNL     1     -10.864   6.447  72.386  1.00  0.00    -0.217 OA 
BRANCH  21  23
HETATM   23  C   UNL     1      -9.835   5.110  70.724  1.00  0.00    -0.202 C  
HETATM   24  H   UNL     1      -9.515   3.207  70.701  1.00  0.00     0.000 HD 
HETATM   25  O   UNL     1     -10.195   3.784  71.027  1.00  0.00    -0.021 OA 
BRANCH  23  26
HETATM   26  C   UNL     1      -8.413   5.394  71.296  1.00  0.00    -0.126 C  
HETATM   27  H   UNL     1      -7.242   4.614  72.631  1.00  0.00     0.000 HD 
HETATM   28  O   UNL     1      -8.109   4.441  72.283  1.00  0.00    -0.093 OA 
BRANCH  26  29
HETATM   29  C   UNL     1      -7.229   5.485  70.272  1.00  0.00    -0.067 C  
BRANCH  29  30
HETATM   30  O   UNL     1      -7.332   4.340  69.437  1.00  0.00    -0.050 OA 
BRANCH  30  31
HETATM   31  C   UNL     1      -7.597   4.595  68.072  1.00  0.00    -0.077 C  
HETATM   32  O   UNL     1      -8.983   4.821  67.879  1.00  0.00    -0.107 OA 
HETATM   33  C   UNL     1      -9.261   5.094  66.514  1.00  0.00    -0.136 C  
HETATM   34  H   UNL     1      -5.502   2.311  66.990  1.00  0.00     0.000 HD 
HETATM   35  C   UNL     1      -8.974   3.839  65.650  1.00  0.00    -0.136 C  
HETATM   36  O   UNL     1      -9.761   2.754  66.077  1.00  0.00    -0.381 OA 
HETATM   37  C   UNL     1      -7.479   3.485  65.792  1.00  0.00    -0.077 C  
HETATM   38  O   UNL     1      -5.777   3.082  67.472  1.00  0.00    -0.020 OA 
HETATM   39  H   UNL     1      -9.585   1.985  65.548  1.00  0.00     0.000 HD 
HETATM   40  O   UNL     1      -7.163   2.287  65.125  1.00  0.00    -0.055 OA 
HETATM   41  C   UNL     1      -7.148   3.338  67.286  1.00  0.00    -0.058 C  
HETATM   42  H   UNL     1      -6.242   2.070  65.213  1.00  0.00     0.000 HD 
BRANCH  33  43
HETATM   43  C   UNL     1     -10.726   5.546  66.410  1.00  0.00    -0.194 C  
HETATM   44  O   UNL     1     -11.448   4.737  65.521  1.00  0.00    -0.935 OA 
HETATM   45  H   UNL     1     -12.353   5.016  65.458  1.00  0.00     0.000 HD 
ENDBRANCH  33  43
ENDBRANCH  30  31
ENDBRANCH  29  30
BRANCH  29  46
HETATM   46  C   UNL     1      -5.795   5.637  70.891  1.00  0.00    -0.024 C  
HETATM   47  O   UNL     1      -5.682   4.905  72.089  1.00  0.00    -0.011 OA 
HETATM   48  H   UNL     1      -4.815   4.997  72.463  1.00  0.00     0.000 HD 
BRANCH  46  49
HETATM   49  C   UNL     1      -5.301   7.094  71.046  1.00  0.00    -0.027 C  
HETATM   50  H   UNL     1      -5.835   8.710  72.007  1.00  0.00     0.000 HD 
HETATM   51  O   UNL     1      -6.139   7.815  71.911  1.00  0.00    -0.038 OA 
ENDBRANCH  46  49
ENDBRANCH  29  46
ENDBRANCH  26  29
ENDBRANCH  23  26
ENDBRANCH  21  23
ENDBRANCH  20  21
ENDBRANCH  19  20
ENDBRANCH  18  19
ENDBRANCH  16  18
ENDBRANCH  13  16
ENDBRANCH  10  13
ENDBRANCH   7  10
ENDBRANCH   4   7
ENDBRANCH   2   4
TORSDOF 17
ENDMDL
MODEL      342
REMARK 921   NORMALIZED FREE ENERGY PREDICTED BY IDOCK:   -3.35 KCAL/MOL
REMARK 922        TOTAL FREE ENERGY PREDICTED BY IDOCK:  -10.12 KCAL/MOL
REMARK 923 INTER-LIGAND FREE ENERGY PREDICTED BY IDOCK:   -7.96 KCAL/MOL
REMARK 924 INTRA-LIGAND FREE ENERGY PREDICTED BY IDOCK:   -2.15 KCAL/MOL
REMARK 927      BINDING AFFINITY PREDICTED BY RF-SCORE:    0.00 PKD
ROOT
HETATM    1  O   UNL     1      -6.783   6.387  73.456  1.00  0.00    -0.073 OA 
HETATM    2  C   UNL     1      -6.806   6.967  72.180  1.00  0.00    -0.058 C  
HETATM    3  H   UNL     1      -6.036   6.714  73.942  1.00  0.00     0.000 HD 
ENDROOT
BRANCH   2   4
HETATM    4  C   UNL     1      -8.016   6.437  71.392  1.00  0.00    -0.105 C  
HETATM    5  O   UNL     1      -9.127   7.264  71.634  1.00  0.00    -0.136 OA 
HETATM    6  H   UNL     1      -9.874   6.936  71.147  1.00  0.00     0.000 HD 
BRANCH   4   7
HETATM    7  C   UNL     1      -7.728   6.391  69.868  1.00  0.00    -0.109 C  
HETATM    8  H   UNL     1      -8.125   5.205  68.379  1.00  0.00     0.000 HD 
HETATM    9  O   UNL     1      -8.302   5.233  69.312  1.00  0.00    -0.090 OA 
BRANCH   7  10
HETATM   10  C   UNL     1      -8.292   7.636  69.133  1.00  0.00    -0.131 C  
HETATM   11  H   UNL     1      -8.538   9.507  69.545  1.00  0.00     0.000 HD 
HETATM   12  O   UNL     1      -8.193   8.745  69.995  1.00  0.00    -0.108 OA 
BRANCH  10  13
HETATM   13  C   UNL     1      -9.773   7.475  68.690  1.00  0.00    -0.154 C  
HETATM   14  H   UNL     1     -11.500   8.194  69.212  1.00  0.00     0.000 HD 
HETATM   15  O   UNL     1     -10.595   8.292  69.483  1.00  0.00    -0.227 OA 
BRANCH  13  16
HETATM   16  C   UNL     1     -10.009   7.843  67.244  1.00  0.00    -0.215 C  
HETATM   17  O   UNL     1     -10.872   7.261  66.605  1.00  0.00    -0.220 OA 
BRANCH  16  18
HETATM   18  O   UNL     1      -9.275   8.799  66.639  1.00  0.00    -0.156 OA 
BRANCH  18  19
HETATM   19 CA   UNL     1     -10.397  10.484  65.313  1.00  0.00    -0.229 Ca 
BRANCH  19  20
HETATM   20  O   UNL     1     -11.518  12.168  63.986  1.00  0.00    -0.352 OA 
BRANCH  20  21
HETATM   21  C   UNL     1     -11.854  13.195  64.786  1.00  0.00    -0.369 C  
HETATM   22  O   UNL     1     -12.908  13.768  64.567  1.00  0.00    -0.648 OA 
BRANCH  21  23
HETATM   23  C   UNL     1     -10.895  13.751  65.815  1.00  0.00    -0.277 C  
HETATM   24  H   UNL     1      -9.115  14.497  65.802  1.00  0.00     0.000 HD 
HETATM   25  O   UNL     1      -9.717  14.148  65.156  1.00  0.00    -0.182 OA 
BRANCH  23  26
HETATM   26  C   UNL     1     -10.526  12.761  66.962  1.00  0.00    -0.237 C  
HETATM   27  H   UNL     1      -9.101  11.502  67.343  1.00  0.00     0.000 HD 
HETATM   28  O   UNL     1      -9.326  12.105  66.643  1.00  0.00    -0.214 OA 
BRANCH  26  29
HETATM   29  C   UNL     1     -10.438  13.344  68.415  1.00  0.00    -0.250 C  
BRANCH  29  30
HETATM   30  O   UNL     1      -9.056  13.506  68.699  1.00  0.00    -0.130 OA 
BRANCH  30  31
HETATM   31  C   UNL     1      -8.570  14.833  68.658  1.00  0.00    -0.169 C  
HETATM   32  O   UNL     1      -9.647  15.741  68.500  1.00  0.00    -0.195 OA 
HETATM   33  C   UNL     1      -9.175  17.080  68.473  1.00  0.00    -0.266 C  
HETATM   34  H   UNL     1      -5.959  14.077  66.817  1.00  0.00     0.000 HD 
HETATM   35  C   UNL     1      -8.313  17.315  67.205  1.00  0.00    -0.201 C  
HETATM   36  O   UNL     1      -9.066  17.063  66.043  1.00  0.00    -0.464 OA 
HETATM   37  C   UNL     1      -7.102  16.361  67.259  1.00  0.00    -0.181 C  
HETATM   38  O   UNL     1      -6.543  14.021  67.563  1.00  0.00    -0.219 OA 
HETATM   39  H   UNL     1      -8.537  17.208  65.267  1.00  0.00     0.000 HD 
HETATM   40  O   UNL     1      -6.331  16.435  66.085  1.00  0.00     0.140 OA 
HETATM   41  C   UNL     1      -7.616  14.923  67.440  1.00  0.00    -0.204 C  
HETATM   42  H   UNL     1      -5.585  15.848  66.118  1.00  0.00     0.000 HD 
BRANCH  33  43
HETATM   43  C   UNL     1     -10.394  18.013  68.527  1.00  0.00    -0.349 C  
HETATM   44  O   UNL     1     -10.080  19.291  68.042  1.00  0.00    -0.355 OA 
HETATM   45  H   UNL     1     -10.833  19.867  68.075  1.00  0.00     0.000 HD 
ENDBRANCH  33  43
ENDBRANCH  30  31
ENDBRANCH  29  30
BRANCH  29  46
HETATM   46  C   UNL     1     -11.177  12.524  69.530  1.00  0.00    -0.093 C  
HETATM   47  O   UNL     1     -11.580  11.264  69.046  1.00  0.00    -0.260 OA 
HETATM   48  H   UNL     1     -12.027  10.767  69.721  1.00  0.00     0.000 HD 
BRANCH  46  49
HETATM   49  C   UNL     1     -12.328  13.274  70.239  1.00  0.00    -0.264 C  
HETATM   50  H   UNL     1     -13.173  13.297  72.002  1.00  0.00     0.000 HD 
HETATM   51  O   UNL     1     -12.465  12.837  71.566  1.00  0.00    -0.210 OA 
ENDBRANCH  46  49
ENDBRANCH  29  46
ENDBRANCH  26  29
ENDBRANCH  23  26
ENDBRANCH  21  23
ENDBRANCH  20  21
ENDBRANCH  19  20
ENDBRANCH  18  19
ENDBRANCH  16  18
ENDBRANCH  13  16
ENDBRANCH  10  13
ENDBRANCH   7  10
ENDBRANCH   4   7
ENDBRANCH   2   4
TORSDOF 17
ENDMDL
MODEL      343
REMARK 921   NORMALIZED FREE ENERGY PREDICTED BY IDOCK:   -3.33 KCAL/MOL
REMARK 922        TOTAL FREE ENERGY PREDICTED BY IDOCK:  -10.09 KCAL/MOL
REMARK 923 INTER-LIGAND FREE ENERGY PREDICTED BY IDOCK:   -9.56 KCAL/MOL
REMARK 924 INTRA-LIGAND FREE ENERGY PREDICTED BY IDOCK:   -0.53 KCAL/MOL
REMARK 927      BINDING AFFINITY PREDICTED BY RF-SCORE:    0.00 PKD
ROOT
HETATM    1  O   UNL     1     -12.452  16.379  71.824  1.00  0.00    -0.540 OA 
HETATM    2  C   UNL     1     -11.778  15.151  71.870  1.00  0.00    -0.415 C  
HETATM    3  H   UNL     1     -12.322  16.846  72.642  1.00  0.00     0.000 HD 
ENDROOT
BRANCH   2   4
HETATM    4  C   UNL     1     -11.989  14.396  70.547  1.00  0.00    -0.325 C  
HETATM    5  O   UNL     1     -13.298  14.620  70.088  1.00  0.00    -0.497 OA 
HETATM    6  H   UNL     1     -13.428  14.153  69.270  1.00  0.00     0.000 HD 
BRANCH   4   7
HETATM    7  C   UNL     1     -10.975  14.850  69.464  1.00  0.00    -0.273 C  
HETATM    8  H   UNL     1      -9.631  14.016  68.333  1.00  0.00     0.000 HD 
HETATM    9  O   UNL     1     -10.252  13.738  68.996  1.00  0.00    -0.158 OA 
BRANCH   7  10
HETATM   10  C   UNL     1     -11.679  15.536  68.263  1.00  0.00    -0.274 C  
HETATM   11  H   UNL     1     -12.248  15.012  66.493  1.00  0.00     0.000 HD 
HETATM   12  O   UNL     1     -11.817  14.592  67.228  1.00  0.00    -0.394 OA 
BRANCH  10  13
HETATM   13  C   UNL     1     -10.910  16.771  67.718  1.00  0.00    -0.285 C  
HETATM   14  H   UNL     1      -9.889  18.250  68.455  1.00  0.00     0.000 HD 
HETATM   15  O   UNL     1     -10.360  17.495  68.788  1.00  0.00    -0.353 OA 
BRANCH  13  16
HETATM   16  C   UNL     1      -9.785  16.410  66.776  1.00  0.00    -0.251 C  
HETATM   17  O   UNL     1      -8.681  16.145  67.225  1.00  0.00    -0.175 OA 
BRANCH  16  18
HETATM   18  O   UNL     1      -9.975  16.385  65.441  1.00  0.00    -0.534 OA 
BRANCH  18  19
HETATM   19 CA   UNL     1     -10.281  14.255  64.334  1.00  0.00    -0.378 Ca 
BRANCH  19  20
HETATM   20  O   UNL     1     -10.585  12.125  63.227  1.00  0.00    -0.428 OA 
BRANCH  20  21
HETATM   21  C   UNL     1      -9.712  11.242  63.741  1.00  0.00    -0.298 C  
HETATM   22  O   UNL     1      -9.117  10.511  62.967  1.00  0.00    -0.213 OA 
BRANCH  21  23
HETATM   23  C   UNL     1      -9.583  11.023  65.232  1.00  0.00    -0.227 C  
HETATM   24  H   UNL     1      -8.497  11.740  66.658  1.00  0.00     0.000 HD 
HETATM   25  O   UNL     1      -8.578  11.877  65.721  1.00  0.00     0.089 OA 
BRANCH  23  26
HETATM   26  C   UNL     1      -9.253   9.558  65.648  1.00  0.00    -0.223 C  
HETATM   27  H   UNL     1      -7.748   8.611  66.421  1.00  0.00     0.000 HD 
HETATM   28  O   UNL     1      -7.949   9.504  66.167  1.00  0.00    -0.106 OA 
BRANCH  26  29
HETATM   29  C   UNL     1     -10.242   8.851  66.637  1.00  0.00    -0.268 C  
BRANCH  29  30
HETATM   30  O   UNL     1     -10.498   9.778  67.682  1.00  0.00    -0.217 OA 
BRANCH  30  31
HETATM   31  C   UNL     1      -9.646   9.690  68.806  1.00  0.00    -0.152 C  
HETATM   32  O   UNL     1      -8.683   8.668  68.608  1.00  0.00    -0.136 OA 
HETATM   33  C   UNL     1      -7.810   8.579  69.724  1.00  0.00    -0.094 C  
HETATM   34  H   UNL     1     -12.067  10.128  70.979  1.00  0.00     0.000 HD 
HETATM   35  C   UNL     1      -8.591   8.102  70.976  1.00  0.00    -0.137 C  
HETATM   36  O   UNL     1      -9.179   6.846  70.742  1.00  0.00    -0.157 OA 
HETATM   37  C   UNL     1      -9.689   9.142  71.285  1.00  0.00    -0.281 C  
HETATM   38  O   UNL     1     -11.518  10.338  70.234  1.00  0.00    -0.271 OA 
HETATM   39  H   UNL     1      -9.658   6.554  71.509  1.00  0.00     0.000 HD 
HETATM   40  O   UNL     1     -10.517   8.723  72.342  1.00  0.00    -0.305 OA 
HETATM   41  C   UNL     1     -10.542   9.347  70.022  1.00  0.00    -0.235 C  
HETATM   42  H   UNL     1     -11.192   9.363  72.533  1.00  0.00     0.000 HD 
BRANCH  33  43
HETATM   43  C   UNL     1      -6.666   7.620  69.355  1.00  0.00    -0.040 C  
HETATM   44  O   UNL     1      -6.209   7.852  68.049  1.00  0.00    -0.044 OA 
HETATM   45  H   UNL     1      -5.502   7.260  67.822  1.00  0.00     0.000 HD 
ENDBRANCH  33  43
ENDBRANCH  30  31
ENDBRANCH  29  30
BRANCH  29  46
HETATM   46  C   UNL     1      -9.782   7.455  67.188  1.00  0.00    -0.171 C  
HETATM   47  O   UNL     1      -8.707   6.944  66.434  1.00  0.00    -0.130 OA 
HETATM   48  H   UNL     1      -8.428   6.100  66.767  1.00  0.00     0.000 HD 
BRANCH  46  49
HETATM   49  C   UNL     1     -10.914   6.417  67.370  1.00  0.00    -0.376 C  
HETATM   50  H   UNL     1     -11.367   4.636  66.704  1.00  0.00     0.000 HD 
HETATM   51  O   UNL     1     -10.671   5.274  66.593  1.00  0.00    -0.291 OA 
ENDBRANCH  46  49
ENDBRANCH  29  46
ENDBRANCH  26  29
ENDBRANCH  23  26
ENDBRANCH  21  23
ENDBRANCH  20  21
ENDBRANCH  19  20
ENDBRANCH  18  19
ENDBRANCH  16  18
ENDBRANCH  13  16
ENDBRANCH  10  13
ENDBRANCH   7  10
ENDBRANCH   4   7
ENDBRANCH   2   4
TORSDOF 17
ENDMDL
MODEL      344
REMARK 921   NORMALIZED FREE ENERGY PREDICTED BY IDOCK:   -3.32 KCAL/MOL
REMARK 922        TOTAL FREE ENERGY PREDICTED BY IDOCK:  -10.05 KCAL/MOL
REMARK 923 INTER-LIGAND FREE ENERGY PREDICTED BY IDOCK:   -8.84 KCAL/MOL
REMARK 924 INTRA-LIGAND FREE ENERGY PREDICTED BY IDOCK:   -1.21 KCAL/MOL
REMARK 927      BINDING AFFINITY PREDICTED BY RF-SCORE:    0.00 PKD
ROOT
HETATM    1  O   UNL     1     -13.516   9.121  70.581  1.00  0.00    -0.422 OA 
HETATM    2  C   UNL     1     -13.070   8.554  71.783  1.00  0.00    -0.355 C  
HETATM    3  H   UNL     1     -14.099   9.847  70.767  1.00  0.00     0.000 HD 
ENDROOT
BRANCH   2   4
HETATM    4  C   UNL     1     -12.126   7.378  71.482  1.00  0.00    -0.327 C  
HETATM    5  O   UNL     1     -12.105   7.142  70.097  1.00  0.00    -0.579 OA 
HETATM    6  H   UNL     1     -11.522   6.415  69.911  1.00  0.00     0.000 HD 
BRANCH   4   7
HETATM    7  C   UNL     1     -10.684   7.664  71.979  1.00  0.00    -0.227 C  
HETATM    8  H   UNL     1      -9.758   7.756  73.686  1.00  0.00     0.000 HD 
HETATM    9  O   UNL     1     -10.641   7.581  73.383  1.00  0.00    -0.375 OA 
BRANCH   7  10
HETATM   10  C   UNL     1      -9.657   6.665  71.383  1.00  0.00    -0.168 C  
HETATM   11  H   UNL     1      -9.504   4.745  71.229  1.00  0.00     0.000 HD 
HETATM   12  O   UNL     1     -10.133   5.357  71.594  1.00  0.00    -0.188 OA 
BRANCH  10  13
HETATM   13  C   UNL     1      -8.239   6.789  72.006  1.00  0.00    -0.104 C  
HETATM   14  H   UNL     1      -6.961   5.617  72.881  1.00  0.00     0.000 HD 
HETATM   15  O   UNL     1      -7.828   5.541  72.500  1.00  0.00    -0.101 OA 
BRANCH  13  16
HETATM   16  C   UNL     1      -7.193   7.267  71.026  1.00  0.00    -0.073 C  
HETATM   17  O   UNL     1      -6.850   8.439  71.031  1.00  0.00    -0.042 OA 
BRANCH  16  18
HETATM   18  O   UNL     1      -6.636   6.423  70.135  1.00  0.00    -0.042 OA 
BRANCH  18  19
HETATM   19 CA   UNL     1      -6.492   7.089  67.812  1.00  0.00    -0.034 Ca 
BRANCH  19  20
HETATM   20  O   UNL     1      -6.349   7.754  65.490  1.00  0.00    -0.041 OA 
BRANCH  20  21
HETATM   21  C   UNL     1      -7.555   7.593  64.920  1.00  0.00    -0.099 C  
HETATM   22  O   UNL     1      -8.185   6.585  65.192  1.00  0.00    -0.133 OA 
BRANCH  21  23
HETATM   23  C   UNL     1      -8.058   8.526  63.841  1.00  0.00    -0.155 C  
HETATM   24  H   UNL     1      -7.321   9.358  62.263  1.00  0.00     0.000 HD 
HETATM   25  O   UNL     1      -7.005   8.772  62.941  1.00  0.00    -0.091 OA 
BRANCH  23  26
HETATM   26  C   UNL     1      -8.610   9.887  64.363  1.00  0.00    -0.185 C  
HETATM   27  H   UNL     1      -9.135  11.589  63.597  1.00  0.00     0.000 HD 
HETATM   28  O   UNL     1      -8.798  10.760  63.278  1.00  0.00    -0.188 OA 
BRANCH  26  29
HETATM   29  C   UNL     1      -9.909   9.848  65.239  1.00  0.00    -0.303 C  
BRANCH  29  30
HETATM   30  O   UNL     1     -10.765  10.862  64.732  1.00  0.00    -0.292 OA 
BRANCH  30  31
HETATM   31  C   UNL     1     -10.540  12.164  65.232  1.00  0.00    -0.281 C  
HETATM   32  O   UNL     1      -9.464  12.152  66.155  1.00  0.00    -0.234 OA 
HETATM   33  C   UNL     1      -9.216  13.458  66.654  1.00  0.00    -0.214 C  
HETATM   34  H   UNL     1     -13.734  12.879  65.489  1.00  0.00     0.000 HD 
HETATM   35  C   UNL     1     -10.419  13.940  67.506  1.00  0.00    -0.248 C  
HETATM   36  O   UNL     1     -10.643  13.064  68.585  1.00  0.00    -0.249 OA 
HETATM   37  C   UNL     1     -11.668  13.982  66.601  1.00  0.00    -0.399 C  
HETATM   38  O   UNL     1     -12.934  12.610  65.053  1.00  0.00    -0.812 OA 
HETATM   39  H   UNL     1     -11.380  13.360  69.106  1.00  0.00     0.000 HD 
HETATM   40  O   UNL     1     -12.827  14.301  67.331  1.00  0.00    -0.172 OA 
HETATM   41  C   UNL     1     -11.845  12.603  65.944  1.00  0.00    -0.444 C  
HETATM   42  H   UNL     1     -13.596  14.327  66.773  1.00  0.00     0.000 HD 
BRANCH  33  43
HETATM   43  C   UNL     1      -7.911  13.416  67.465  1.00  0.00    -0.183 C  
HETATM   44  O   UNL     1      -6.972  12.557  66.874  1.00  0.00    -0.369 OA 
HETATM   45  H   UNL     1      -6.166  12.532  67.375  1.00  0.00     0.000 HD 
ENDBRANCH  33  43
ENDBRANCH  30  31
ENDBRANCH  29  30
BRANCH  29  46
HETATM   46  C   UNL     1      -9.697   9.976  66.788  1.00  0.00    -0.189 C  
HETATM   47  O   UNL     1      -8.352   9.737  67.135  1.00  0.00    -0.120 OA 
HETATM   48  H   UNL     1      -8.223   9.814  68.072  1.00  0.00     0.000 HD 
BRANCH  46  49
HETATM   49  C   UNL     1     -10.679   9.153  67.654  1.00  0.00    -0.189 C  
HETATM   50  H   UNL     1     -11.598   9.332  69.370  1.00  0.00     0.000 HD 
HETATM   51  O   UNL     1     -10.994   9.838  68.838  1.00  0.00    -0.212 OA 
ENDBRANCH  46  49
ENDBRANCH  29  46
ENDBRANCH  26  29
ENDBRANCH  23  26
ENDBRANCH  21  23
ENDBRANCH  20  21
ENDBRANCH  19  20
ENDBRANCH  18  19
ENDBRANCH  16  18
ENDBRANCH  13  16
ENDBRANCH  10  13
ENDBRANCH   7  10
ENDBRANCH   4   7
ENDBRANCH   2   4
TORSDOF 17
ENDMDL
MODEL      345
REMARK 921   NORMALIZED FREE ENERGY PREDICTED BY IDOCK:   -3.31 KCAL/MOL
REMARK 922        TOTAL FREE ENERGY PREDICTED BY IDOCK:  -10.05 KCAL/MOL
REMARK 923 INTER-LIGAND FREE ENERGY PREDICTED BY IDOCK:   -7.72 KCAL/MOL
REMARK 924 INTRA-LIGAND FREE ENERGY PREDICTED BY IDOCK:   -2.33 KCAL/MOL
REMARK 927      BINDING AFFINITY PREDICTED BY RF-SCORE:    0.00 PKD
ROOT
HETATM    1  O   UNL     1     -11.817  11.489  66.827  1.00  0.00    -0.511 OA 
HETATM    2  C   UNL     1     -11.269  12.113  65.697  1.00  0.00    -0.335 C  
HETATM    3  H   UNL     1     -12.295  10.712  66.562  1.00  0.00     0.000 HD 
ENDROOT
BRANCH   2   4
HETATM    4  C   UNL     1     -10.494  13.371  66.125  1.00  0.00    -0.295 C  
HETATM    5  O   UNL     1      -9.881  13.944  64.997  1.00  0.00    -0.591 OA 
HETATM    6  H   UNL     1      -9.403  14.722  65.262  1.00  0.00     0.000 HD 
BRANCH   4   7
HETATM    7  C   UNL     1     -11.427  14.415  66.793  1.00  0.00    -0.370 C  
HETATM    8  H   UNL     1     -13.341  14.701  66.978  1.00  0.00     0.000 HD 
HETATM    9  O   UNL     1     -12.771  14.062  66.569  1.00  0.00    -0.310 OA 
BRANCH   7  10
HETATM   10  C   UNL     1     -11.181  14.518  68.322  1.00  0.00    -0.277 C  
HETATM   11  H   UNL     1      -9.705  14.188  69.524  1.00  0.00     0.000 HD 
HETATM   12  O   UNL     1      -9.856  14.124  68.587  1.00  0.00    -0.225 OA 
BRANCH  10  13
HETATM   13  C   UNL     1     -12.145  13.639  69.165  1.00  0.00    -0.319 C  
HETATM   14  H   UNL     1     -12.154  11.842  69.902  1.00  0.00     0.000 HD 
HETATM   15  O   UNL     1     -11.564  12.379  69.386  1.00  0.00    -0.282 OA 
BRANCH  13  16
HETATM   16  C   UNL     1     -12.481  14.237  70.511  1.00  0.00    -0.361 C  
HETATM   17  O   UNL     1     -12.406  15.446  70.671  1.00  0.00    -0.344 OA 
BRANCH  16  18
HETATM   18  O   UNL     1     -12.854  13.458  71.546  1.00  0.00    -0.355 OA 
BRANCH  18  19
HETATM   19 CA   UNL     1     -12.471  11.072  71.423  1.00  0.00    -0.273 Ca 
BRANCH  19  20
HETATM   20  O   UNL     1     -12.089   8.686  71.299  1.00  0.00    -0.290 OA 
BRANCH  20  21
HETATM   21  C   UNL     1     -10.764   8.458  71.335  1.00  0.00    -0.237 C  
HETATM   22  O   UNL     1     -10.054   9.302  71.855  1.00  0.00    -0.250 OA 
BRANCH  21  23
HETATM   23  C   UNL     1     -10.136   7.291  70.607  1.00  0.00    -0.194 C  
HETATM   24  H   UNL     1      -9.909   5.402  70.935  1.00  0.00     0.000 HD 
HETATM   25  O   UNL     1     -10.304   6.136  71.392  1.00  0.00    -0.204 OA 
BRANCH  23  26
HETATM   26  C   UNL     1      -8.623   7.467  70.279  1.00  0.00    -0.144 C  
HETATM   27  H   UNL     1      -6.965   6.558  70.709  1.00  0.00     0.000 HD 
HETATM   28  O   UNL     1      -7.887   6.451  70.910  1.00  0.00    -0.103 OA 
BRANCH  26  29
HETATM   29  C   UNL     1      -8.219   7.547  68.766  1.00  0.00    -0.129 C  
BRANCH  29  30
HETATM   30  O   UNL     1      -7.166   6.611  68.581  1.00  0.00    -0.080 OA 
BRANCH  30  31
HETATM   31  C   UNL     1      -7.263   5.794  67.432  1.00  0.00    -0.076 C  
HETATM   32  O   UNL     1      -8.609   5.731  66.991  1.00  0.00    -0.111 OA 
HETATM   33  C   UNL     1      -8.718   4.926  65.827  1.00  0.00    -0.131 C  
HETATM   34  H   UNL     1      -5.141   3.553  68.550  1.00  0.00     0.000 HD 
HETATM   35  C   UNL     1      -8.379   3.451  66.165  1.00  0.00    -0.103 C  
HETATM   36  O   UNL     1      -9.248   2.959  67.156  1.00  0.00    -0.170 OA 
HETATM   37  C   UNL     1      -6.923   3.394  66.675  1.00  0.00    -0.054 C  
HETATM   38  O   UNL     1      -5.442   4.418  68.299  1.00  0.00    -0.014 OA 
HETATM   39  H   UNL     1      -9.040   2.056  67.363  1.00  0.00     0.000 HD 
HETATM   40  O   UNL     1      -6.576   2.103  67.111  1.00  0.00    -0.036 OA 
HETATM   41  C   UNL     1      -6.772   4.383  67.843  1.00  0.00    -0.051 C  
HETATM   42  H   UNL     1      -5.680   2.068  67.424  1.00  0.00     0.000 HD 
BRANCH  33  43
HETATM   43  C   UNL     1     -10.145   5.081  65.276  1.00  0.00     0.158 C  
HETATM   44  O   UNL     1     -11.080   4.433  66.096  1.00  0.00    -0.337 OA 
HETATM   45  H   UNL     1     -11.961   4.529  65.756  1.00  0.00     0.000 HD 
ENDBRANCH  33  43
ENDBRANCH  30  31
ENDBRANCH  29  30
BRANCH  29  46
HETATM   46  C   UNL     1      -7.842   8.973  68.230  1.00  0.00    -0.100 C  
HETATM   47  O   UNL     1      -7.567   8.937  66.848  1.00  0.00    -0.086 OA 
HETATM   48  H   UNL     1      -7.339   9.799  66.524  1.00  0.00     0.000 HD 
BRANCH  46  49
HETATM   49  C   UNL     1      -6.734   9.699  69.027  1.00  0.00    -0.050 C  
HETATM   50  H   UNL     1      -6.284  11.531  69.542  1.00  0.00     0.000 HD 
HETATM   51  O   UNL     1      -6.965  11.084  69.052  1.00  0.00    -0.079 OA 
ENDBRANCH  46  49
ENDBRANCH  29  46
ENDBRANCH  26  29
ENDBRANCH  23  26
ENDBRANCH  21  23
ENDBRANCH  20  21
ENDBRANCH  19  20
ENDBRANCH  18  19
ENDBRANCH  16  18
ENDBRANCH  13  16
ENDBRANCH  10  13
ENDBRANCH   7  10
ENDBRANCH   4   7
ENDBRANCH   2   4
TORSDOF 17
ENDMDL
MODEL      346
REMARK 921   NORMALIZED FREE ENERGY PREDICTED BY IDOCK:   -3.31 KCAL/MOL
REMARK 922        TOTAL FREE ENERGY PREDICTED BY IDOCK:  -10.04 KCAL/MOL
REMARK 923 INTER-LIGAND FREE ENERGY PREDICTED BY IDOCK:   -9.85 KCAL/MOL
REMARK 924 INTRA-LIGAND FREE ENERGY PREDICTED BY IDOCK:   -0.19 KCAL/MOL
REMARK 927      BINDING AFFINITY PREDICTED BY RF-SCORE:    0.00 PKD
ROOT
HETATM    1  O   UNL     1     -10.447   7.083  73.698  1.00  0.00    -0.337 OA 
HETATM    2  C   UNL     1     -10.586   7.921  72.583  1.00  0.00    -0.329 C  
HETATM    3  H   UNL     1     -10.012   7.554  74.399  1.00  0.00     0.000 HD 
ENDROOT
BRANCH   2   4
HETATM    4  C   UNL     1     -11.290   7.160  71.447  1.00  0.00    -0.259 C  
HETATM    5  O   UNL     1     -12.084   8.055  70.709  1.00  0.00    -0.474 OA 
HETATM    6  H   UNL     1     -12.519   7.585  70.008  1.00  0.00     0.000 HD 
BRANCH   4   7
HETATM    7  C   UNL     1     -10.269   6.473  70.502  1.00  0.00    -0.190 C  
HETATM    8  H   UNL     1     -10.301   5.094  69.132  1.00  0.00     0.000 HD 
HETATM    9  O   UNL     1     -10.927   5.514  69.711  1.00  0.00    -0.310 OA 
BRANCH   7  10
HETATM   10  C   UNL     1      -9.562   7.495  69.572  1.00  0.00    -0.156 C  
HETATM   11  H   UNL     1      -8.854   9.284  69.746  1.00  0.00     0.000 HD 
HETATM   12  O   UNL     1      -9.287   8.658  70.316  1.00  0.00    -0.157 OA 
BRANCH  10  13
HETATM   13  C   UNL     1     -10.404   7.883  68.325  1.00  0.00    -0.197 C  
HETATM   14  H   UNL     1     -11.255   9.482  67.625  1.00  0.00     0.000 HD 
HETATM   15  O   UNL     1     -10.741   9.245  68.388  1.00  0.00    -0.211 OA 
BRANCH  13  16
HETATM   16  C   UNL     1      -9.686   7.642  67.018  1.00  0.00    -0.195 C  
HETATM   17  O   UNL     1      -9.752   6.546  66.485  1.00  0.00    -0.167 OA 
BRANCH  16  18
HETATM   18  O   UNL     1      -8.961   8.616  66.432  1.00  0.00    -0.142 OA 
BRANCH  18  19
HETATM   19 CA   UNL     1     -10.068  10.183  64.956  1.00  0.00    -0.225 Ca 
BRANCH  19  20
HETATM   20  O   UNL     1     -11.174  11.749  63.480  1.00  0.00    -0.408 OA 
BRANCH  20  21
HETATM   21  C   UNL     1     -12.084  12.440  64.187  1.00  0.00    -0.453 C  
HETATM   22  O   UNL     1     -13.263  12.256  63.934  1.00  0.00    -0.766 OA 
BRANCH  21  23
HETATM   23  C   UNL     1     -11.683  13.539  65.144  1.00  0.00    -0.322 C  
HETATM   24  H   UNL     1     -10.583  15.124  65.065  1.00  0.00     0.000 HD 
HETATM   25  O   UNL     1     -10.835  14.433  64.464  1.00  0.00    -0.366 OA 
BRANCH  23  26
HETATM   26  C   UNL     1     -10.968  13.046  66.439  1.00  0.00    -0.281 C  
HETATM   27  H   UNL     1      -9.386  12.014  66.877  1.00  0.00     0.000 HD 
HETATM   28  O   UNL     1      -9.822  12.314  66.088  1.00  0.00    -0.235 OA 
BRANCH  26  29
HETATM   29  C   UNL     1     -10.594  14.128  67.510  1.00  0.00    -0.257 C  
BRANCH  29  30
HETATM   30  O   UNL     1      -9.398  14.746  67.056  1.00  0.00    -0.214 OA 
BRANCH  30  31
HETATM   31  C   UNL     1      -9.091  15.995  67.642  1.00  0.00    -0.199 C  
HETATM   32  O   UNL     1      -8.831  16.956  66.632  1.00  0.00    -0.215 OA 
HETATM   33  C   UNL     1      -8.536  18.220  67.207  1.00  0.00    -0.250 C  
HETATM   34  H   UNL     1      -7.275  14.693  70.047  1.00  0.00     0.000 HD 
HETATM   35  C   UNL     1      -7.200  18.150  67.992  1.00  0.00    -0.228 C  
HETATM   36  O   UNL     1      -6.147  17.767  67.141  1.00  0.00    -0.137 OA 
HETATM   37  C   UNL     1      -7.358  17.114  69.124  1.00  0.00    -0.172 C  
HETATM   38  O   UNL     1      -8.050  14.822  69.514  1.00  0.00    -0.108 OA 
HETATM   39  H   UNL     1      -5.329  17.725  67.623  1.00  0.00     0.000 HD 
HETATM   40  O   UNL     1      -6.150  16.909  69.813  1.00  0.00    -0.223 OA 
HETATM   41  C   UNL     1      -7.826  15.783  68.511  1.00  0.00    -0.139 C  
HETATM   42  H   UNL     1      -6.247  16.271  70.511  1.00  0.00     0.000 HD 
BRANCH  33  43
HETATM   43  C   UNL     1      -8.488  19.256  66.073  1.00  0.00    -0.163 C  
HETATM   44  O   UNL     1      -7.288  19.168  65.353  1.00  0.00    -0.456 OA 
HETATM   45  H   UNL     1      -7.258  19.808  64.652  1.00  0.00     0.000 HD 
ENDBRANCH  33  43
ENDBRANCH  30  31
ENDBRANCH  29  30
BRANCH  29  46
HETATM   46  C   UNL     1     -10.468  13.615  68.988  1.00  0.00    -0.078 C  
HETATM   47  O   UNL     1      -9.320  12.814  69.149  1.00  0.00    -0.213 OA 
HETATM   48  H   UNL     1      -9.243  12.504  70.043  1.00  0.00     0.000 HD 
BRANCH  46  49
HETATM   49  C   UNL     1     -11.737  12.938  69.557  1.00  0.00    -0.323 C  
HETATM   50  H   UNL     1     -13.430  13.484  70.367  1.00  0.00     0.000 HD 
HETATM   51  O   UNL     1     -12.650  13.899  70.017  1.00  0.00    -0.294 OA 
ENDBRANCH  46  49
ENDBRANCH  29  46
ENDBRANCH  26  29
ENDBRANCH  23  26
ENDBRANCH  21  23
ENDBRANCH  20  21
ENDBRANCH  19  20
ENDBRANCH  18  19
ENDBRANCH  16  18
ENDBRANCH  13  16
ENDBRANCH  10  13
ENDBRANCH   7  10
ENDBRANCH   4   7
ENDBRANCH   2   4
TORSDOF 17
ENDMDL
MODEL      347
REMARK 921   NORMALIZED FREE ENERGY PREDICTED BY IDOCK:   -3.31 KCAL/MOL
REMARK 922        TOTAL FREE ENERGY PREDICTED BY IDOCK:  -10.03 KCAL/MOL
REMARK 923 INTER-LIGAND FREE ENERGY PREDICTED BY IDOCK:   -8.11 KCAL/MOL
REMARK 924 INTRA-LIGAND FREE ENERGY PREDICTED BY IDOCK:   -1.92 KCAL/MOL
REMARK 927      BINDING AFFINITY PREDICTED BY RF-SCORE:    0.00 PKD
ROOT
HETATM    1  O   UNL     1     -12.732   9.097  71.109  1.00  0.00    -0.420 OA 
HETATM    2  C   UNL     1     -11.802   8.930  72.145  1.00  0.00    -0.347 C  
HETATM    3  H   UNL     1     -13.097   9.973  71.145  1.00  0.00     0.000 HD 
ENDROOT
BRANCH   2   4
HETATM    4  C   UNL     1     -11.211   7.511  72.087  1.00  0.00    -0.270 C  
HETATM    5  O   UNL     1     -12.222   6.601  71.732  1.00  0.00    -0.339 OA 
HETATM    6  H   UNL     1     -11.857   5.725  71.696  1.00  0.00     0.000 HD 
BRANCH   4   7
HETATM    7  C   UNL     1     -10.049   7.419  71.062  1.00  0.00    -0.190 C  
HETATM    8  H   UNL     1      -8.422   8.405  70.662  1.00  0.00     0.000 HD 
HETATM    9  O   UNL     1      -9.133   8.462  71.290  1.00  0.00    -0.149 OA 
BRANCH   7  10
HETATM   10  C   UNL     1      -9.302   6.062  71.153  1.00  0.00    -0.160 C  
HETATM   11  H   UNL     1      -9.156   4.633  72.444  1.00  0.00     0.000 HD 
HETATM   12  O   UNL     1      -9.613   5.464  72.389  1.00  0.00    -0.149 OA 
BRANCH  10  13
HETATM   13  C   UNL     1      -7.759   6.196  71.034  1.00  0.00    -0.102 C  
HETATM   14  H   UNL     1      -6.196   5.512  71.962  1.00  0.00     0.000 HD 
HETATM   15  O   UNL     1      -7.140   5.430  72.035  1.00  0.00    -0.079 OA 
BRANCH  13  16
HETATM   16  C   UNL     1      -7.218   5.739  69.700  1.00  0.00    -0.069 C  
HETATM   17  O   UNL     1      -6.081   5.301  69.625  1.00  0.00    -0.020 OA 
BRANCH  16  18
HETATM   18  O   UNL     1      -7.967   5.817  68.581  1.00  0.00    -0.099 OA 
BRANCH  18  19
HETATM   19 CA   UNL     1      -7.697   7.720  67.112  1.00  0.00    -0.086 Ca 
BRANCH  19  20
HETATM   20  O   UNL     1      -7.426   9.624  65.643  1.00  0.00    -0.095 OA 
BRANCH  20  21
HETATM   21  C   UNL     1      -7.556  10.749  66.366  1.00  0.00    -0.141 C  
HETATM   22  O   UNL     1      -6.711  11.618  66.227  1.00  0.00     0.037 OA 
BRANCH  21  23
HETATM   23  C   UNL     1      -8.603  10.885  67.449  1.00  0.00    -0.127 C  
HETATM   24  H   UNL     1      -9.162   9.856  68.984  1.00  0.00     0.000 HD 
HETATM   25  O   UNL     1      -8.505   9.771  68.304  1.00  0.00    -0.113 OA 
BRANCH  23  26
HETATM   26  C   UNL     1     -10.068  10.997  66.927  1.00  0.00    -0.210 C  
HETATM   27  H   UNL     1     -11.802  11.455  67.664  1.00  0.00     0.000 HD 
HETATM   28  O   UNL     1     -10.909  11.386  67.982  1.00  0.00    -0.193 OA 
BRANCH  26  29
HETATM   29  C   UNL     1     -10.320  11.920  65.685  1.00  0.00    -0.247 C  
BRANCH  29  30
HETATM   30  O   UNL     1     -10.520  13.231  66.193  1.00  0.00    -0.283 OA 
BRANCH  30  31
HETATM   31  C   UNL     1      -9.366  14.044  66.270  1.00  0.00    -0.175 C  
HETATM   32  O   UNL     1      -8.716  13.851  67.515  1.00  0.00    -0.171 OA 
HETATM   33  C   UNL     1      -7.546  14.651  67.600  1.00  0.00    -0.180 C  
HETATM   34  H   UNL     1     -10.797  16.629  64.840  1.00  0.00     0.000 HD 
HETATM   35  C   UNL     1      -7.928  16.154  67.619  1.00  0.00    -0.145 C  
HETATM   36  O   UNL     1      -8.765  16.437  68.714  1.00  0.00    -0.224 OA 
HETATM   37  C   UNL     1      -8.662  16.484  66.302  1.00  0.00    -0.333 C  
HETATM   38  O   UNL     1     -10.506  15.729  64.919  1.00  0.00    -0.499 OA 
HETATM   39  H   UNL     1      -8.999  17.358  68.725  1.00  0.00     0.000 HD 
HETATM   40  O   UNL     1      -9.142  17.806  66.293  1.00  0.00    -0.388 OA 
HETATM   41  C   UNL     1      -9.843  15.513  66.141  1.00  0.00    -0.316 C  
HETATM   42  H   UNL     1      -9.594  18.009  65.482  1.00  0.00     0.000 HD 
BRANCH  33  43
HETATM   43  C   UNL     1      -6.777  14.232  68.862  1.00  0.00    -0.100 C  
HETATM   44  O   UNL     1      -5.628  15.016  69.042  1.00  0.00    -0.095 OA 
HETATM   45  H   UNL     1      -5.153  14.757  69.822  1.00  0.00     0.000 HD 
ENDBRANCH  33  43
ENDBRANCH  30  31
ENDBRANCH  29  30
BRANCH  29  46
HETATM   46  C   UNL     1     -11.479  11.476  64.725  1.00  0.00    -0.072 C  
HETATM   47  O   UNL     1     -10.999  11.268  63.417  1.00  0.00    -0.659 OA 
HETATM   48  H   UNL     1     -11.701  11.000  62.836  1.00  0.00     0.000 HD 
BRANCH  46  49
HETATM   49  C   UNL     1     -12.733  12.381  64.751  1.00  0.00    -0.236 C  
HETATM   50  H   UNL     1     -13.643  13.631  63.554  1.00  0.00     0.000 HD 
HETATM   51  O   UNL     1     -12.873  13.074  63.538  1.00  0.00    -0.664 OA 
ENDBRANCH  46  49
ENDBRANCH  29  46
ENDBRANCH  26  29
ENDBRANCH  23  26
ENDBRANCH  21  23
ENDBRANCH  20  21
ENDBRANCH  19  20
ENDBRANCH  18  19
ENDBRANCH  16  18
ENDBRANCH  13  16
ENDBRANCH  10  13
ENDBRANCH   7  10
ENDBRANCH   4   7
ENDBRANCH   2   4
TORSDOF 17
ENDMDL
MODEL      348
REMARK 921   NORMALIZED FREE ENERGY PREDICTED BY IDOCK:   -3.29 KCAL/MOL
REMARK 922        TOTAL FREE ENERGY PREDICTED BY IDOCK:  -10.01 KCAL/MOL
REMARK 923 INTER-LIGAND FREE ENERGY PREDICTED BY IDOCK:   -9.41 KCAL/MOL
REMARK 924 INTRA-LIGAND FREE ENERGY PREDICTED BY IDOCK:   -0.59 KCAL/MOL
REMARK 927      BINDING AFFINITY PREDICTED BY RF-SCORE:    0.00 PKD
ROOT
HETATM    1  O   UNL     1     -12.433   5.911  72.779  1.00  0.00    -0.527 OA 
HETATM    2  C   UNL     1     -11.713   6.970  72.208  1.00  0.00    -0.255 C  
HETATM    3  H   UNL     1     -12.327   5.926  73.723  1.00  0.00     0.000 HD 
ENDROOT
BRANCH   2   4
HETATM    4  C   UNL     1     -11.883   6.946  70.679  1.00  0.00    -0.368 C  
HETATM    5  O   UNL     1     -12.296   8.215  70.238  1.00  0.00    -0.248 OA 
HETATM    6  H   UNL     1     -12.401   8.200  69.294  1.00  0.00     0.000 HD 
BRANCH   4   7
HETATM    7  C   UNL     1     -10.563   6.554  69.964  1.00  0.00    -0.230 C  
HETATM    8  H   UNL     1     -10.002   5.273  68.613  1.00  0.00     0.000 HD 
HETATM    9  O   UNL     1     -10.810   5.513  69.051  1.00  0.00    -0.227 OA 
BRANCH   7  10
HETATM   10  C   UNL     1      -9.936   7.753  69.206  1.00  0.00    -0.182 C  
HETATM   11  H   UNL     1      -9.971   9.678  69.364  1.00  0.00     0.000 HD 
HETATM   12  O   UNL     1     -10.356   8.943  69.829  1.00  0.00    -0.196 OA 
BRANCH  10  13
HETATM   13  C   UNL     1     -10.326   7.808  67.703  1.00  0.00    -0.239 C  
HETATM   14  H   UNL     1     -11.192   9.065  66.503  1.00  0.00     0.000 HD 
HETATM   15  O   UNL     1     -10.954   9.032  67.422  1.00  0.00    -0.152 OA 
BRANCH  13  16
HETATM   16  C   UNL     1      -9.145   7.667  66.771  1.00  0.00    -0.151 C  
HETATM   17  O   UNL     1      -8.408   6.698  66.870  1.00  0.00    -0.112 OA 
BRANCH  16  18
HETATM   18  O   UNL     1      -8.882   8.600  65.835  1.00  0.00    -0.163 OA 
BRANCH  18  19
HETATM   19 CA   UNL     1     -10.679  10.011  65.038  1.00  0.00    -0.302 Ca 
BRANCH  19  20
HETATM   20  O   UNL     1     -12.477  11.420  64.241  1.00  0.00     0.156 OA 
BRANCH  20  21
HETATM   21  C   UNL     1     -12.409  12.606  64.871  1.00  0.00    -0.498 C  
HETATM   22  O   UNL     1     -13.251  13.445  64.601  1.00  0.00    -0.486 OA 
BRANCH  21  23
HETATM   23  C   UNL     1     -11.238  12.971  65.756  1.00  0.00    -0.289 C  
HETATM   24  H   UNL     1     -10.224  12.109  67.154  1.00  0.00     0.000 HD 
HETATM   25  O   UNL     1     -10.959  11.880  66.598  1.00  0.00    -0.263 OA 
BRANCH  23  26
HETATM   26  C   UNL     1     -11.455  14.245  66.628  1.00  0.00    -0.364 C  
HETATM   27  H   UNL     1     -11.856  14.638  68.484  1.00  0.00     0.000 HD 
HETATM   28  O   UNL     1     -11.724  13.862  67.953  1.00  0.00    -0.321 OA 
BRANCH  26  29
HETATM   29  C   UNL     1     -10.322  15.329  66.614  1.00  0.00    -0.280 C  
BRANCH  29  30
HETATM   30  O   UNL     1     -10.451  16.061  67.824  1.00  0.00    -0.281 OA 
BRANCH  30  31
HETATM   31  C   UNL     1      -9.241  16.448  68.441  1.00  0.00    -0.217 C  
HETATM   32  O   UNL     1      -8.749  17.638  67.847  1.00  0.00    -0.236 OA 
HETATM   33  C   UNL     1      -7.540  18.047  68.468  1.00  0.00    -0.291 C  
HETATM   34  H   UNL     1      -8.088  13.382  68.656  1.00  0.00     0.000 HD 
HETATM   35  C   UNL     1      -6.420  17.012  68.188  1.00  0.00    -0.146 C  
HETATM   36  O   UNL     1      -6.209  16.876  66.804  1.00  0.00    -0.181 OA 
HETATM   37  C   UNL     1      -6.852  15.657  68.785  1.00  0.00    -0.118 C  
HETATM   38  O   UNL     1      -8.704  14.091  68.790  1.00  0.00    -0.134 OA 
HETATM   39  H   UNL     1      -5.522  16.242  66.632  1.00  0.00     0.000 HD 
HETATM   40  O   UNL     1      -5.936  14.636  68.472  1.00  0.00    -0.083 OA 
HETATM   41  C   UNL     1      -8.235  15.290  68.222  1.00  0.00    -0.142 C  
HETATM   42  H   UNL     1      -6.203  13.802  68.840  1.00  0.00     0.000 HD 
BRANCH  33  43
HETATM   43  C   UNL     1      -7.185  19.445  67.938  1.00  0.00    -0.256 C  
HETATM   44  O   UNL     1      -5.809  19.695  68.043  1.00  0.00    -0.204 OA 
HETATM   45  H   UNL     1      -5.589  20.558  67.714  1.00  0.00     0.000 HD 
ENDBRANCH  33  43
ENDBRANCH  30  31
ENDBRANCH  29  30
BRANCH  29  46
HETATM   46  C   UNL     1     -10.287  16.268  65.357  1.00  0.00    -0.294 C  
HETATM   47  O   UNL     1     -10.661  17.583  65.699  1.00  0.00    -0.549 OA 
HETATM   48  H   UNL     1     -10.639  18.151  64.939  1.00  0.00     0.000 HD 
BRANCH  46  49
HETATM   49  C   UNL     1     -11.059  15.742  64.125  1.00  0.00     0.260 C  
HETATM   50  H   UNL     1     -12.754  16.095  63.218  1.00  0.00     0.000 HD 
HETATM   51  O   UNL     1     -12.279  16.419  63.975  1.00  0.00    -0.846 OA 
ENDBRANCH  46  49
ENDBRANCH  29  46
ENDBRANCH  26  29
ENDBRANCH  23  26
ENDBRANCH  21  23
ENDBRANCH  20  21
ENDBRANCH  19  20
ENDBRANCH  18  19
ENDBRANCH  16  18
ENDBRANCH  13  16
ENDBRANCH  10  13
ENDBRANCH   7  10
ENDBRANCH   4   7
ENDBRANCH   2   4
TORSDOF 17
ENDMDL
MODEL      349
REMARK 921   NORMALIZED FREE ENERGY PREDICTED BY IDOCK:   -3.29 KCAL/MOL
REMARK 922        TOTAL FREE ENERGY PREDICTED BY IDOCK:   -9.99 KCAL/MOL
REMARK 923 INTER-LIGAND FREE ENERGY PREDICTED BY IDOCK:   -7.35 KCAL/MOL
REMARK 924 INTRA-LIGAND FREE ENERGY PREDICTED BY IDOCK:   -2.65 KCAL/MOL
REMARK 927      BINDING AFFINITY PREDICTED BY RF-SCORE:    0.00 PKD
ROOT
HETATM    1  O   UNL     1     -11.456  10.449  67.209  1.00  0.00    -0.399 OA 
HETATM    2  C   UNL     1     -10.761  10.889  66.074  1.00  0.00    -0.140 C  
HETATM    3  H   UNL     1     -11.822   9.588  67.046  1.00  0.00     0.000 HD 
ENDROOT
BRANCH   2   4
HETATM    4  C   UNL     1     -10.168  12.284  66.339  1.00  0.00    -0.225 C  
HETATM    5  O   UNL     1      -9.610  12.785  65.150  1.00  0.00    -0.479 OA 
HETATM    6  H   UNL     1      -9.244  13.646  65.314  1.00  0.00     0.000 HD 
BRANCH   4   7
HETATM    7  C   UNL     1     -11.245  13.271  66.861  1.00  0.00    -0.305 C  
HETATM    8  H   UNL     1     -13.186  13.350  66.940  1.00  0.00     0.000 HD 
HETATM    9  O   UNL     1     -12.527  12.745  66.620  1.00  0.00    -0.373 OA 
BRANCH   7  10
HETATM   10  C   UNL     1     -11.090  13.548  68.381  1.00  0.00    -0.271 C  
HETATM   11  H   UNL     1      -9.630  13.633  69.643  1.00  0.00     0.000 HD 
HETATM   12  O   UNL     1      -9.725  13.463  68.712  1.00  0.00    -0.130 OA 
BRANCH  10  13
HETATM   13  C   UNL     1     -11.887  12.557  69.274  1.00  0.00    -0.304 C  
HETATM   14  H   UNL     1     -11.535  10.902  70.227  1.00  0.00     0.000 HD 
HETATM   15  O   UNL     1     -11.047  11.508  69.681  1.00  0.00    -0.226 OA 
BRANCH  13  16
HETATM   16  C   UNL     1     -12.463  13.198  70.515  1.00  0.00    -0.248 C  
HETATM   17  O   UNL     1     -12.575  14.413  70.572  1.00  0.00    -0.328 OA 
BRANCH  16  18
HETATM   18  O   UNL     1     -12.846  12.453  71.570  1.00  0.00    -0.366 OA 
BRANCH  18  19
HETATM   19 CA   UNL     1     -12.022  10.186  71.774  1.00  0.00    -0.313 Ca 
BRANCH  19  20
HETATM   20  O   UNL     1     -11.197   7.921  71.977  1.00  0.00    -0.256 OA 
BRANCH  20  21
HETATM   21  C   UNL     1      -9.930   7.961  72.425  1.00  0.00    -0.229 C  
HETATM   22  O   UNL     1      -9.593   8.920  73.098  1.00  0.00     0.124 OA 
BRANCH  21  23
HETATM   23  C   UNL     1      -8.895   6.954  71.978  1.00  0.00    -0.132 C  
HETATM   24  H   UNL     1      -7.913   5.506  72.795  1.00  0.00     0.000 HD 
HETATM   25  O   UNL     1      -8.563   6.139  73.076  1.00  0.00    -0.119 OA 
BRANCH  23  26
HETATM   26  C   UNL     1      -7.590   7.578  71.396  1.00  0.00    -0.081 C  
HETATM   27  H   UNL     1      -5.680   7.366  71.659  1.00  0.00     0.000 HD 
HETATM   28  O   UNL     1      -6.475   6.986  72.013  1.00  0.00    -0.051 OA 
BRANCH  26  29
HETATM   29  C   UNL     1      -7.408   7.545  69.839  1.00  0.00    -0.082 C  
BRANCH  29  30
HETATM   30  O   UNL     1      -7.296   6.176  69.477  1.00  0.00    -0.075 OA 
BRANCH  30  31
HETATM   31  C   UNL     1      -7.937   5.803  68.274  1.00  0.00    -0.104 C  
HETATM   32  O   UNL     1      -7.375   6.513  67.182  1.00  0.00    -0.082 OA 
HETATM   33  C   UNL     1      -8.000   6.137  65.964  1.00  0.00    -0.110 C  
HETATM   34  H   UNL     1     -10.933   5.713  69.614  1.00  0.00     0.000 HD 
HETATM   35  C   UNL     1      -9.484   6.588  65.964  1.00  0.00     0.055 C  
HETATM   36  O   UNL     1      -9.576   7.983  66.124  1.00  0.00    -0.372 OA 
HETATM   37  C   UNL     1     -10.204   5.881  67.132  1.00  0.00    -0.203 C  
HETATM   38  O   UNL     1     -10.015   5.489  69.517  1.00  0.00    -0.174 OA 
HETATM   39  H   UNL     1     -10.485   8.258  66.124  1.00  0.00     0.000 HD 
HETATM   40  O   UNL     1     -11.531   6.326  67.268  1.00  0.00    -0.647 OA 
HETATM   41  C   UNL     1      -9.434   6.170  68.431  1.00  0.00    -0.118 C  
HETATM   42  H   UNL     1     -11.975   5.891  67.987  1.00  0.00     0.000 HD 
BRANCH  33  43
HETATM   43  C   UNL     1      -7.203   6.766  64.810  1.00  0.00    -0.082 C  
HETATM   44  O   UNL     1      -8.055   7.242  63.803  1.00  0.00    -0.275 OA 
HETATM   45  H   UNL     1      -7.563   7.631  63.090  1.00  0.00     0.000 HD 
ENDBRANCH  33  43
ENDBRANCH  30  31
ENDBRANCH  29  30
BRANCH  29  46
HETATM   46  C   UNL     1      -6.226   8.404  69.268  1.00  0.00    -0.038 C  
HETATM   47  O   UNL     1      -5.421   8.910  70.307  1.00  0.00    -0.027 OA 
HETATM   48  H   UNL     1      -4.706   9.430  69.961  1.00  0.00     0.000 HD 
BRANCH  46  49
HETATM   49  C   UNL     1      -6.642   9.503  68.262  1.00  0.00    -0.057 C  
HETATM   50  H   UNL     1      -8.294  10.318  67.609  1.00  0.00     0.000 HD 
HETATM   51  O   UNL     1      -8.038   9.643  68.227  1.00  0.00    -0.103 OA 
ENDBRANCH  46  49
ENDBRANCH  29  46
ENDBRANCH  26  29
ENDBRANCH  23  26
ENDBRANCH  21  23
ENDBRANCH  20  21
ENDBRANCH  19  20
ENDBRANCH  18  19
ENDBRANCH  16  18
ENDBRANCH  13  16
ENDBRANCH  10  13
ENDBRANCH   7  10
ENDBRANCH   4   7
ENDBRANCH   2   4
TORSDOF 17
ENDMDL
MODEL      350
REMARK 921   NORMALIZED FREE ENERGY PREDICTED BY IDOCK:   -3.27 KCAL/MOL
REMARK 922        TOTAL FREE ENERGY PREDICTED BY IDOCK:   -9.96 KCAL/MOL
REMARK 923 INTER-LIGAND FREE ENERGY PREDICTED BY IDOCK:   -8.00 KCAL/MOL
REMARK 924 INTRA-LIGAND FREE ENERGY PREDICTED BY IDOCK:   -1.95 KCAL/MOL
REMARK 927      BINDING AFFINITY PREDICTED BY RF-SCORE:    0.00 PKD
ROOT
HETATM    1  O   UNL     1      -5.515  21.380  68.055  1.00  0.00    -0.375 OA 
HETATM    2  C   UNL     1      -5.639  20.387  67.073  1.00  0.00    -0.170 C  
HETATM    3  H   UNL     1      -4.984  22.095  67.721  1.00  0.00     0.000 HD 
ENDROOT
BRANCH   2   4
HETATM    4  C   UNL     1      -6.498  19.231  67.613  1.00  0.00    -0.212 C  
HETATM    5  O   UNL     1      -6.855  19.500  68.946  1.00  0.00    -0.310 OA 
HETATM    6  H   UNL     1      -7.385  18.786  69.279  1.00  0.00     0.000 HD 
BRANCH   4   7
HETATM    7  C   UNL     1      -7.781  19.030  66.765  1.00  0.00    -0.244 C  
HETATM    8  H   UNL     1      -8.234  18.890  64.879  1.00  0.00     0.000 HD 
HETATM    9  O   UNL     1      -7.448  19.013  65.398  1.00  0.00    -0.442 OA 
BRANCH   7  10
HETATM   10  C   UNL     1      -8.512  17.708  67.123  1.00  0.00    -0.226 C  
HETATM   11  H   UNL     1      -8.801  15.998  66.273  1.00  0.00     0.000 HD 
HETATM   12  O   UNL     1      -8.353  16.807  66.053  1.00  0.00    -0.434 OA 
BRANCH  10  13
HETATM   13  C   UNL     1     -10.029  17.896  67.401  1.00  0.00    -0.325 C  
HETATM   14  H   UNL     1     -11.630  18.268  66.366  1.00  0.00     0.000 HD 
HETATM   15  O   UNL     1     -10.702  18.153  66.196  1.00  0.00    -0.320 OA 
BRANCH  13  16
HETATM   16  C   UNL     1     -10.674  16.692  68.045  1.00  0.00    -0.350 C  
HETATM   17  O   UNL     1     -10.274  16.298  69.130  1.00  0.00    -0.234 OA 
BRANCH  16  18
HETATM   18  O   UNL     1     -11.681  16.032  67.437  1.00  0.00     0.111 OA 
BRANCH  18  19
HETATM   19 CA   UNL     1     -11.986  13.674  67.886  1.00  0.00    -0.259 Ca 
BRANCH  19  20
HETATM   20  O   UNL     1     -12.291  11.315  68.335  1.00  0.00    -0.545 OA 
BRANCH  20  21
HETATM   21  C   UNL     1     -11.379  10.621  67.633  1.00  0.00    -0.207 C  
HETATM   22  O   UNL     1     -11.367   9.408  67.755  1.00  0.00     0.101 OA 
BRANCH  21  23
HETATM   23  C   UNL     1     -10.283  11.309  66.850  1.00  0.00    -0.219 C  
HETATM   24  H   UNL     1     -10.129  12.172  65.130  1.00  0.00     0.000 HD 
HETATM   25  O   UNL     1     -10.817  11.740  65.622  1.00  0.00    -0.278 OA 
BRANCH  23  26
HETATM   26  C   UNL     1      -9.027  10.427  66.576  1.00  0.00    -0.145 C  
HETATM   27  H   UNL     1      -7.943   9.943  65.043  1.00  0.00     0.000 HD 
HETATM   28  O   UNL     1      -8.709  10.480  65.209  1.00  0.00    -0.177 OA 
BRANCH  26  29
HETATM   29  C   UNL     1      -7.743  10.719  67.427  1.00  0.00    -0.107 C  
BRANCH  29  30
HETATM   30  O   UNL     1      -8.148  10.689  68.788  1.00  0.00    -0.121 OA 
BRANCH  30  31
HETATM   31  C   UNL     1      -8.029   9.440  69.438  1.00  0.00    -0.089 C  
HETATM   32  O   UNL     1      -9.293   9.023  69.927  1.00  0.00    -0.158 OA 
HETATM   33  C   UNL     1      -9.191   7.761  70.569  1.00  0.00    -0.162 C  
HETATM   34  H   UNL     1      -5.179  10.190  70.884  1.00  0.00     0.000 HD 
HETATM   35  C   UNL     1      -8.329   7.884  71.853  1.00  0.00    -0.121 C  
HETATM   36  O   UNL     1      -8.897   8.814  72.742  1.00  0.00    -0.382 OA 
HETATM   37  C   UNL     1      -6.916   8.349  71.444  1.00  0.00    -0.072 C  
HETATM   38  O   UNL     1      -5.783  10.068  70.162  1.00  0.00    -0.041 OA 
HETATM   39  H   UNL     1      -8.369   8.889  73.527  1.00  0.00     0.000 HD 
HETATM   40  O   UNL     1      -6.105   8.594  72.566  1.00  0.00    -0.075 OA 
HETATM   41  C   UNL     1      -7.044   9.640  70.617  1.00  0.00    -0.109 C  
HETATM   42  H   UNL     1      -5.235   8.880  72.314  1.00  0.00     0.000 HD 
BRANCH  33  43
HETATM   43  C   UNL     1     -10.615   7.268  70.872  1.00  0.00    -0.220 C  
HETATM   44  O   UNL     1     -11.185   6.638  69.756  1.00  0.00    -0.315 OA 
HETATM   45  H   UNL     1     -12.064   6.333  69.943  1.00  0.00     0.000 HD 
ENDBRANCH  33  43
ENDBRANCH  30  31
ENDBRANCH  29  30
BRANCH  29  46
HETATM   46  C   UNL     1      -6.968  12.036  67.071  1.00  0.00    -0.095 C  
HETATM   47  O   UNL     1      -5.830  11.757  66.290  1.00  0.00    -0.476 OA 
HETATM   48  H   UNL     1      -5.361  12.554  66.074  1.00  0.00     0.000 HD 
BRANCH  46  49
HETATM   49  C   UNL     1      -6.642  12.950  68.275  1.00  0.00    -0.091 C  
HETATM   50  H   UNL     1      -6.729  14.852  68.716  1.00  0.00     0.000 HD 
HETATM   51  O   UNL     1      -6.930  14.290  67.976  1.00  0.00    -0.111 OA 
ENDBRANCH  46  49
ENDBRANCH  29  46
ENDBRANCH  26  29
ENDBRANCH  23  26
ENDBRANCH  21  23
ENDBRANCH  20  21
ENDBRANCH  19  20
ENDBRANCH  18  19
ENDBRANCH  16  18
ENDBRANCH  13  16
ENDBRANCH  10  13
ENDBRANCH   7  10
ENDBRANCH   4   7
ENDBRANCH   2   4
TORSDOF 17
ENDMDL
MODEL      351
REMARK 921   NORMALIZED FREE ENERGY PREDICTED BY IDOCK:   -3.27 KCAL/MOL
REMARK 922        TOTAL FREE ENERGY PREDICTED BY IDOCK:   -9.96 KCAL/MOL
REMARK 923 INTER-LIGAND FREE ENERGY PREDICTED BY IDOCK:   -7.00 KCAL/MOL
REMARK 924 INTRA-LIGAND FREE ENERGY PREDICTED BY IDOCK:   -2.95 KCAL/MOL
REMARK 927      BINDING AFFINITY PREDICTED BY RF-SCORE:    0.00 PKD
ROOT
HETATM    1  O   UNL     1     -11.188   6.762  72.415  1.00  0.00    -0.247 OA 
HETATM    2  C   UNL     1     -11.817   8.013  72.352  1.00  0.00    -0.372 C  
HETATM    3  H   UNL     1     -10.988   6.550  73.320  1.00  0.00     0.000 HD 
ENDROOT
BRANCH   2   4
HETATM    4  C   UNL     1     -12.140   8.357  70.888  1.00  0.00    -0.138 C  
HETATM    5  O   UNL     1     -13.291   9.162  70.842  1.00  0.00    -0.550 OA 
HETATM    6  H   UNL     1     -13.491   9.374  69.938  1.00  0.00     0.000 HD 
BRANCH   4   7
HETATM    7  C   UNL     1     -10.962   9.100  70.203  1.00  0.00    -0.239 C  
HETATM    8  H   UNL     1      -9.122   9.553  70.635  1.00  0.00     0.000 HD 
HETATM    9  O   UNL     1      -9.842   9.098  71.055  1.00  0.00    -0.253 OA 
BRANCH   7  10
HETATM   10  C   UNL     1     -10.570   8.445  68.852  1.00  0.00    -0.140 C  
HETATM   11  H   UNL     1     -10.773   8.877  66.980  1.00  0.00     0.000 HD 
HETATM   12  O   UNL     1     -11.013   9.278  67.808  1.00  0.00    -0.186 OA 
BRANCH  10  13
HETATM   13  C   UNL     1     -11.172   7.026  68.654  1.00  0.00     0.073 C  
HETATM   14  H   UNL     1     -11.840   5.958  67.176  1.00  0.00     0.000 HD 
HETATM   15  O   UNL     1     -11.471   6.826  67.297  1.00  0.00    -0.193 OA 
BRANCH  13  16
HETATM   16  C   UNL     1     -10.249   5.915  69.095  1.00  0.00    -0.215 C  
HETATM   17  O   UNL     1     -10.682   5.008  69.788  1.00  0.00    -0.140 OA 
BRANCH  16  18
HETATM   18  O   UNL     1      -8.947   5.912  68.746  1.00  0.00    -0.117 OA 
BRANCH  18  19
HETATM   19 CA   UNL     1      -8.071   7.755  67.445  1.00  0.00    -0.103 Ca 
BRANCH  19  20
HETATM   20  O   UNL     1      -7.195   9.597  66.143  1.00  0.00    -0.094 OA 
BRANCH  20  21
HETATM   21  C   UNL     1      -6.800  10.570  66.983  1.00  0.00    -0.087 C  
HETATM   22  O   UNL     1      -6.207  10.243  67.997  1.00  0.00    -0.055 OA 
BRANCH  21  23
HETATM   23  C   UNL     1      -7.220  12.010  66.788  1.00  0.00     0.038 C  
HETATM   24  H   UNL     1      -6.851  13.698  67.648  1.00  0.00     0.000 HD 
HETATM   25  O   UNL     1      -6.588  12.794  67.770  1.00  0.00    -0.100 OA 
BRANCH  23  26
HETATM   26  C   UNL     1      -8.758  12.254  66.855  1.00  0.00    -0.197 C  
HETATM   27  H   UNL     1     -10.140  12.213  68.214  1.00  0.00     0.000 HD 
HETATM   28  O   UNL     1      -9.203  12.064  68.173  1.00  0.00    -0.185 OA 
BRANCH  26  29
HETATM   29  C   UNL     1      -9.293  13.624  66.312  1.00  0.00    -0.133 C  
BRANCH  29  30
HETATM   30  O   UNL     1      -9.763  14.347  67.440  1.00  0.00    -0.215 OA 
BRANCH  30  31
HETATM   31  C   UNL     1      -9.076  15.547  67.731  1.00  0.00    -0.178 C  
HETATM   32  O   UNL     1      -8.267  15.926  66.630  1.00  0.00    -0.245 OA 
HETATM   33  C   UNL     1      -7.583  17.139  66.904  1.00  0.00    -0.205 C  
HETATM   34  H   UNL     1      -8.422  14.704  70.836  1.00  0.00     0.000 HD 
HETATM   35  C   UNL     1      -6.559  16.928  68.049  1.00  0.00    -0.144 C  
HETATM   36  O   UNL     1      -5.626  15.935  67.700  1.00  0.00    -0.136 OA 
HETATM   37  C   UNL     1      -7.331  16.496  69.314  1.00  0.00    -0.201 C  
HETATM   38  O   UNL     1      -8.966  14.875  70.077  1.00  0.00     0.184 OA 
HETATM   39  H   UNL     1      -4.999  15.806  68.402  1.00  0.00     0.000 HD 
HETATM   40  O   UNL     1      -6.459  16.174  70.369  1.00  0.00     0.091 OA 
HETATM   41  C   UNL     1      -8.189  15.267  68.971  1.00  0.00    -0.205 C  
HETATM   42  H   UNL     1      -6.934  15.908  71.148  1.00  0.00     0.000 HD 
BRANCH  33  43
HETATM   43  C   UNL     1      -6.910  17.606  65.604  1.00  0.00     0.019 C  
HETATM   44  O   UNL     1      -5.554  17.900  65.809  1.00  0.00    -0.184 OA 
HETATM   45  H   UNL     1      -5.138  18.188  65.006  1.00  0.00     0.000 HD 
ENDBRANCH  33  43
ENDBRANCH  30  31
ENDBRANCH  29  30
BRANCH  29  46
HETATM   46  C   UNL     1     -10.372  13.538  65.175  1.00  0.00    -0.353 C  
HETATM   47  O   UNL     1     -10.503  14.772  64.508  1.00  0.00    -0.556 OA 
HETATM   48  H   UNL     1     -11.155  14.719  63.821  1.00  0.00     0.000 HD 
BRANCH  46  49
HETATM   49  C   UNL     1     -11.739  12.961  65.613  1.00  0.00    -0.387 C  
HETATM   50  H   UNL     1     -13.551  12.824  64.892  1.00  0.00     0.000 HD 
HETATM   51  O   UNL     1     -12.711  13.177  64.623  1.00  0.00    -0.653 OA 
ENDBRANCH  46  49
ENDBRANCH  29  46
ENDBRANCH  26  29
ENDBRANCH  23  26
ENDBRANCH  21  23
ENDBRANCH  20  21
ENDBRANCH  19  20
ENDBRANCH  18  19
ENDBRANCH  16  18
ENDBRANCH  13  16
ENDBRANCH  10  13
ENDBRANCH   7  10
ENDBRANCH   4   7
ENDBRANCH   2   4
TORSDOF 17
ENDMDL
MODEL      352
REMARK 921   NORMALIZED FREE ENERGY PREDICTED BY IDOCK:   -3.26 KCAL/MOL
REMARK 922        TOTAL FREE ENERGY PREDICTED BY IDOCK:   -9.94 KCAL/MOL
REMARK 923 INTER-LIGAND FREE ENERGY PREDICTED BY IDOCK:   -7.70 KCAL/MOL
REMARK 924 INTRA-LIGAND FREE ENERGY PREDICTED BY IDOCK:   -2.24 KCAL/MOL
REMARK 927      BINDING AFFINITY PREDICTED BY RF-SCORE:    0.00 PKD
ROOT
HETATM    1  O   UNL     1      -8.874  18.603  66.212  1.00  0.00    -0.385 OA 
HETATM    2  C   UNL     1     -10.239  18.395  65.970  1.00  0.00    -0.336 C  
HETATM    3  H   UNL     1      -8.628  19.475  65.925  1.00  0.00     0.000 HD 
ENDROOT
BRANCH   2   4
HETATM    4  C   UNL     1     -10.637  16.983  66.435  1.00  0.00    -0.172 C  
HETATM    5  O   UNL     1     -10.493  16.084  65.364  1.00  0.00    -0.380 OA 
HETATM    6  H   UNL     1     -10.739  15.212  65.651  1.00  0.00     0.000 HD 
BRANCH   4   7
HETATM    7  C   UNL     1      -9.767  16.509  67.629  1.00  0.00    -0.239 C  
HETATM    8  H   UNL     1      -9.305  17.162  69.401  1.00  0.00     0.000 HD 
HETATM    9  O   UNL     1      -9.838  17.453  68.670  1.00  0.00    -0.291 OA 
BRANCH   7  10
HETATM   10  C   UNL     1     -10.225  15.128  68.167  1.00  0.00    -0.227 C  
HETATM   11  H   UNL     1      -9.876  13.277  67.739  1.00  0.00     0.000 HD 
HETATM   12  O   UNL     1      -9.596  14.123  67.409  1.00  0.00    -0.220 OA 
BRANCH  10  13
HETATM   13  C   UNL     1     -11.763  14.917  68.104  1.00  0.00    -0.318 C  
HETATM   14  H   UNL     1     -12.994  13.660  67.280  1.00  0.00     0.000 HD 
HETATM   15  O   UNL     1     -12.053  13.789  67.319  1.00  0.00    -0.389 OA 
BRANCH  13  16
HETATM   16  C   UNL     1     -12.398  14.715  69.459  1.00  0.00    -0.195 C  
HETATM   17  O   UNL     1     -12.537  15.668  70.210  1.00  0.00    -0.407 OA 
BRANCH  16  18
HETATM   18  O   UNL     1     -12.805  13.495  69.863  1.00  0.00     0.005 OA 
BRANCH  18  19
HETATM   19 CA   UNL     1     -11.811  11.529  68.861  1.00  0.00    -0.204 Ca 
BRANCH  19  20
HETATM   20  O   UNL     1     -10.818   9.564  67.859  1.00  0.00    -0.245 OA 
BRANCH  20  21
HETATM   21  C   UNL     1      -9.731   9.218  68.571  1.00  0.00    -0.150 C  
HETATM   22  O   UNL     1      -9.706   9.516  69.753  1.00  0.00    -0.186 OA 
BRANCH  21  23
HETATM   23  C   UNL     1      -8.499   8.637  67.914  1.00  0.00    -0.129 C  
HETATM   24  H   UNL     1      -7.320   9.140  66.471  1.00  0.00     0.000 HD 
HETATM   25  O   UNL     1      -8.094   9.505  66.883  1.00  0.00    -0.108 OA 
BRANCH  23  26
HETATM   26  C   UNL     1      -8.688   7.205  67.328  1.00  0.00    -0.120 C  
HETATM   27  H   UNL     1      -7.643   5.957  66.274  1.00  0.00     0.000 HD 
HETATM   28  O   UNL     1      -7.528   6.830  66.631  1.00  0.00    -0.076 OA 
BRANCH  26  29
HETATM   29  C   UNL     1      -9.094   6.067  68.326  1.00  0.00    -0.111 C  
BRANCH  29  30
HETATM   30  O   UNL     1      -8.318   6.266  69.499  1.00  0.00    -0.115 OA 
BRANCH  30  31
HETATM   31  C   UNL     1      -9.011   6.139  70.724  1.00  0.00    -0.143 C  
HETATM   32  O   UNL     1     -10.386   6.430  70.539  1.00  0.00    -0.192 OA 
HETATM   33  C   UNL     1     -11.097   6.292  71.760  1.00  0.00    -0.273 C  
HETATM   34  H   UNL     1      -6.622   7.530  72.496  1.00  0.00     0.000 HD 
HETATM   35  C   UNL     1     -10.632   7.370  72.773  1.00  0.00    -0.297 C  
HETATM   36  O   UNL     1     -10.845   8.660  72.253  1.00  0.00    -0.354 OA 
HETATM   37  C   UNL     1      -9.128   7.160  73.047  1.00  0.00    -0.136 C  
HETATM   38  O   UNL     1      -7.009   6.904  71.896  1.00  0.00    -0.068 OA 
HETATM   39  H   UNL     1     -10.560   9.320  72.874  1.00  0.00     0.000 HD 
HETATM   40  O   UNL     1      -8.605   8.172  73.872  1.00  0.00    -0.260 OA 
HETATM   41  C   UNL     1      -8.379   7.161  71.704  1.00  0.00    -0.110 C  
HETATM   42  H   UNL     1      -7.679   8.043  74.040  1.00  0.00     0.000 HD 
BRANCH  33  43
HETATM   43  C   UNL     1     -12.598   6.398  71.448  1.00  0.00     0.092 C  
HETATM   44  O   UNL     1     -13.178   7.495  72.101  1.00  0.00    -0.496 OA 
HETATM   45  H   UNL     1     -14.105   7.561  71.908  1.00  0.00     0.000 HD 
ENDBRANCH  33  43
ENDBRANCH  30  31
ENDBRANCH  29  30
BRANCH  29  46
HETATM   46  C   UNL     1      -8.973   4.600  67.781  1.00  0.00    -0.113 C  
HETATM   47  O   UNL     1      -7.642   4.301  67.428  1.00  0.00    -0.076 OA 
HETATM   48  H   UNL     1      -7.568   3.414  67.098  1.00  0.00     0.000 HD 
BRANCH  46  49
HETATM   49  C   UNL     1      -9.972   4.234  66.659  1.00  0.00    -0.177 C  
HETATM   50  H   UNL     1     -10.458   4.888  64.882  1.00  0.00     0.000 HD 
HETATM   51  O   UNL     1      -9.844   5.112  65.572  1.00  0.00    -0.094 OA 
ENDBRANCH  46  49
ENDBRANCH  29  46
ENDBRANCH  26  29
ENDBRANCH  23  26
ENDBRANCH  21  23
ENDBRANCH  20  21
ENDBRANCH  19  20
ENDBRANCH  18  19
ENDBRANCH  16  18
ENDBRANCH  13  16
ENDBRANCH  10  13
ENDBRANCH   7  10
ENDBRANCH   4   7
ENDBRANCH   2   4
TORSDOF 17
ENDMDL
MODEL      353
REMARK 921   NORMALIZED FREE ENERGY PREDICTED BY IDOCK:   -3.26 KCAL/MOL
REMARK 922        TOTAL FREE ENERGY PREDICTED BY IDOCK:   -9.93 KCAL/MOL
REMARK 923 INTER-LIGAND FREE ENERGY PREDICTED BY IDOCK:   -6.51 KCAL/MOL
REMARK 924 INTRA-LIGAND FREE ENERGY PREDICTED BY IDOCK:   -3.42 KCAL/MOL
REMARK 927      BINDING AFFINITY PREDICTED BY RF-SCORE:    0.00 PKD
ROOT
HETATM    1  O   UNL     1      -7.049   8.941  69.371  1.00  0.00    -0.055 OA 
HETATM    2  C   UNL     1      -7.604   9.980  70.130  1.00  0.00    -0.155 C  
HETATM    3  H   UNL     1      -6.323   8.552  69.844  1.00  0.00     0.000 HD 
ENDROOT
BRANCH   2   4
HETATM    4  C   UNL     1      -8.779  10.610  69.364  1.00  0.00    -0.023 C  
HETATM    5  O   UNL     1      -8.294  11.239  68.204  1.00  0.00    -0.129 OA 
HETATM    6  H   UNL     1      -9.020  11.628  67.731  1.00  0.00     0.000 HD 
BRANCH   4   7
HETATM    7  C   UNL     1      -9.839   9.547  68.971  1.00  0.00    -0.176 C  
HETATM    8  H   UNL     1     -10.402   7.797  69.604  1.00  0.00     0.000 HD 
HETATM    9  O   UNL     1      -9.753   8.448  69.845  1.00  0.00    -0.177 OA 
BRANCH   7  10
HETATM   10  C   UNL     1     -11.280  10.120  69.018  1.00  0.00    -0.173 C  
HETATM   11  H   UNL     1     -12.425  11.120  67.827  1.00  0.00     0.000 HD 
HETATM   12  O   UNL     1     -11.542  10.769  67.798  1.00  0.00    -0.521 OA 
BRANCH  10  13
HETATM   13  C   UNL     1     -11.509  11.124  70.182  1.00  0.00    -0.272 C  
HETATM   14  H   UNL     1     -12.216  12.921  70.391  1.00  0.00     0.000 HD 
HETATM   15  O   UNL     1     -12.076  12.307  69.680  1.00  0.00    -0.279 OA 
BRANCH  13  16
HETATM   16  C   UNL     1     -12.423  10.593  71.261  1.00  0.00    -0.410 C  
HETATM   17  O   UNL     1     -13.401  11.242  71.599  1.00  0.00    -0.356 OA 
BRANCH  16  18
HETATM   18  O   UNL     1     -12.173   9.416  71.869  1.00  0.00    -0.365 OA 
BRANCH  18  19
HETATM   19 CA   UNL     1     -11.541   7.505  70.525  1.00  0.00    -0.258 Ca 
BRANCH  19  20
HETATM   20  O   UNL     1     -10.910   5.595  69.181  1.00  0.00    -0.284 OA 
BRANCH  20  21
HETATM   21  C   UNL     1     -10.008   4.867  69.861  1.00  0.00    -0.247 C  
HETATM   22  O   UNL     1     -10.262   4.581  71.019  1.00  0.00    -0.183 OA 
BRANCH  21  23
HETATM   23  C   UNL     1      -8.643   4.554  69.291  1.00  0.00    -0.078 C  
HETATM   24  H   UNL     1      -6.984   3.830  69.962  1.00  0.00     0.000 HD 
HETATM   25  O   UNL     1      -7.841   4.028  70.320  1.00  0.00    -0.048 OA 
BRANCH  23  26
HETATM   26  C   UNL     1      -7.911   5.771  68.649  1.00  0.00    -0.101 C  
HETATM   27  H   UNL     1      -6.243   6.723  68.917  1.00  0.00     0.000 HD 
HETATM   28  O   UNL     1      -6.689   5.982  69.309  1.00  0.00    -0.055 OA 
BRANCH  26  29
HETATM   29  C   UNL     1      -7.672   5.732  67.100  1.00  0.00    -0.101 C  
BRANCH  29  30
HETATM   30  O   UNL     1      -7.101   4.463  66.813  1.00  0.00    -0.065 OA 
BRANCH  30  31
HETATM   31  C   UNL     1      -7.459   3.893  65.571  1.00  0.00    -0.081 C  
HETATM   32  O   UNL     1      -7.797   4.914  64.646  1.00  0.00    -0.084 OA 
HETATM   33  C   UNL     1      -8.144   4.356  63.387  1.00  0.00    -0.090 C  
HETATM   34  H   UNL     1      -9.138   1.414  66.917  1.00  0.00     0.000 HD 
HETATM   35  C   UNL     1      -9.452   3.533  63.512  1.00  0.00    -0.121 C  
HETATM   36  O   UNL     1     -10.506   4.346  63.967  1.00  0.00    -0.425 OA 
HETATM   37  C   UNL     1      -9.209   2.386  64.515  1.00  0.00    -0.132 C  
HETATM   38  O   UNL     1      -8.385   1.971  66.758  1.00  0.00    -0.079 OA 
HETATM   39  H   UNL     1     -11.307   3.842  64.043  1.00  0.00     0.000 HD 
HETATM   40  O   UNL     1     -10.386   1.659  64.769  1.00  0.00    -0.157 OA 
HETATM   41  C   UNL     1      -8.688   2.986  65.831  1.00  0.00    -0.131 C  
HETATM   42  H   UNL     1     -10.236   0.953  65.386  1.00  0.00     0.000 HD 
BRANCH  33  43
HETATM   43  C   UNL     1      -8.277   5.508  62.379  1.00  0.00    -0.105 C  
HETATM   44  O   UNL     1      -8.589   6.714  63.022  1.00  0.00    -0.336 OA 
HETATM   45  H   UNL     1      -8.671   7.426  62.399  1.00  0.00     0.000 HD 
ENDBRANCH  33  43
ENDBRANCH  30  31
ENDBRANCH  29  30
BRANCH  29  46
HETATM   46  C   UNL     1      -6.821   6.909  66.506  1.00  0.00    -0.068 C  
HETATM   47  O   UNL     1      -5.656   7.125  67.269  1.00  0.00    -0.022 OA 
HETATM   48  H   UNL     1      -5.141   7.837  66.910  1.00  0.00     0.000 HD 
BRANCH  46  49
HETATM   49  C   UNL     1      -7.603   8.218  66.250  1.00  0.00    -0.096 C  
HETATM   50  H   UNL     1      -7.281  10.143  66.356  1.00  0.00     0.000 HD 
HETATM   51  O   UNL     1      -6.800   9.339  66.513  1.00  0.00    -0.078 OA 
ENDBRANCH  46  49
ENDBRANCH  29  46
ENDBRANCH  26  29
ENDBRANCH  23  26
ENDBRANCH  21  23
ENDBRANCH  20  21
ENDBRANCH  19  20
ENDBRANCH  18  19
ENDBRANCH  16  18
ENDBRANCH  13  16
ENDBRANCH  10  13
ENDBRANCH   7  10
ENDBRANCH   4   7
ENDBRANCH   2   4
TORSDOF 17
ENDMDL
MODEL      354
REMARK 921   NORMALIZED FREE ENERGY PREDICTED BY IDOCK:   -3.25 KCAL/MOL
REMARK 922        TOTAL FREE ENERGY PREDICTED BY IDOCK:   -9.92 KCAL/MOL
REMARK 923 INTER-LIGAND FREE ENERGY PREDICTED BY IDOCK:   -8.16 KCAL/MOL
REMARK 924 INTRA-LIGAND FREE ENERGY PREDICTED BY IDOCK:   -1.76 KCAL/MOL
REMARK 927      BINDING AFFINITY PREDICTED BY RF-SCORE:    0.00 PKD
ROOT
HETATM    1  O   UNL     1      -5.528  21.358  68.050  1.00  0.00    -0.375 OA 
HETATM    2  C   UNL     1      -5.625  20.351  67.079  1.00  0.00    -0.170 C  
HETATM    3  H   UNL     1      -5.016  22.082  67.709  1.00  0.00     0.000 HD 
ENDROOT
BRANCH   2   4
HETATM    4  C   UNL     1      -6.455  19.179  67.631  1.00  0.00    -0.212 C  
HETATM    5  O   UNL     1      -6.828  19.458  68.957  1.00  0.00    -0.312 OA 
HETATM    6  H   UNL     1      -7.341  18.734  69.298  1.00  0.00     0.000 HD 
BRANCH   4   7
HETATM    7  C   UNL     1      -7.727  18.929  66.778  1.00  0.00    -0.240 C  
HETATM    8  H   UNL     1      -8.166  18.767  64.891  1.00  0.00     0.000 HD 
HETATM    9  O   UNL     1      -7.387  18.919  65.413  1.00  0.00    -0.478 OA 
BRANCH   7  10
HETATM   10  C   UNL     1      -8.412  17.584  67.138  1.00  0.00    -0.217 C  
HETATM   11  H   UNL     1      -8.634  15.861  66.293  1.00  0.00     0.000 HD 
HETATM   12  O   UNL     1      -8.215  16.685  66.073  1.00  0.00    -0.386 OA 
BRANCH  10  13
HETATM   13  C   UNL     1      -9.936  17.718  67.407  1.00  0.00    -0.323 C  
HETATM   14  H   UNL     1     -11.537  18.079  66.369  1.00  0.00     0.000 HD 
HETATM   15  O   UNL     1     -10.605  17.997  66.204  1.00  0.00    -0.362 OA 
BRANCH  13  16
HETATM   16  C   UNL     1     -10.552  16.475  68.003  1.00  0.00    -0.328 C  
HETATM   17  O   UNL     1     -10.159  16.063  69.084  1.00  0.00    -0.214 OA 
BRANCH  16  18
HETATM   18  O   UNL     1     -11.524  15.800  67.357  1.00  0.00    -0.186 OA 
BRANCH  18  19
HETATM   19 CA   UNL     1     -11.722  13.411  67.690  1.00  0.00    -0.243 Ca 
BRANCH  19  20
HETATM   20  O   UNL     1     -11.921  11.023  68.023  1.00  0.00    -0.623 OA 
BRANCH  20  21
HETATM   21  C   UNL     1     -10.998  10.403  67.267  1.00  0.00    -0.240 C  
HETATM   22  O   UNL     1     -10.950   9.186  67.308  1.00  0.00    -0.151 OA 
BRANCH  21  23
HETATM   23  C   UNL     1      -9.932  11.173  66.520  1.00  0.00    -0.214 C  
HETATM   24  H   UNL     1      -9.826  12.158  64.863  1.00  0.00     0.000 HD 
HETATM   25  O   UNL     1     -10.495  11.674  65.332  1.00  0.00    -0.256 OA 
BRANCH  23  26
HETATM   26  C   UNL     1      -8.658  10.347  66.169  1.00  0.00    -0.144 C  
HETATM   27  H   UNL     1      -7.545  10.054  64.608  1.00  0.00     0.000 HD 
HETATM   28  O   UNL     1      -8.322  10.558  64.821  1.00  0.00    -0.170 OA 
BRANCH  26  29
HETATM   29  C   UNL     1      -7.390  10.562  67.067  1.00  0.00    -0.099 C  
BRANCH  29  30
HETATM   30  O   UNL     1      -7.806  10.342  68.407  1.00  0.00    -0.098 OA 
BRANCH  30  31
HETATM   31  C   UNL     1      -7.650   9.024  68.891  1.00  0.00    -0.083 C  
HETATM   32  O   UNL     1      -7.480   8.124  67.809  1.00  0.00    -0.091 OA 
HETATM   33  C   UNL     1      -7.307   6.796  68.282  1.00  0.00    -0.093 C  
HETATM   34  H   UNL     1      -9.937   9.352  71.223  1.00  0.00     0.000 HD 
HETATM   35  C   UNL     1      -8.608   6.300  68.965  1.00  0.00    -0.123 C  
HETATM   36  O   UNL     1      -9.685   6.335  68.060  1.00  0.00    -0.121 OA 
HETATM   37  C   UNL     1      -8.906   7.222  70.166  1.00  0.00    -0.145 C  
HETATM   38  O   UNL     1      -9.145   9.564  70.745  1.00  0.00    -0.231 OA 
HETATM   39  H   UNL     1     -10.481   6.031  68.479  1.00  0.00     0.000 HD 
HETATM   40  O   UNL     1     -10.135   6.904  70.771  1.00  0.00    -0.194 OA 
HETATM   41  C   UNL     1      -8.943   8.677  69.672  1.00  0.00    -0.145 C  
HETATM   42  H   UNL     1     -10.319   7.471  71.511  1.00  0.00     0.000 HD 
BRANCH  33  43
HETATM   43  C   UNL     1      -6.907   5.916  67.088  1.00  0.00    -0.063 C  
HETATM   44  O   UNL     1      -7.866   4.923  66.843  1.00  0.00    -0.097 OA 
HETATM   45  H   UNL     1      -7.619   4.379  66.105  1.00  0.00     0.000 HD 
ENDBRANCH  33  43
ENDBRANCH  30  31
ENDBRANCH  29  30
BRANCH  29  46
HETATM   46  C   UNL     1      -6.653  11.937  66.895  1.00  0.00    -0.083 C  
HETATM   47  O   UNL     1      -5.482  11.789  66.127  1.00  0.00    -0.486 OA 
HETATM   48  H   UNL     1      -5.036  12.621  66.023  1.00  0.00     0.000 HD 
BRANCH  46  49
HETATM   49  C   UNL     1      -6.397  12.710  68.210  1.00  0.00    -0.072 C  
HETATM   50  H   UNL     1      -7.071  14.313  69.103  1.00  0.00     0.000 HD 
HETATM   51  O   UNL     1      -7.229  13.837  68.295  1.00  0.00    -0.091 OA 
ENDBRANCH  46  49
ENDBRANCH  29  46
ENDBRANCH  26  29
ENDBRANCH  23  26
ENDBRANCH  21  23
ENDBRANCH  20  21
ENDBRANCH  19  20
ENDBRANCH  18  19
ENDBRANCH  16  18
ENDBRANCH  13  16
ENDBRANCH  10  13
ENDBRANCH   7  10
ENDBRANCH   4   7
ENDBRANCH   2   4
TORSDOF 17
ENDMDL
MODEL      355
REMARK 921   NORMALIZED FREE ENERGY PREDICTED BY IDOCK:   -3.24 KCAL/MOL
REMARK 922        TOTAL FREE ENERGY PREDICTED BY IDOCK:   -9.90 KCAL/MOL
REMARK 923 INTER-LIGAND FREE ENERGY PREDICTED BY IDOCK:   -8.35 KCAL/MOL
REMARK 924 INTRA-LIGAND FREE ENERGY PREDICTED BY IDOCK:   -1.55 KCAL/MOL
REMARK 927      BINDING AFFINITY PREDICTED BY RF-SCORE:    0.00 PKD
ROOT
HETATM    1  O   UNL     1     -12.817   9.462  70.619  1.00  0.00    -0.519 OA 
HETATM    2  C   UNL     1     -11.698   9.203  71.422  1.00  0.00    -0.343 C  
HETATM    3  H   UNL     1     -13.451   9.973  71.110  1.00  0.00     0.000 HD 
ENDROOT
BRANCH   2   4
HETATM    4  C   UNL     1     -10.672   8.376  70.628  1.00  0.00    -0.220 C  
HETATM    5  O   UNL     1     -11.157   8.162  69.326  1.00  0.00    -0.438 OA 
HETATM    6  H   UNL     1     -10.523   7.651  68.836  1.00  0.00     0.000 HD 
BRANCH   4   7
HETATM    7  C   UNL     1      -9.297   9.091  70.557  1.00  0.00    -0.219 C  
HETATM    8  H   UNL     1      -8.032   9.874  71.809  1.00  0.00     0.000 HD 
HETATM    9  O   UNL     1      -8.875   9.436  71.854  1.00  0.00    -0.163 OA 
BRANCH   7  10
HETATM   10  C   UNL     1      -8.214   8.198  69.894  1.00  0.00    -0.118 C  
HETATM   11  H   UNL     1      -7.883   6.304  69.715  1.00  0.00     0.000 HD 
HETATM   12  O   UNL     1      -8.547   6.850  70.121  1.00  0.00    -0.138 OA 
BRANCH  10  13
HETATM   13  C   UNL     1      -6.781   8.460  70.435  1.00  0.00    -0.036 C  
HETATM   14  H   UNL     1      -5.181   7.417  70.787  1.00  0.00     0.000 HD 
HETATM   15  O   UNL     1      -6.057   7.257  70.457  1.00  0.00    -0.030 OA 
BRANCH  13  16
HETATM   16  C   UNL     1      -6.000   9.456  69.609  1.00  0.00    -0.036 C  
HETATM   17  O   UNL     1      -6.053  10.644  69.885  1.00  0.00    -0.061 OA 
BRANCH  16  18
HETATM   18  O   UNL     1      -5.252   9.057  68.561  1.00  0.00    -0.034 OA 
BRANCH  18  19
HETATM   19 CA   UNL     1      -5.995   9.577  66.317  1.00  0.00    -0.049 Ca 
BRANCH  19  20
HETATM   20  O   UNL     1      -6.738  10.096  64.073  1.00  0.00    -0.129 OA 
BRANCH  20  21
HETATM   21  C   UNL     1      -8.030   9.744  63.954  1.00  0.00    -0.146 C  
HETATM   22  O   UNL     1      -8.356   8.632  64.332  1.00  0.00    -0.164 OA 
BRANCH  21  23
HETATM   23  C   UNL     1      -9.028  10.613  63.221  1.00  0.00    -0.224 C  
HETATM   24  H   UNL     1      -8.946  12.042  61.927  1.00  0.00     0.000 HD 
HETATM   25  O   UNL     1      -8.320  11.497  62.387  1.00  0.00    -0.245 OA 
BRANCH  23  26
HETATM   26  C   UNL     1      -9.977  11.436  64.145  1.00  0.00    -0.290 C  
HETATM   27  H   UNL     1     -11.866  11.868  64.210  1.00  0.00     0.000 HD 
HETATM   28  O   UNL     1     -11.288  11.367  63.647  1.00  0.00    -0.386 OA 
BRANCH  26  29
HETATM   29  C   UNL     1      -9.976  11.084  65.673  1.00  0.00    -0.248 C  
BRANCH  29  30
HETATM   30  O   UNL     1     -11.337  11.051  66.078  1.00  0.00    -0.043 OA 
BRANCH  30  31
HETATM   31  C   UNL     1     -11.889  12.287  66.484  1.00  0.00    -0.306 C  
HETATM   32  O   UNL     1     -11.309  13.347  65.742  1.00  0.00    -0.301 OA 
HETATM   33  C   UNL     1     -11.866  14.594  66.130  1.00  0.00    -0.277 C  
HETATM   34  H   UNL     1     -11.911  11.504  69.673  1.00  0.00     0.000 HD 
HETATM   35  C   UNL     1     -11.475  14.921  67.594  1.00  0.00    -0.352 C  
HETATM   36  O   UNL     1     -10.076  14.973  67.731  1.00  0.00    -0.232 OA 
HETATM   37  C   UNL     1     -12.047  13.815  68.506  1.00  0.00    -0.292 C  
HETATM   38  O   UNL     1     -12.112  11.403  68.750  1.00  0.00    -0.480 OA 
HETATM   39  H   UNL     1      -9.837  15.173  68.628  1.00  0.00     0.000 HD 
HETATM   40  O   UNL     1     -11.637  13.980  69.842  1.00  0.00    -0.275 OA 
HETATM   41  C   UNL     1     -11.561  12.451  67.990  1.00  0.00    -0.347 C  
HETATM   42  H   UNL     1     -11.989  13.300  70.403  1.00  0.00     0.000 HD 
BRANCH  33  43
HETATM   43  C   UNL     1     -11.368  15.662  65.144  1.00  0.00    -0.198 C  
HETATM   44  O   UNL     1     -10.075  15.369  64.687  1.00  0.00    -0.404 OA 
HETATM   45  H   UNL     1      -9.767  16.029  64.077  1.00  0.00     0.000 HD 
ENDBRANCH  33  43
ENDBRANCH  30  31
ENDBRANCH  29  30
BRANCH  29  46
HETATM   46  C   UNL     1      -9.110  12.017  66.592  1.00  0.00    -0.205 C  
HETATM   47  O   UNL     1      -8.689  13.165  65.892  1.00  0.00    -0.121 OA 
HETATM   48  H   UNL     1      -8.166  13.729  66.447  1.00  0.00     0.000 HD 
BRANCH  46  49
HETATM   49  C   UNL     1      -7.941  11.315  67.321  1.00  0.00    -0.141 C  
HETATM   50  H   UNL     1      -5.997  11.477  67.432  1.00  0.00     0.000 HD 
HETATM   51  O   UNL     1      -6.715  11.909  66.984  1.00  0.00    -0.139 OA 
ENDBRANCH  46  49
ENDBRANCH  29  46
ENDBRANCH  26  29
ENDBRANCH  23  26
ENDBRANCH  21  23
ENDBRANCH  20  21
ENDBRANCH  19  20
ENDBRANCH  18  19
ENDBRANCH  16  18
ENDBRANCH  13  16
ENDBRANCH  10  13
ENDBRANCH   7  10
ENDBRANCH   4   7
ENDBRANCH   2   4
TORSDOF 17
ENDMDL
MODEL      356
REMARK 921   NORMALIZED FREE ENERGY PREDICTED BY IDOCK:   -3.24 KCAL/MOL
REMARK 922        TOTAL FREE ENERGY PREDICTED BY IDOCK:   -9.89 KCAL/MOL
REMARK 923 INTER-LIGAND FREE ENERGY PREDICTED BY IDOCK:   -6.51 KCAL/MOL
REMARK 924 INTRA-LIGAND FREE ENERGY PREDICTED BY IDOCK:   -3.38 KCAL/MOL
REMARK 927      BINDING AFFINITY PREDICTED BY RF-SCORE:    0.00 PKD
ROOT
HETATM    1  O   UNL     1     -13.285  16.152  69.881  1.00  0.00    -0.385 OA 
HETATM    2  C   UNL     1     -11.885  16.172  69.942  1.00  0.00    -0.118 C  
HETATM    3  H   UNL     1     -13.619  17.041  69.916  1.00  0.00     0.000 HD 
ENDROOT
BRANCH   2   4
HETATM    4  C   UNL     1     -11.344  14.733  69.885  1.00  0.00    -0.271 C  
HETATM    5  O   UNL     1      -9.948  14.768  69.726  1.00  0.00    -0.430 OA 
HETATM    6  H   UNL     1      -9.614  13.879  69.691  1.00  0.00     0.000 HD 
BRANCH   4   7
HETATM    7  C   UNL     1     -11.698  13.939  71.170  1.00  0.00     0.221 C  
HETATM    8  H   UNL     1     -12.163  14.348  73.013  1.00  0.00     0.000 HD 
HETATM    9  O   UNL     1     -11.946  14.835  72.226  1.00  0.00    -0.321 OA 
BRANCH   7  10
HETATM   10  C   UNL     1     -12.945  13.037  70.969  1.00  0.00    -0.116 C  
HETATM   11  H   UNL     1     -14.861  13.262  71.068  1.00  0.00     0.000 HD 
HETATM   12  O   UNL     1     -14.098  13.814  71.191  1.00  0.00     0.039 OA 
BRANCH  10  13
HETATM   13  C   UNL     1     -12.978  11.807  71.917  1.00  0.00    -0.330 C  
HETATM   14  H   UNL     1     -14.123  11.132  73.333  1.00  0.00     0.000 HD 
HETATM   15  O   UNL     1     -14.103  11.885  72.754  1.00  0.00     0.536 OA 
BRANCH  13  16
HETATM   16  C   UNL     1     -13.034  10.487  71.186  1.00  0.00    -0.411 C  
HETATM   17  O   UNL     1     -13.377   9.478  71.782  1.00  0.00    -0.375 OA 
BRANCH  16  18
HETATM   18  O   UNL     1     -12.701  10.398  69.882  1.00  0.00    -0.156 OA 
BRANCH  18  19
HETATM   19 CA   UNL     1     -10.415  10.835  69.218  1.00  0.00    -0.163 Ca 
BRANCH  19  20
HETATM   20  O   UNL     1      -8.130  11.271  68.552  1.00  0.00    -0.134 OA 
BRANCH  20  21
HETATM   21  C   UNL     1      -8.053  12.522  68.066  1.00  0.00    -0.164 C  
HETATM   22  O   UNL     1      -7.275  13.294  68.599  1.00  0.00    -0.101 OA 
BRANCH  21  23
HETATM   23  C   UNL     1      -9.013  13.027  67.012  1.00  0.00    -0.225 C  
HETATM   24  H   UNL     1      -9.775  14.732  66.523  1.00  0.00     0.000 HD 
HETATM   25  O   UNL     1      -9.172  14.414  67.185  1.00  0.00    -0.203 OA 
BRANCH  23  26
HETATM   26  C   UNL     1     -10.416  12.348  67.030  1.00  0.00    -0.220 C  
HETATM   27  H   UNL     1     -12.262  12.917  67.199  1.00  0.00     0.000 HD 
HETATM   28  O   UNL     1     -11.407  13.331  67.188  1.00  0.00    -0.292 OA 
BRANCH  26  29
HETATM   29  C   UNL     1     -10.782  11.421  65.820  1.00  0.00    -0.251 C  
BRANCH  29  30
HETATM   30  O   UNL     1      -9.555  10.913  65.318  1.00  0.00    -0.203 OA 
BRANCH  30  31
HETATM   31  C   UNL     1      -9.320   9.537  65.542  1.00  0.00    -0.255 C  
HETATM   32  O   UNL     1      -9.964   9.122  66.736  1.00  0.00    -0.210 OA 
HETATM   33  C   UNL     1      -9.749   7.737  66.966  1.00  0.00    -0.197 C  
HETATM   34  H   UNL     1      -6.181   9.670  64.593  1.00  0.00     0.000 HD 
HETATM   35  C   UNL     1      -8.249   7.471  67.252  1.00  0.00    -0.115 C  
HETATM   36  O   UNL     1      -7.823   8.202  68.376  1.00  0.00    -0.114 OA 
HETATM   37  C   UNL     1      -7.436   7.902  66.013  1.00  0.00    -0.078 C  
HETATM   38  O   UNL     1      -7.120   9.779  64.511  1.00  0.00    -0.116 OA 
HETATM   39  H   UNL     1      -6.904   8.038  68.551  1.00  0.00     0.000 HD 
HETATM   40  O   UNL     1      -6.051   7.796  66.238  1.00  0.00    -0.043 OA 
HETATM   41  C   UNL     1      -7.787   9.360  65.677  1.00  0.00    -0.099 C  
HETATM   42  H   UNL     1      -5.551   8.061  65.475  1.00  0.00     0.000 HD 
BRANCH  33  43
HETATM   43  C   UNL     1     -10.648   7.307  68.135  1.00  0.00    -0.177 C  
HETATM   44  O   UNL     1     -10.764   8.327  69.091  1.00  0.00    -0.337 OA 
HETATM   45  H   UNL     1     -11.320   8.061  69.813  1.00  0.00     0.000 HD 
ENDBRANCH  33  43
ENDBRANCH  30  31
ENDBRANCH  29  30
BRANCH  29  46
HETATM   46  C   UNL     1     -11.655  12.077  64.693  1.00  0.00    -0.297 C  
HETATM   47  O   UNL     1     -12.332  11.095  63.943  1.00  0.00     0.034 OA 
HETATM   48  H   UNL     1     -12.860  11.491  63.261  1.00  0.00     0.000 HD 
BRANCH  46  49
HETATM   49  C   UNL     1     -10.909  13.089  63.793  1.00  0.00    -0.230 C  
HETATM   50  H   UNL     1      -9.369  13.097  62.590  1.00  0.00     0.000 HD 
HETATM   51  O   UNL     1      -9.827  12.475  63.143  1.00  0.00    -0.204 OA 
ENDBRANCH  46  49
ENDBRANCH  29  46
ENDBRANCH  26  29
ENDBRANCH  23  26
ENDBRANCH  21  23
ENDBRANCH  20  21
ENDBRANCH  19  20
ENDBRANCH  18  19
ENDBRANCH  16  18
ENDBRANCH  13  16
ENDBRANCH  10  13
ENDBRANCH   7  10
ENDBRANCH   4   7
ENDBRANCH   2   4
TORSDOF 17
ENDMDL
MODEL      357
REMARK 921   NORMALIZED FREE ENERGY PREDICTED BY IDOCK:   -3.24 KCAL/MOL
REMARK 922        TOTAL FREE ENERGY PREDICTED BY IDOCK:   -9.89 KCAL/MOL
REMARK 923 INTER-LIGAND FREE ENERGY PREDICTED BY IDOCK:   -8.69 KCAL/MOL
REMARK 924 INTRA-LIGAND FREE ENERGY PREDICTED BY IDOCK:   -1.20 KCAL/MOL
REMARK 927      BINDING AFFINITY PREDICTED BY RF-SCORE:    0.00 PKD
ROOT
HETATM    1  O   UNL     1      -8.978   7.875  74.475  1.00  0.00    -0.420 OA 
HETATM    2  C   UNL     1      -8.122   6.859  74.026  1.00  0.00    -0.121 C  
HETATM    3  H   UNL     1      -8.469   8.644  74.704  1.00  0.00     0.000 HD 
ENDROOT
BRANCH   2   4
HETATM    4  C   UNL     1      -8.947   5.615  73.655  1.00  0.00    -0.124 C  
HETATM    5  O   UNL     1     -10.093   5.557  74.467  1.00  0.00    -0.227 OA 
HETATM    6  H   UNL     1     -10.602   4.789  74.238  1.00  0.00     0.000 HD 
BRANCH   4   7
HETATM    7  C   UNL     1      -9.371   5.636  72.163  1.00  0.00    -0.146 C  
HETATM    8  H   UNL     1      -9.585   4.345  70.725  1.00  0.00     0.000 HD 
HETATM    9  O   UNL     1      -9.326   4.332  71.639  1.00  0.00    -0.126 OA 
BRANCH   7  10
HETATM   10  C   UNL     1     -10.802   6.207  71.975  1.00  0.00    -0.247 C  
HETATM   11  H   UNL     1     -12.256   5.947  70.730  1.00  0.00     0.000 HD 
HETATM   12  O   UNL     1     -11.379   5.598  70.845  1.00  0.00    -0.142 OA 
BRANCH  10  13
HETATM   13  C   UNL     1     -10.834   7.749  71.787  1.00  0.00    -0.236 C  
HETATM   14  H   UNL     1     -10.112   9.044  70.534  1.00  0.00     0.000 HD 
HETATM   15  O   UNL     1     -10.092   8.101  70.648  1.00  0.00    -0.192 OA 
BRANCH  13  16
HETATM   16  C   UNL     1     -12.229   8.304  71.623  1.00  0.00    -0.313 C  
HETATM   17  O   UNL     1     -12.891   8.581  72.611  1.00  0.00    -0.323 OA 
BRANCH  16  18
HETATM   18  O   UNL     1     -12.765   8.491  70.400  1.00  0.00     0.441 OA 
BRANCH  18  19
HETATM   19 CA   UNL     1     -11.307   8.533  68.468  1.00  0.00    -0.418 Ca 
BRANCH  19  20
HETATM   20  O   UNL     1      -9.849   8.576  66.538  1.00  0.00    -0.237 OA 
BRANCH  20  21
HETATM   21  C   UNL     1      -9.525   9.853  66.270  1.00  0.00    -0.193 C  
HETATM   22  O   UNL     1     -10.062  10.391  65.316  1.00  0.00    -0.293 OA 
BRANCH  21  23
HETATM   23  C   UNL     1      -8.407  10.562  67.002  1.00  0.00    -0.128 C  
HETATM   24  H   UNL     1      -6.695  10.070  67.744  1.00  0.00     0.000 HD 
HETATM   25  O   UNL     1      -7.397   9.625  67.285  1.00  0.00    -0.087 OA 
BRANCH  23  26
HETATM   26  C   UNL     1      -8.838  11.261  68.327  1.00  0.00    -0.158 C  
HETATM   27  H   UNL     1      -8.060  12.517  69.583  1.00  0.00     0.000 HD 
HETATM   28  O   UNL     1      -7.798  12.091  68.775  1.00  0.00    -0.113 OA 
BRANCH  26  29
HETATM   29  C   UNL     1     -10.184  12.065  68.312  1.00  0.00    -0.206 C  
BRANCH  29  30
HETATM   30  O   UNL     1      -9.845  13.419  68.580  1.00  0.00    -0.230 OA 
BRANCH  30  31
HETATM   31  C   UNL     1      -9.163  14.099  67.546  1.00  0.00    -0.192 C  
HETATM   32  O   UNL     1      -8.024  14.762  68.067  1.00  0.00    -0.121 OA 
HETATM   33  C   UNL     1      -7.320  15.437  67.036  1.00  0.00    -0.092 C  
HETATM   34  H   UNL     1     -11.914  15.137  66.085  1.00  0.00     0.000 HD 
HETATM   35  C   UNL     1      -8.184  16.593  66.469  1.00  0.00    -0.295 C  
HETATM   36  O   UNL     1      -8.511  17.509  67.486  1.00  0.00    -0.210 OA 
HETATM   37  C   UNL     1      -9.474  15.989  65.878  1.00  0.00    -0.316 C  
HETATM   38  O   UNL     1     -11.305  14.503  66.445  1.00  0.00    -0.335 OA 
HETATM   39  H   UNL     1      -9.040  18.217  67.139  1.00  0.00     0.000 HD 
HETATM   40  O   UNL     1     -10.365  16.987  65.445  1.00  0.00    -0.617 OA 
HETATM   41  C   UNL     1     -10.157  15.133  66.958  1.00  0.00    -0.244 C  
HETATM   42  H   UNL     1     -11.159  16.615  65.080  1.00  0.00     0.000 HD 
BRANCH  33  43
HETATM   43  C   UNL     1      -5.990  15.939  67.620  1.00  0.00    -0.152 C  
HETATM   44  O   UNL     1      -6.181  16.552  68.867  1.00  0.00    -0.136 OA 
HETATM   45  H   UNL     1      -5.359  16.861  69.228  1.00  0.00     0.000 HD 
ENDBRANCH  33  43
ENDBRANCH  30  31
ENDBRANCH  29  30
BRANCH  29  46
HETATM   46  C   UNL     1     -11.310  11.538  69.269  1.00  0.00    -0.288 C  
HETATM   47  O   UNL     1     -12.287  10.820  68.553  1.00  0.00    -0.825 OA 
HETATM   48  H   UNL     1     -12.968  10.500  69.132  1.00  0.00     0.000 HD 
BRANCH  46  49
HETATM   49  C   UNL     1     -11.933  12.606  70.198  1.00  0.00    -0.299 C  
HETATM   50  H   UNL     1     -12.643  14.421  70.046  1.00  0.00     0.000 HD 
HETATM   51  O   UNL     1     -12.261  13.764  69.475  1.00  0.00    -0.333 OA 
ENDBRANCH  46  49
ENDBRANCH  29  46
ENDBRANCH  26  29
ENDBRANCH  23  26
ENDBRANCH  21  23
ENDBRANCH  20  21
ENDBRANCH  19  20
ENDBRANCH  18  19
ENDBRANCH  16  18
ENDBRANCH  13  16
ENDBRANCH  10  13
ENDBRANCH   7  10
ENDBRANCH   4   7
ENDBRANCH   2   4
TORSDOF 17
ENDMDL
MODEL      358
REMARK 921   NORMALIZED FREE ENERGY PREDICTED BY IDOCK:   -3.21 KCAL/MOL
REMARK 922        TOTAL FREE ENERGY PREDICTED BY IDOCK:   -9.85 KCAL/MOL
REMARK 923 INTER-LIGAND FREE ENERGY PREDICTED BY IDOCK:   -9.29 KCAL/MOL
REMARK 924 INTRA-LIGAND FREE ENERGY PREDICTED BY IDOCK:   -0.56 KCAL/MOL
REMARK 927      BINDING AFFINITY PREDICTED BY RF-SCORE:    0.00 PKD
ROOT
HETATM    1  O   UNL     1     -13.347  13.437  65.648  1.00  0.00    -0.374 OA 
HETATM    2  C   UNL     1     -12.502  13.847  66.689  1.00  0.00    -0.270 C  
HETATM    3  H   UNL     1     -14.253  13.498  65.929  1.00  0.00     0.000 HD 
ENDROOT
BRANCH   2   4
HETATM    4  C   UNL     1     -11.036  13.748  66.234  1.00  0.00    -0.297 C  
HETATM    5  O   UNL     1     -10.716  12.402  65.987  1.00  0.00    -0.251 OA 
HETATM    6  H   UNL     1      -9.810  12.341  65.707  1.00  0.00     0.000 HD 
BRANCH   4   7
HETATM    7  C   UNL     1     -10.778  14.584  64.953  1.00  0.00    -0.429 C  
HETATM    8  H   UNL     1     -11.276  14.501  63.075  1.00  0.00     0.000 HD 
HETATM    9  O   UNL     1     -11.434  13.989  63.860  1.00  0.00    -0.182 OA 
BRANCH   7  10
HETATM   10  C   UNL     1     -11.275  16.046  65.105  1.00  0.00    -0.189 C  
HETATM   11  H   UNL     1     -11.924  17.430  63.923  1.00  0.00     0.000 HD 
HETATM   12  O   UNL     1     -11.619  16.535  63.830  1.00  0.00    -1.175 OA 
BRANCH  10  13
HETATM   13  C   UNL     1     -10.221  16.995  65.739  1.00  0.00    -0.245 C  
HETATM   14  H   UNL     1      -9.915  18.910  65.851  1.00  0.00     0.000 HD 
HETATM   15  O   UNL     1     -10.560  18.330  65.462  1.00  0.00    -0.632 OA 
BRANCH  13  16
HETATM   16  C   UNL     1     -10.105  16.847  67.238  1.00  0.00    -0.286 C  
HETATM   17  O   UNL     1     -11.023  17.212  67.955  1.00  0.00    -0.362 OA 
BRANCH  16  18
HETATM   18  O   UNL     1      -8.997  16.326  67.802  1.00  0.00    -0.191 OA 
BRANCH  18  19
HETATM   19 CA   UNL     1      -8.865  13.936  68.154  1.00  0.00    -0.139 Ca 
BRANCH  19  20
HETATM   20  O   UNL     1      -8.733  11.545  68.506  1.00  0.00    -0.154 OA 
BRANCH  20  21
HETATM   21  C   UNL     1      -9.862  11.135  69.111  1.00  0.00    -0.053 C  
HETATM   22  O   UNL     1     -10.829  11.877  69.077  1.00  0.00    -0.222 OA 
BRANCH  21  23
HETATM   23  C   UNL     1      -9.902   9.884  69.959  1.00  0.00    -0.243 C  
HETATM   24  H   UNL     1      -8.686   8.958  71.137  1.00  0.00     0.000 HD 
HETATM   25  O   UNL     1      -8.661   9.744  70.604  1.00  0.00    -0.184 OA 
BRANCH  23  26
HETATM   26  C   UNL     1     -10.216   8.575  69.172  1.00  0.00    -0.211 C  
HETATM   27  H   UNL     1     -11.035   8.102  67.479  1.00  0.00     0.000 HD 
HETATM   28  O   UNL     1     -10.844   8.900  67.958  1.00  0.00    -0.148 OA 
BRANCH  26  29
HETATM   29  C   UNL     1      -9.023   7.595  68.901  1.00  0.00    -0.137 C  
BRANCH  29  30
HETATM   30  O   UNL     1      -9.025   7.337  67.504  1.00  0.00    -0.122 OA 
BRANCH  30  31
HETATM   31  C   UNL     1      -9.103   5.977  67.129  1.00  0.00    -0.113 C  
HETATM   32  O   UNL     1      -7.939   5.602  66.411  1.00  0.00    -0.100 OA 
HETATM   33  C   UNL     1      -7.997   4.233  66.041  1.00  0.00    -0.098 C  
HETATM   34  H   UNL     1     -12.290   6.123  66.356  1.00  0.00     0.000 HD 
HETATM   35  C   UNL     1      -9.142   4.004  65.020  1.00  0.00    -0.140 C  
HETATM   36  O   UNL     1      -8.942   4.789  63.870  1.00  0.00    -0.200 OA 
HETATM   37  C   UNL     1     -10.475   4.395  65.692  1.00  0.00    -0.193 C  
HETATM   38  O   UNL     1     -11.523   6.212  66.909  1.00  0.00    -0.067 OA 
HETATM   39  H   UNL     1      -9.643   4.649  63.245  1.00  0.00     0.000 HD 
HETATM   40  O   UNL     1     -11.552   4.324  64.790  1.00  0.00    -0.963 OA 
HETATM   41  C   UNL     1     -10.354   5.832  66.226  1.00  0.00    -0.074 C  
HETATM   42  H   UNL     1     -12.372   4.564  65.204  1.00  0.00     0.000 HD 
BRANCH  33  43
HETATM   43  C   UNL     1      -6.626   3.837  65.472  1.00  0.00    -0.040 C  
HETATM   44  O   UNL     1      -6.572   2.467  65.177  1.00  0.00    -0.029 OA 
HETATM   45  H   UNL     1      -5.725   2.223  64.825  1.00  0.00     0.000 HD 
ENDBRANCH  33  43
ENDBRANCH  30  31
ENDBRANCH  29  30
BRANCH  29  46
HETATM   46  C   UNL     1      -9.017   6.271  69.744  1.00  0.00    -0.140 C  
HETATM   47  O   UNL     1      -7.908   5.467  69.415  1.00  0.00    -0.084 OA 
HETATM   48  H   UNL     1      -7.904   4.667  69.925  1.00  0.00     0.000 HD 
BRANCH  46  49
HETATM   49  C   UNL     1     -10.343   5.476  69.724  1.00  0.00    -0.296 C  
HETATM   50  H   UNL     1     -11.844   5.129  70.927  1.00  0.00     0.000 HD 
HETATM   51  O   UNL     1     -11.029   5.618  70.940  1.00  0.00    -0.259 OA 
ENDBRANCH  46  49
ENDBRANCH  29  46
ENDBRANCH  26  29
ENDBRANCH  23  26
ENDBRANCH  21  23
ENDBRANCH  20  21
ENDBRANCH  19  20
ENDBRANCH  18  19
ENDBRANCH  16  18
ENDBRANCH  13  16
ENDBRANCH  10  13
ENDBRANCH   7  10
ENDBRANCH   4   7
ENDBRANCH   2   4
TORSDOF 17
ENDMDL
MODEL      359
REMARK 921   NORMALIZED FREE ENERGY PREDICTED BY IDOCK:   -3.18 KCAL/MOL
REMARK 922        TOTAL FREE ENERGY PREDICTED BY IDOCK:   -9.79 KCAL/MOL
REMARK 923 INTER-LIGAND FREE ENERGY PREDICTED BY IDOCK:   -9.47 KCAL/MOL
REMARK 924 INTRA-LIGAND FREE ENERGY PREDICTED BY IDOCK:   -0.32 KCAL/MOL
REMARK 927      BINDING AFFINITY PREDICTED BY RF-SCORE:    0.00 PKD
ROOT
HETATM    1  O   UNL     1     -11.850  16.501  71.979  1.00  0.00    -0.640 OA 
HETATM    2  C   UNL     1     -11.178  15.530  71.224  1.00  0.00    -0.356 C  
HETATM    3  H   UNL     1     -11.501  16.517  72.863  1.00  0.00     0.000 HD 
ENDROOT
BRANCH   2   4
HETATM    4  C   UNL     1     -11.743  15.505  69.794  1.00  0.00    -0.349 C  
HETATM    5  O   UNL     1     -13.143  15.623  69.845  1.00  0.00    -0.617 OA 
HETATM    6  H   UNL     1     -13.492  15.607  68.961  1.00  0.00     0.000 HD 
BRANCH   4   7
HETATM    7  C   UNL     1     -11.158  16.653  68.929  1.00  0.00    -0.247 C  
HETATM    8  H   UNL     1     -10.209  18.322  69.234  1.00  0.00     0.000 HD 
HETATM    9  O   UNL     1     -10.567  17.619  69.763  1.00  0.00     0.088 OA 
BRANCH   7  10
HETATM   10  C   UNL     1     -10.096  16.137  67.922  1.00  0.00    -0.244 C  
HETATM   11  H   UNL     1      -9.247  16.809  66.323  1.00  0.00     0.000 HD 
HETATM   12  O   UNL     1      -9.897  17.125  66.940  1.00  0.00    -0.264 OA 
BRANCH  10  13
HETATM   13  C   UNL     1     -10.499  14.809  67.224  1.00  0.00    -0.264 C  
HETATM   14  H   UNL     1     -11.761  14.245  65.859  1.00  0.00     0.000 HD 
HETATM   15  O   UNL     1     -11.515  15.057  66.286  1.00  0.00    -0.314 OA 
BRANCH  13  16
HETATM   16  C   UNL     1      -9.354  14.139  66.502  1.00  0.00    -0.265 C  
HETATM   17  O   UNL     1      -8.264  14.052  67.045  1.00  0.00    -0.158 OA 
BRANCH  16  18
HETATM   18  O   UNL     1      -9.510  13.643  65.258  1.00  0.00     0.077 OA 
BRANCH  18  19
HETATM   19 CA   UNL     1      -8.824  11.367  64.802  1.00  0.00    -0.185 Ca 
BRANCH  19  20
HETATM   20  O   UNL     1      -8.139   9.092  64.346  1.00  0.00    -0.129 OA 
BRANCH  20  21
HETATM   21  C   UNL     1      -8.579   8.301  65.339  1.00  0.00    -0.151 C  
HETATM   22  O   UNL     1      -8.461   7.095  65.203  1.00  0.00    -0.111 OA 
BRANCH  21  23
HETATM   23  C   UNL     1      -9.355   8.853  66.514  1.00  0.00    -0.195 C  
HETATM   24  H   UNL     1     -10.164  10.543  66.980  1.00  0.00     0.000 HD 
HETATM   25  O   UNL     1      -9.676  10.196  66.242  1.00  0.00    -0.195 OA 
BRANCH  23  26
HETATM   26  C   UNL     1      -8.609   8.776  67.881  1.00  0.00    -0.130 C  
HETATM   27  H   UNL     1      -6.808   9.085  68.531  1.00  0.00     0.000 HD 
HETATM   28  O   UNL     1      -7.263   9.133  67.697  1.00  0.00    -0.082 OA 
BRANCH  26  29
HETATM   29  C   UNL     1      -9.211   9.591  69.076  1.00  0.00    -0.155 C  
BRANCH  29  30
HETATM   30  O   UNL     1      -8.815   8.917  70.262  1.00  0.00    -0.147 OA 
BRANCH  30  31
HETATM   31  C   UNL     1      -9.613   7.812  70.637  1.00  0.00    -0.166 C  
HETATM   32  O   UNL     1     -10.862   8.260  71.137  1.00  0.00    -0.224 OA 
HETATM   33  C   UNL     1     -11.680   7.159  71.503  1.00  0.00    -0.290 C  
HETATM   34  H   UNL     1      -7.112   6.147  71.959  1.00  0.00     0.000 HD 
HETATM   35  C   UNL     1     -11.056   6.409  72.708  1.00  0.00    -0.248 C  
HETATM   36  O   UNL     1     -10.917   7.273  73.810  1.00  0.00    -0.547 OA 
HETATM   37  C   UNL     1      -9.670   5.880  72.284  1.00  0.00    -0.160 C  
HETATM   38  O   UNL     1      -7.586   6.611  71.281  1.00  0.00    -0.090 OA 
HETATM   39  H   UNL     1     -10.534   6.813  74.548  1.00  0.00     0.000 HD 
HETATM   40  O   UNL     1      -8.989   5.283  73.361  1.00  0.00    -0.120 OA 
HETATM   41  C   UNL     1      -8.838   7.056  71.745  1.00  0.00    -0.126 C  
HETATM   42  H   UNL     1      -8.136   4.957  73.099  1.00  0.00     0.000 HD 
BRANCH  33  43
HETATM   43  C   UNL     1     -13.084   7.697  71.820  1.00  0.00    -0.323 C  
HETATM   44  O   UNL     1     -13.080   8.477  72.985  1.00  0.00    -0.729 OA 
HETATM   45  H   UNL     1     -13.948   8.810  73.181  1.00  0.00     0.000 HD 
ENDBRANCH  33  43
ENDBRANCH  30  31
ENDBRANCH  29  30
BRANCH  29  46
HETATM   46  C   UNL     1     -10.760   9.839  69.028  1.00  0.00    -0.217 C  
HETATM   47  O   UNL     1     -11.376   8.998  68.080  1.00  0.00    -0.322 OA 
HETATM   48  H   UNL     1     -12.313   9.147  68.051  1.00  0.00     0.000 HD 
BRANCH  46  49
HETATM   49  C   UNL     1     -11.182  11.317  68.860  1.00  0.00    -0.253 C  
HETATM   50  H   UNL     1     -12.243  12.388  67.615  1.00  0.00     0.000 HD 
HETATM   51  O   UNL     1     -11.984  11.480  67.719  1.00  0.00    -0.623 OA 
ENDBRANCH  46  49
ENDBRANCH  29  46
ENDBRANCH  26  29
ENDBRANCH  23  26
ENDBRANCH  21  23
ENDBRANCH  20  21
ENDBRANCH  19  20
ENDBRANCH  18  19
ENDBRANCH  16  18
ENDBRANCH  13  16
ENDBRANCH  10  13
ENDBRANCH   7  10
ENDBRANCH   4   7
ENDBRANCH   2   4
TORSDOF 17
ENDMDL
MODEL      360
REMARK 921   NORMALIZED FREE ENERGY PREDICTED BY IDOCK:   -3.18 KCAL/MOL
REMARK 922        TOTAL FREE ENERGY PREDICTED BY IDOCK:   -9.79 KCAL/MOL
REMARK 923 INTER-LIGAND FREE ENERGY PREDICTED BY IDOCK:   -8.69 KCAL/MOL
REMARK 924 INTRA-LIGAND FREE ENERGY PREDICTED BY IDOCK:   -1.10 KCAL/MOL
REMARK 927      BINDING AFFINITY PREDICTED BY RF-SCORE:    0.00 PKD
ROOT
HETATM    1  O   UNL     1     -11.410   6.556  67.498  1.00  0.00    -0.669 OA 
HETATM    2  C   UNL     1     -10.523   5.484  67.328  1.00  0.00    -0.236 C  
HETATM    3  H   UNL     1     -12.040   6.565  66.787  1.00  0.00     0.000 HD 
ENDROOT
BRANCH   2   4
HETATM    4  C   UNL     1      -9.503   5.468  68.479  1.00  0.00    -0.122 C  
HETATM    5  O   UNL     1      -9.163   6.790  68.817  1.00  0.00    -0.132 OA 
HETATM    6  H   UNL     1      -8.533   6.780  69.528  1.00  0.00     0.000 HD 
BRANCH   4   7
HETATM    7  C   UNL     1     -10.066   4.744  69.730  1.00  0.00    -0.219 C  
HETATM    8  H   UNL     1      -9.444   3.415  71.006  1.00  0.00     0.000 HD 
HETATM    9  O   UNL     1      -9.099   3.858  70.240  1.00  0.00    -0.095 OA 
BRANCH   7  10
HETATM   10  C   UNL     1     -10.473   5.743  70.845  1.00  0.00    -0.252 C  
HETATM   11  H   UNL     1     -11.136   7.556  70.921  1.00  0.00     0.000 HD 
HETATM   12  O   UNL     1     -10.886   6.944  70.238  1.00  0.00    -0.234 OA 
BRANCH  10  13
HETATM   13  C   UNL     1      -9.327   6.054  71.847  1.00  0.00    -0.150 C  
HETATM   14  H   UNL     1      -7.411   6.365  71.764  1.00  0.00     0.000 HD 
HETATM   15  O   UNL     1      -8.112   6.174  71.151  1.00  0.00    -0.117 OA 
BRANCH  13  16
HETATM   16  C   UNL     1      -9.542   7.329  72.628  1.00  0.00    -0.153 C  
HETATM   17  O   UNL     1     -10.180   7.301  73.669  1.00  0.00    -0.321 OA 
BRANCH  16  18
HETATM   18  O   UNL     1      -9.050   8.506  72.191  1.00  0.00    -0.217 OA 
BRANCH  18  19
HETATM   19 CA   UNL     1      -8.187   8.657  69.935  1.00  0.00    -0.095 Ca 
BRANCH  19  20
HETATM   20  O   UNL     1      -7.324   8.808  67.679  1.00  0.00    -0.083 OA 
BRANCH  20  21
HETATM   21  C   UNL     1      -8.008   9.758  67.018  1.00  0.00    -0.105 C  
HETATM   22  O   UNL     1      -7.432  10.802  66.764  1.00  0.00    -0.115 OA 
BRANCH  21  23
HETATM   23  C   UNL     1      -9.489   9.630  66.744  1.00  0.00    -0.161 C  
HETATM   24  H   UNL     1     -10.607   8.557  65.593  1.00  0.00     0.000 HD 
HETATM   25  O   UNL     1      -9.676   8.638  65.765  1.00  0.00    -0.167 OA 
BRANCH  23  26
HETATM   26  C   UNL     1     -10.180  10.945  66.273  1.00  0.00    -0.247 C  
HETATM   27  H   UNL     1     -10.844  11.677  64.605  1.00  0.00     0.000 HD 
HETATM   28  O   UNL     1     -10.423  10.875  64.891  1.00  0.00    -0.311 OA 
BRANCH  26  29
HETATM   29  C   UNL     1     -11.491  11.376  67.017  1.00  0.00    -0.156 C  
BRANCH  29  30
HETATM   30  O   UNL     1     -11.694  12.748  66.712  1.00  0.00    -0.356 OA 
BRANCH  30  31
HETATM   31  C   UNL     1     -10.660  13.626  67.109  1.00  0.00    -0.272 C  
HETATM   32  O   UNL     1     -11.007  14.271  68.323  1.00  0.00    -0.236 OA 
HETATM   33  C   UNL     1      -9.969  15.144  68.742  1.00  0.00    -0.229 C  
HETATM   34  H   UNL     1     -10.072  14.700  64.063  1.00  0.00     0.000 HD 
HETATM   35  C   UNL     1      -9.822  16.317  67.738  1.00  0.00    -0.237 C  
HETATM   36  O   UNL     1     -11.026  17.038  67.641  1.00  0.00    -0.290 OA 
HETATM   37  C   UNL     1      -9.452  15.730  66.360  1.00  0.00    -0.297 C  
HETATM   38  O   UNL     1     -10.170  14.059  64.756  1.00  0.00    -0.416 OA 
HETATM   39  H   UNL     1     -10.935  17.756  67.026  1.00  0.00     0.000 HD 
HETATM   40  O   UNL     1      -9.412  16.725  65.366  1.00  0.00    -0.408 OA 
HETATM   41  C   UNL     1     -10.501  14.673  65.978  1.00  0.00    -0.305 C  
HETATM   42  H   UNL     1      -9.184  16.364  64.518  1.00  0.00     0.000 HD 
BRANCH  33  43
HETATM   43  C   UNL     1     -10.306  15.633  70.160  1.00  0.00    -0.254 C  
HETATM   44  O   UNL     1     -11.147  14.729  70.824  1.00  0.00    -0.487 OA 
HETATM   45  H   UNL     1     -11.355  15.031  71.700  1.00  0.00     0.000 HD 
ENDBRANCH  33  43
ENDBRANCH  30  31
ENDBRANCH  29  30
BRANCH  29  46
HETATM   46  C   UNL     1     -11.526  11.103  68.562  1.00  0.00    -0.302 C  
HETATM   47  O   UNL     1     -12.574  11.815  69.177  1.00  0.00    -0.029 OA 
HETATM   48  H   UNL     1     -12.595  11.650  70.112  1.00  0.00     0.000 HD 
BRANCH  46  49
HETATM   49  C   UNL     1     -10.177  11.302  69.291  1.00  0.00    -0.031 C  
HETATM   50  H   UNL     1      -9.093  10.358  70.615  1.00  0.00     0.000 HD 
HETATM   51  O   UNL     1      -9.921  10.235  70.167  1.00  0.00    -0.185 OA 
ENDBRANCH  46  49
ENDBRANCH  29  46
ENDBRANCH  26  29
ENDBRANCH  23  26
ENDBRANCH  21  23
ENDBRANCH  20  21
ENDBRANCH  19  20
ENDBRANCH  18  19
ENDBRANCH  16  18
ENDBRANCH  13  16
ENDBRANCH  10  13
ENDBRANCH   7  10
ENDBRANCH   4   7
ENDBRANCH   2   4
TORSDOF 17
ENDMDL
MODEL      361
REMARK 921   NORMALIZED FREE ENERGY PREDICTED BY IDOCK:   -3.14 KCAL/MOL
REMARK 922        TOTAL FREE ENERGY PREDICTED BY IDOCK:   -9.71 KCAL/MOL
REMARK 923 INTER-LIGAND FREE ENERGY PREDICTED BY IDOCK:   -6.89 KCAL/MOL
REMARK 924 INTRA-LIGAND FREE ENERGY PREDICTED BY IDOCK:   -2.81 KCAL/MOL
REMARK 927      BINDING AFFINITY PREDICTED BY RF-SCORE:    0.00 PKD
ROOT
HETATM    1  O   UNL     1     -12.255  11.440  71.067  1.00  0.00    -0.346 OA 
HETATM    2  C   UNL     1     -12.156  10.298  70.260  1.00  0.00    -0.249 C  
HETATM    3  H   UNL     1     -13.052  11.398  71.582  1.00  0.00     0.000 HD 
ENDROOT
BRANCH   2   4
HETATM    4  C   UNL     1     -10.865  10.366  69.425  1.00  0.00    -0.248 C  
HETATM    5  O   UNL     1     -10.298   9.082  69.343  1.00  0.00    -0.202 OA 
HETATM    6  H   UNL     1      -9.501   9.124  68.827  1.00  0.00     0.000 HD 
BRANCH   4   7
HETATM    7  C   UNL     1     -11.138  10.903  67.995  1.00  0.00    -0.293 C  
HETATM    8  H   UNL     1     -12.569  11.848  67.079  1.00  0.00     0.000 HD 
HETATM    9  O   UNL     1     -12.402  11.519  67.955  1.00  0.00    -0.390 OA 
BRANCH   7  10
HETATM   10  C   UNL     1     -10.062  11.927  67.545  1.00  0.00    -0.193 C  
HETATM   11  H   UNL     1     -10.052  13.740  66.881  1.00  0.00     0.000 HD 
HETATM   12  O   UNL     1     -10.711  13.113  67.156  1.00  0.00    -0.253 OA 
BRANCH  10  13
HETATM   13  C   UNL     1      -9.185  11.424  66.366  1.00  0.00    -0.197 C  
HETATM   14  H   UNL     1      -7.291  11.314  65.948  1.00  0.00     0.000 HD 
HETATM   15  O   UNL     1      -7.828  11.622  66.669  1.00  0.00    -0.149 OA 
BRANCH  13  16
HETATM   16  C   UNL     1      -9.382   9.959  66.053  1.00  0.00    -0.188 C  
HETATM   17  O   UNL     1     -10.120   9.629  65.138  1.00  0.00    -0.193 OA 
BRANCH  16  18
HETATM   18  O   UNL     1      -8.765   9.003  66.776  1.00  0.00    -0.120 OA 
BRANCH  18  19
HETATM   19 CA   UNL     1      -7.699   9.608  68.863  1.00  0.00    -0.068 Ca 
BRANCH  19  20
HETATM   20  O   UNL     1      -6.634  10.213  70.950  1.00  0.00    -0.310 OA 
BRANCH  20  21
HETATM   21  C   UNL     1      -6.508   9.109  71.706  1.00  0.00     0.019 C  
HETATM   22  O   UNL     1      -5.960   9.220  72.791  1.00  0.00    -0.275 OA 
BRANCH  21  23
HETATM   23  C   UNL     1      -6.864   7.737  71.180  1.00  0.00    -0.049 C  
HETATM   24  H   UNL     1      -7.112   6.932  69.443  1.00  0.00     0.000 HD 
HETATM   25  O   UNL     1      -6.889   7.793  69.774  1.00  0.00    -0.045 OA 
BRANCH  23  26
HETATM   26  C   UNL     1      -8.226   7.178  71.690  1.00  0.00    -0.103 C  
HETATM   27  H   UNL     1     -10.099   7.657  71.540  1.00  0.00     0.000 HD 
HETATM   28  O   UNL     1      -9.269   7.999  71.229  1.00  0.00    -0.142 OA 
BRANCH  26  29
HETATM   29  C   UNL     1      -8.555   5.679  71.368  1.00  0.00    -0.132 C  
BRANCH  29  30
HETATM   30  O   UNL     1      -9.199   5.673  70.102  1.00  0.00    -0.138 OA 
BRANCH  30  31
HETATM   31  C   UNL     1      -8.602   4.859  69.112  1.00  0.00    -0.080 C  
HETATM   32  O   UNL     1      -8.668   5.499  67.849  1.00  0.00    -0.108 OA 
HETATM   33  C   UNL     1      -8.058   4.699  66.848  1.00  0.00    -0.103 C  
HETATM   34  H   UNL     1      -9.859   2.070  70.304  1.00  0.00     0.000 HD 
HETATM   35  C   UNL     1      -8.872   3.397  66.636  1.00  0.00    -0.137 C  
HETATM   36  O   UNL     1     -10.192   3.697  66.252  1.00  0.00    -0.364 OA 
HETATM   37  C   UNL     1      -8.882   2.611  67.964  1.00  0.00    -0.127 C  
HETATM   38  O   UNL     1      -9.368   2.882  70.325  1.00  0.00    -0.134 OA 
HETATM   39  H   UNL     1     -10.691   2.899  66.123  1.00  0.00     0.000 HD 
HETATM   40  O   UNL     1      -9.699   1.469  67.885  1.00  0.00    -0.381 OA 
HETATM   41  C   UNL     1      -9.404   3.534  69.078  1.00  0.00    -0.170 C  
HETATM   42  H   UNL     1      -9.705   0.985  68.703  1.00  0.00     0.000 HD 
BRANCH  33  43
HETATM   43  C   UNL     1      -7.962   5.538  65.564  1.00  0.00    -0.111 C  
HETATM   44  O   UNL     1      -9.066   6.393  65.431  1.00  0.00    -0.369 OA 
HETATM   45  H   UNL     1      -9.006   6.912  64.638  1.00  0.00     0.000 HD 
ENDBRANCH  33  43
ENDBRANCH  30  31
ENDBRANCH  29  30
BRANCH  29  46
HETATM   46  C   UNL     1      -9.385   4.909  72.455  1.00  0.00    -0.135 C  
HETATM   47  O   UNL     1     -10.669   5.469  72.601  1.00  0.00    -0.215 OA 
HETATM   48  H   UNL     1     -11.171   5.004  73.258  1.00  0.00     0.000 HD 
BRANCH  46  49
HETATM   49  C   UNL     1      -8.670   4.724  73.814  1.00  0.00    -0.106 C  
HETATM   50  H   UNL     1      -8.799   3.548  75.370  1.00  0.00     0.000 HD 
HETATM   51  O   UNL     1      -9.238   3.662  74.535  1.00  0.00    -0.091 OA 
ENDBRANCH  46  49
ENDBRANCH  29  46
ENDBRANCH  26  29
ENDBRANCH  23  26
ENDBRANCH  21  23
ENDBRANCH  20  21
ENDBRANCH  19  20
ENDBRANCH  18  19
ENDBRANCH  16  18
ENDBRANCH  13  16
ENDBRANCH  10  13
ENDBRANCH   7  10
ENDBRANCH   4   7
ENDBRANCH   2   4
TORSDOF 17
ENDMDL
MODEL      362
REMARK 921   NORMALIZED FREE ENERGY PREDICTED BY IDOCK:   -3.11 KCAL/MOL
REMARK 922        TOTAL FREE ENERGY PREDICTED BY IDOCK:   -9.64 KCAL/MOL
REMARK 923 INTER-LIGAND FREE ENERGY PREDICTED BY IDOCK:   -7.17 KCAL/MOL
REMARK 924 INTRA-LIGAND FREE ENERGY PREDICTED BY IDOCK:   -2.47 KCAL/MOL
REMARK 927      BINDING AFFINITY PREDICTED BY RF-SCORE:    0.00 PKD
ROOT
HETATM    1  O   UNL     1      -9.673  15.018  67.439  1.00  0.00    -0.214 OA 
HETATM    2  C   UNL     1     -10.711  15.862  67.858  1.00  0.00    -0.312 C  
HETATM    3  H   UNL     1      -8.899  15.534  67.247  1.00  0.00     0.000 HD 
ENDROOT
BRANCH   2   4
HETATM    4  C   UNL     1     -11.964  15.027  68.169  1.00  0.00    -0.165 C  
HETATM    5  O   UNL     1     -12.388  14.372  67.000  1.00  0.00    -0.579 OA 
HETATM    6  H   UNL     1     -13.162  13.856  67.192  1.00  0.00     0.000 HD 
BRANCH   4   7
HETATM    7  C   UNL     1     -11.689  13.977  69.278  1.00  0.00    -0.326 C  
HETATM    8  H   UNL     1     -10.323  13.653  70.624  1.00  0.00     0.000 HD 
HETATM    9  O   UNL     1     -10.492  14.296  69.945  1.00  0.00     0.109 OA 
BRANCH   7  10
HETATM   10  C   UNL     1     -12.842  13.911  70.314  1.00  0.00    -0.072 C  
HETATM   11  H   UNL     1     -13.778  15.169  71.443  1.00  0.00     0.000 HD 
HETATM   12  O   UNL     1     -13.072  15.209  70.808  1.00  0.00    -0.402 OA 
BRANCH  10  13
HETATM   13  C   UNL     1     -12.548  12.963  71.509  1.00  0.00    -0.167 C  
HETATM   14  H   UNL     1     -13.287  12.627  73.273  1.00  0.00     0.000 HD 
HETATM   15  O   UNL     1     -13.467  13.207  72.543  1.00  0.00    -0.569 OA 
BRANCH  13  16
HETATM   16  C   UNL     1     -12.632  11.499  71.148  1.00  0.00    -0.359 C  
HETATM   17  O   UNL     1     -13.407  10.771  71.749  1.00  0.00    -0.395 OA 
BRANCH  16  18
HETATM   18  O   UNL     1     -11.856  10.975  70.179  1.00  0.00    -0.294 OA 
BRANCH  18  19
HETATM   19 CA   UNL     1      -9.455  10.936  70.482  1.00  0.00    -0.273 Ca 
BRANCH  19  20
HETATM   20  O   UNL     1      -7.055  10.897  70.786  1.00  0.00     0.167 OA 
BRANCH  20  21
HETATM   21  C   UNL     1      -6.466  11.120  69.599  1.00  0.00    -0.128 C  
HETATM   22  O   UNL     1      -5.413  11.735  69.591  1.00  0.00    -0.062 OA 
BRANCH  21  23
HETATM   23  C   UNL     1      -7.151  10.784  68.294  1.00  0.00    -0.078 C  
HETATM   24  H   UNL     1      -8.928  10.971  67.563  1.00  0.00     0.000 HD 
HETATM   25  O   UNL     1      -8.497  11.182  68.383  1.00  0.00    -0.137 OA 
BRANCH  23  26
HETATM   26  C   UNL     1      -7.092   9.277  67.896  1.00  0.00    -0.078 C  
HETATM   27  H   UNL     1      -5.985   7.743  68.322  1.00  0.00     0.000 HD 
HETATM   28  O   UNL     1      -6.020   8.661  68.564  1.00  0.00    -0.044 OA 
BRANCH  26  29
HETATM   29  C   UNL     1      -8.395   8.429  68.098  1.00  0.00    -0.128 C  
BRANCH  29  30
HETATM   30  O   UNL     1      -8.220   7.706  69.308  1.00  0.00    -0.128 OA 
BRANCH  30  31
HETATM   31  C   UNL     1      -8.873   8.238  70.443  1.00  0.00    -0.141 C  
HETATM   32  O   UNL     1      -8.181   7.865  71.623  1.00  0.00    -0.103 OA 
HETATM   33  C   UNL     1      -8.818   8.407  72.770  1.00  0.00    -0.206 C  
HETATM   34  H   UNL     1     -11.887   7.622  69.297  1.00  0.00     0.000 HD 
HETATM   35  C   UNL     1     -10.218   7.766  72.954  1.00  0.00    -0.315 C  
HETATM   36  O   UNL     1     -10.108   6.371  73.098  1.00  0.00    -0.172 OA 
HETATM   37  C   UNL     1     -11.069   8.097  71.710  1.00  0.00    -0.270 C  
HETATM   38  O   UNL     1     -11.010   7.985  69.289  1.00  0.00    -0.116 OA 
HETATM   39  H   UNL     1     -10.966   5.980  73.210  1.00  0.00     0.000 HD 
HETATM   40  O   UNL     1     -12.319   7.454  71.751  1.00  0.00    -0.308 OA 
HETATM   41  C   UNL     1     -10.304   7.643  70.456  1.00  0.00    -0.211 C  
HETATM   42  H   UNL     1     -12.843   7.658  70.985  1.00  0.00     0.000 HD 
BRANCH  33  43
HETATM   43  C   UNL     1      -7.903   8.159  73.980  1.00  0.00    -0.222 C  
HETATM   44  O   UNL     1      -6.759   7.436  73.615  1.00  0.00    -0.071 OA 
HETATM   45  H   UNL     1      -6.194   7.284  74.362  1.00  0.00     0.000 HD 
ENDBRANCH  33  43
ENDBRANCH  30  31
ENDBRANCH  29  30
BRANCH  29  46
HETATM   46  C   UNL     1      -8.796   7.492  66.904  1.00  0.00    -0.135 C  
HETATM   47  O   UNL     1      -9.501   6.363  67.363  1.00  0.00    -0.115 OA 
HETATM   48  H   UNL     1      -9.744   5.796  66.641  1.00  0.00     0.000 HD 
BRANCH  46  49
HETATM   49  C   UNL     1      -7.637   7.111  65.954  1.00  0.00    -0.093 C  
HETATM   50  H   UNL     1      -6.273   5.718  65.818  1.00  0.00     0.000 HD 
HETATM   51  O   UNL     1      -6.985   5.952  66.402  1.00  0.00    -0.057 OA 
ENDBRANCH  46  49
ENDBRANCH  29  46
ENDBRANCH  26  29
ENDBRANCH  23  26
ENDBRANCH  21  23
ENDBRANCH  20  21
ENDBRANCH  19  20
ENDBRANCH  18  19
ENDBRANCH  16  18
ENDBRANCH  13  16
ENDBRANCH  10  13
ENDBRANCH   7  10
ENDBRANCH   4   7
ENDBRANCH   2   4
TORSDOF 17
ENDMDL
MODEL      363
REMARK 921   NORMALIZED FREE ENERGY PREDICTED BY IDOCK:   -3.09 KCAL/MOL
REMARK 922        TOTAL FREE ENERGY PREDICTED BY IDOCK:   -9.60 KCAL/MOL
REMARK 923 INTER-LIGAND FREE ENERGY PREDICTED BY IDOCK:   -5.93 KCAL/MOL
REMARK 924 INTRA-LIGAND FREE ENERGY PREDICTED BY IDOCK:   -3.67 KCAL/MOL
REMARK 927      BINDING AFFINITY PREDICTED BY RF-SCORE:    0.00 PKD
ROOT
HETATM    1  O   UNL     1      -5.928  10.533  68.390  1.00  0.00    -0.044 OA 
HETATM    2  C   UNL     1      -6.624   9.316  68.403  1.00  0.00    -0.058 C  
HETATM    3  H   UNL     1      -5.017  10.382  68.615  1.00  0.00     0.000 HD 
ENDROOT
BRANCH   2   4
HETATM    4  C   UNL     1      -8.098   9.560  68.039  1.00  0.00    -0.102 C  
HETATM    5  O   UNL     1      -8.759  10.138  69.137  1.00  0.00    -0.148 OA 
HETATM    6  H   UNL     1      -9.669  10.289  68.912  1.00  0.00     0.000 HD 
BRANCH   4   7
HETATM    7  C   UNL     1      -8.234  10.491  66.805  1.00  0.00    -0.126 C  
HETATM    8  H   UNL     1      -7.255  10.825  65.159  1.00  0.00     0.000 HD 
HETATM    9  O   UNL     1      -7.172  10.254  65.914  1.00  0.00    -0.118 OA 
BRANCH   7  10
HETATM   10  C   UNL     1      -9.577  10.273  66.059  1.00  0.00    -0.206 C  
HETATM   11  H   UNL     1     -10.189  10.365  64.229  1.00  0.00     0.000 HD 
HETATM   12  O   UNL     1      -9.366  10.498  64.686  1.00  0.00    -0.205 OA 
BRANCH  10  13
HETATM   13  C   UNL     1     -10.718  11.206  66.552  1.00  0.00    -0.260 C  
HETATM   14  H   UNL     1     -12.017  11.224  67.996  1.00  0.00     0.000 HD 
HETATM   15  O   UNL     1     -11.320  10.653  67.694  1.00  0.00    -0.395 OA 
BRANCH  13  16
HETATM   16  C   UNL     1     -10.245  12.597  66.904  1.00  0.00    -0.234 C  
HETATM   17  O   UNL     1     -10.015  13.401  66.014  1.00  0.00    -0.291 OA 
BRANCH  16  18
HETATM   18  O   UNL     1     -10.061  12.966  68.187  1.00  0.00    -0.227 OA 
BRANCH  18  19
HETATM   19 CA   UNL     1     -10.376  11.329  69.942  1.00  0.00    -0.337 Ca 
BRANCH  19  20
HETATM   20  O   UNL     1     -10.690   9.692  71.696  1.00  0.00    -0.248 OA 
BRANCH  20  21
HETATM   21  C   UNL     1     -10.961   8.502  71.132  1.00  0.00    -0.253 C  
HETATM   22  O   UNL     1     -12.033   8.369  70.566  1.00  0.00    -0.117 OA 
BRANCH  21  23
HETATM   23  C   UNL     1     -10.062   7.302  71.331  1.00  0.00    -0.187 C  
HETATM   24  H   UNL     1      -8.511   6.561  70.453  1.00  0.00     0.000 HD 
HETATM   25  O   UNL     1      -9.076   7.314  70.328  1.00  0.00    -0.151 OA 
BRANCH  23  26
HETATM   26  C   UNL     1     -10.797   5.927  71.305  1.00  0.00    -0.270 C  
HETATM   27  H   UNL     1     -11.617   4.785  69.970  1.00  0.00     0.000 HD 
HETATM   28  O   UNL     1     -11.169   5.623  69.985  1.00  0.00    -0.267 OA 
BRANCH  26  29
HETATM   29  C   UNL     1     -10.052   4.701  71.938  1.00  0.00    -0.198 C  
BRANCH  29  30
HETATM   30  O   UNL     1      -9.899   3.745  70.899  1.00  0.00    -0.185 OA 
BRANCH  30  31
HETATM   31  C   UNL     1      -8.577   3.538  70.443  1.00  0.00    -0.062 C  
HETATM   32  O   UNL     1      -7.666   4.282  71.235  1.00  0.00    -0.067 OA 
HETATM   33  C   UNL     1      -6.332   4.071  70.797  1.00  0.00    -0.022 C  
HETATM   34  H   UNL     1      -9.403   3.616  67.267  1.00  0.00     0.000 HD 
HETATM   35  C   UNL     1      -6.139   4.657  69.375  1.00  0.00    -0.026 C  
HETATM   36  O   UNL     1      -6.419   6.036  69.367  1.00  0.00    -0.039 OA 
HETATM   37  C   UNL     1      -7.099   3.925  68.414  1.00  0.00    -0.051 C  
HETATM   38  O   UNL     1      -9.433   3.316  68.167  1.00  0.00    -0.192 OA 
HETATM   39  H   UNL     1      -6.300   6.395  68.495  1.00  0.00     0.000 HD 
HETATM   40  O   UNL     1      -7.064   4.480  67.122  1.00  0.00    -0.065 OA 
HETATM   41  C   UNL     1      -8.528   4.029  68.974  1.00  0.00    -0.077 C  
HETATM   42  H   UNL     1      -7.655   4.029  66.531  1.00  0.00     0.000 HD 
BRANCH  33  43
HETATM   43  C   UNL     1      -5.389   4.717  71.824  1.00  0.00    -0.004 C  
HETATM   44  O   UNL     1      -5.727   6.059  72.052  1.00  0.00    -0.029 OA 
HETATM   45  H   UNL     1      -5.144   6.459  72.686  1.00  0.00     0.000 HD 
ENDBRANCH  33  43
ENDBRANCH  30  31
ENDBRANCH  29  30
BRANCH  29  46
HETATM   46  C   UNL     1     -10.715   4.081  73.218  1.00  0.00    -0.201 C  
HETATM   47  O   UNL     1     -10.624   4.963  74.312  1.00  0.00    -0.276 OA 
HETATM   48  H   UNL     1     -11.025   4.588  75.086  1.00  0.00     0.000 HD 
BRANCH  46  49
HETATM   49  C   UNL     1     -10.238   2.654  73.575  1.00  0.00    -0.117 C  
HETATM   50  H   UNL     1      -8.650   1.805  74.336  1.00  0.00     0.000 HD 
HETATM   51  O   UNL     1      -8.943   2.682  74.117  1.00  0.00    -0.074 OA 
ENDBRANCH  46  49
ENDBRANCH  29  46
ENDBRANCH  26  29
ENDBRANCH  23  26
ENDBRANCH  21  23
ENDBRANCH  20  21
ENDBRANCH  19  20
ENDBRANCH  18  19
ENDBRANCH  16  18
ENDBRANCH  13  16
ENDBRANCH  10  13
ENDBRANCH   7  10
ENDBRANCH   4   7
ENDBRANCH   2   4
TORSDOF 17
ENDMDL
MODEL      364
REMARK 921   NORMALIZED FREE ENERGY PREDICTED BY IDOCK:   -3.08 KCAL/MOL
REMARK 922        TOTAL FREE ENERGY PREDICTED BY IDOCK:   -9.58 KCAL/MOL
REMARK 923 INTER-LIGAND FREE ENERGY PREDICTED BY IDOCK:   -9.50 KCAL/MOL
REMARK 924 INTRA-LIGAND FREE ENERGY PREDICTED BY IDOCK:   -0.08 KCAL/MOL
REMARK 927      BINDING AFFINITY PREDICTED BY RF-SCORE:    0.00 PKD
ROOT
HETATM    1  O   UNL     1      -8.581  17.820  66.734  1.00  0.00    -0.236 OA 
HETATM    2  C   UNL     1      -8.082  16.629  66.188  1.00  0.00    -0.238 C  
HETATM    3  H   UNL     1      -7.935  18.510  66.639  1.00  0.00     0.000 HD 
ENDROOT
BRANCH   2   4
HETATM    4  C   UNL     1      -9.128  15.511  66.340  1.00  0.00    -0.316 C  
HETATM    5  O   UNL     1      -8.999  14.925  67.612  1.00  0.00    -0.172 OA 
HETATM    6  H   UNL     1      -9.645  14.235  67.706  1.00  0.00     0.000 HD 
BRANCH   4   7
HETATM    7  C   UNL     1     -10.571  16.053  66.165  1.00  0.00    -0.297 C  
HETATM    8  H   UNL     1     -11.607  16.918  64.765  1.00  0.00     0.000 HD 
HETATM    9  O   UNL     1     -10.723  16.586  64.872  1.00  0.00    -0.702 OA 
BRANCH   7  10
HETATM   10  C   UNL     1     -11.637  14.947  66.384  1.00  0.00    -0.238 C  
HETATM   11  H   UNL     1     -12.317  13.942  67.887  1.00  0.00     0.000 HD 
HETATM   12  O   UNL     1     -11.665  14.619  67.753  1.00  0.00    -0.347 OA 
BRANCH  10  13
HETATM   13  C   UNL     1     -11.366  13.656  65.564  1.00  0.00    -0.298 C  
HETATM   14  H   UNL     1     -10.090  13.063  64.224  1.00  0.00     0.000 HD 
HETATM   15  O   UNL     1     -10.256  13.853  64.726  1.00  0.00    -0.412 OA 
BRANCH  13  16
HETATM   16  C   UNL     1     -11.088  12.445  66.424  1.00  0.00    -0.301 C  
HETATM   17  O   UNL     1     -12.019  11.778  66.848  1.00  0.00    -0.605 OA 
BRANCH  16  18
HETATM   18  O   UNL     1      -9.827  12.092  66.743  1.00  0.00    -0.199 OA 
BRANCH  18  19
HETATM   19 CA   UNL     1      -9.082   9.837  66.277  1.00  0.00    -0.134 Ca 
BRANCH  19  20
HETATM   20  O   UNL     1      -8.337   7.582  65.810  1.00  0.00    -0.129 OA 
BRANCH  20  21
HETATM   21  C   UNL     1      -9.178   6.718  66.404  1.00  0.00    -0.153 C  
HETATM   22  O   UNL     1     -10.320   7.088  66.616  1.00  0.00    -0.218 OA 
BRANCH  21  23
HETATM   23  C   UNL     1      -8.701   5.394  66.956  1.00  0.00    -0.107 C  
HETATM   24  H   UNL     1      -8.056   3.728  66.224  1.00  0.00     0.000 HD 
HETATM   25  O   UNL     1      -8.355   4.560  65.877  1.00  0.00    -0.112 OA 
BRANCH  23  26
HETATM   26  C   UNL     1      -9.735   4.655  67.858  1.00  0.00    -0.143 C  
HETATM   27  H   UNL     1     -10.308   2.825  68.150  1.00  0.00     0.000 HD 
HETATM   28  O   UNL     1      -9.678   3.275  67.599  1.00  0.00    -0.153 OA 
BRANCH  26  29
HETATM   29  C   UNL     1      -9.649   4.904  69.404  1.00  0.00    -0.169 C  
BRANCH  29  30
HETATM   30  O   UNL     1      -9.003   6.157  69.574  1.00  0.00    -0.131 OA 
BRANCH  30  31
HETATM   31  C   UNL     1      -9.623   7.052  70.476  1.00  0.00    -0.169 C  
HETATM   32  O   UNL     1      -8.942   7.039  71.719  1.00  0.00    -0.134 OA 
HETATM   33  C   UNL     1      -9.545   7.945  72.631  1.00  0.00    -0.227 C  
HETATM   34  H   UNL     1     -12.670   6.249  69.557  1.00  0.00     0.000 HD 
HETATM   35  C   UNL     1     -10.973   7.464  72.995  1.00  0.00    -0.374 C  
HETATM   36  O   UNL     1     -10.929   6.182  73.573  1.00  0.00    -0.414 OA 
HETATM   37  C   UNL     1     -11.815   7.424  71.703  1.00  0.00    -0.291 C  
HETATM   38  O   UNL     1     -11.777   6.550  69.441  1.00  0.00    -0.295 OA 
HETATM   39  H   UNL     1     -11.804   5.887  73.796  1.00  0.00     0.000 HD 
HETATM   40  O   UNL     1     -13.094   6.888  71.933  1.00  0.00    -0.490 OA 
HETATM   41  C   UNL     1     -11.080   6.561  70.664  1.00  0.00    -0.309 C  
HETATM   42  H   UNL     1     -13.613   6.864  71.137  1.00  0.00     0.000 HD 
BRANCH  33  43
HETATM   43  C   UNL     1      -8.635   8.050  73.865  1.00  0.00    -0.262 C  
HETATM   44  O   UNL     1      -7.435   8.709  73.560  1.00  0.00    -0.359 OA 
HETATM   45  H   UNL     1      -6.874   8.774  74.323  1.00  0.00     0.000 HD 
ENDBRANCH  33  43
ENDBRANCH  30  31
ENDBRANCH  29  30
BRANCH  29  46
HETATM   46  C   UNL     1      -8.965   3.769  70.245  1.00  0.00    -0.104 C  
HETATM   47  O   UNL     1      -9.712   3.480  71.404  1.00  0.00    -0.160 OA 
HETATM   48  H   UNL     1      -9.298   2.794  71.913  1.00  0.00     0.000 HD 
BRANCH  46  49
HETATM   49  C   UNL     1      -7.468   3.997  70.556  1.00  0.00    -0.045 C  
HETATM   50  H   UNL     1      -6.340   4.275  72.128  1.00  0.00     0.000 HD 
HETATM   51  O   UNL     1      -7.261   4.135  71.937  1.00  0.00    -0.054 OA 
ENDBRANCH  46  49
ENDBRANCH  29  46
ENDBRANCH  26  29
ENDBRANCH  23  26
ENDBRANCH  21  23
ENDBRANCH  20  21
ENDBRANCH  19  20
ENDBRANCH  18  19
ENDBRANCH  16  18
ENDBRANCH  13  16
ENDBRANCH  10  13
ENDBRANCH   7  10
ENDBRANCH   4   7
ENDBRANCH   2   4
TORSDOF 17
ENDMDL
MODEL      365
REMARK 921   NORMALIZED FREE ENERGY PREDICTED BY IDOCK:   -3.07 KCAL/MOL
REMARK 922        TOTAL FREE ENERGY PREDICTED BY IDOCK:   -9.56 KCAL/MOL
REMARK 923 INTER-LIGAND FREE ENERGY PREDICTED BY IDOCK:   -7.08 KCAL/MOL
REMARK 924 INTRA-LIGAND FREE ENERGY PREDICTED BY IDOCK:   -2.48 KCAL/MOL
REMARK 927      BINDING AFFINITY PREDICTED BY RF-SCORE:    0.00 PKD
ROOT
HETATM    1  O   UNL     1      -9.084  15.788  66.667  1.00  0.00    -0.222 OA 
HETATM    2  C   UNL     1      -9.678  16.822  65.929  1.00  0.00    -0.217 C  
HETATM    3  H   UNL     1      -8.219  16.057  66.954  1.00  0.00     0.000 HD 
ENDROOT
BRANCH   2   4
HETATM    4  C   UNL     1     -11.078  16.388  65.464  1.00  0.00     0.007 C  
HETATM    5  O   UNL     1     -11.251  16.745  64.116  1.00  0.00    -1.415 OA 
HETATM    6  H   UNL     1     -12.116  16.477  63.828  1.00  0.00     0.000 HD 
BRANCH   4   7
HETATM    7  C   UNL     1     -11.283  14.858  65.624  1.00  0.00    -0.347 C  
HETATM    8  H   UNL     1     -11.922  13.643  67.001  1.00  0.00     0.000 HD 
HETATM    9  O   UNL     1     -11.797  14.580  66.903  1.00  0.00    -0.392 OA 
BRANCH   7  10
HETATM   10  C   UNL     1     -12.252  14.288  64.555  1.00  0.00    -0.455 C  
HETATM   11  H   UNL     1     -13.943  13.354  64.559  1.00  0.00     0.000 HD 
HETATM   12  O   UNL     1     -13.349  13.703  65.214  1.00  0.00    -0.669 OA 
BRANCH  10  13
HETATM   13  C   UNL     1     -11.597  13.225  63.629  1.00  0.00    -0.325 C  
HETATM   14  H   UNL     1      -9.816  12.517  63.315  1.00  0.00     0.000 HD 
HETATM   15  O   UNL     1     -10.217  13.167  63.881  1.00  0.00    -0.365 OA 
BRANCH  13  16
HETATM   16  C   UNL     1     -12.163  11.837  63.815  1.00  0.00    -0.343 C  
HETATM   17  O   UNL     1     -13.237  11.549  63.312  1.00  0.00    -0.348 OA 
BRANCH  16  18
HETATM   18  O   UNL     1     -11.506  10.909  64.539  1.00  0.00     0.229 OA 
BRANCH  18  19
HETATM   19 CA   UNL     1      -9.358  11.469  65.503  1.00  0.00    -0.192 Ca 
BRANCH  19  20
HETATM   20  O   UNL     1      -7.210  12.028  66.468  1.00  0.00     0.061 OA 
BRANCH  20  21
HETATM   21  C   UNL     1      -6.368  10.998  66.272  1.00  0.00    -0.119 C  
HETATM   22  O   UNL     1      -5.272  11.049  66.804  1.00  0.00    -0.056 OA 
BRANCH  21  23
HETATM   23  C   UNL     1      -6.678   9.890  65.291  1.00  0.00    -0.106 C  
HETATM   24  H   UNL     1      -7.643   9.732  63.627  1.00  0.00     0.000 HD 
HETATM   25  O   UNL     1      -7.448  10.427  64.243  1.00  0.00    -0.108 OA 
BRANCH  23  26
HETATM   26  C   UNL     1      -7.432   8.671  65.903  1.00  0.00    -0.085 C  
HETATM   27  H   UNL     1      -7.584   6.772  65.540  1.00  0.00     0.000 HD 
HETATM   28  O   UNL     1      -7.125   7.515  65.166  1.00  0.00    -0.060 OA 
BRANCH  26  29
HETATM   29  C   UNL     1      -7.226   8.391  67.432  1.00  0.00    -0.088 C  
BRANCH  29  30
HETATM   30  O   UNL     1      -7.025   6.991  67.559  1.00  0.00    -0.074 OA 
BRANCH  30  31
HETATM   31  C   UNL     1      -7.864   6.330  68.485  1.00  0.00    -0.105 C  
HETATM   32  O   UNL     1      -7.103   5.857  69.583  1.00  0.00    -0.064 OA 
HETATM   33  C   UNL     1      -7.937   5.205  70.528  1.00  0.00    -0.090 C  
HETATM   34  H   UNL     1      -9.656   4.848  66.167  1.00  0.00     0.000 HD 
HETATM   35  C   UNL     1      -8.529   3.910  69.913  1.00  0.00    -0.060 C  
HETATM   36  O   UNL     1      -7.499   3.036  69.519  1.00  0.00    -0.044 OA 
HETATM   37  C   UNL     1      -9.378   4.301  68.686  1.00  0.00    -0.152 C  
HETATM   38  O   UNL     1      -9.261   5.578  66.628  1.00  0.00    -0.127 OA 
HETATM   39  H   UNL     1      -7.862   2.243  69.142  1.00  0.00     0.000 HD 
HETATM   40  O   UNL     1      -9.858   3.168  68.004  1.00  0.00    -0.144 OA 
HETATM   41  C   UNL     1      -8.509   5.139  67.733  1.00  0.00    -0.104 C  
HETATM   42  H   UNL     1     -10.381   3.410  67.249  1.00  0.00     0.000 HD 
BRANCH  33  43
HETATM   43  C   UNL     1      -7.098   4.919  71.783  1.00  0.00    -0.062 C  
HETATM   44  O   UNL     1      -6.508   3.649  71.724  1.00  0.00    -0.014 OA 
HETATM   45  H   UNL     1      -5.989   3.473  72.499  1.00  0.00     0.000 HD 
ENDBRANCH  33  43
ENDBRANCH  30  31
ENDBRANCH  29  30
BRANCH  29  46
HETATM   46  C   UNL     1      -8.358   8.914  68.385  1.00  0.00    -0.125 C  
HETATM   47  O   UNL     1      -9.403   9.506  67.649  1.00  0.00    -0.124 OA 
HETATM   48  H   UNL     1     -10.088   9.822  68.225  1.00  0.00     0.000 HD 
BRANCH  46  49
HETATM   49  C   UNL     1      -7.873   9.816  69.543  1.00  0.00    -0.128 C  
HETATM   50  H   UNL     1      -6.710   9.666  71.106  1.00  0.00     0.000 HD 
HETATM   51  O   UNL     1      -7.007   9.112  70.394  1.00  0.00    -0.052 OA 
ENDBRANCH  46  49
ENDBRANCH  29  46
ENDBRANCH  26  29
ENDBRANCH  23  26
ENDBRANCH  21  23
ENDBRANCH  20  21
ENDBRANCH  19  20
ENDBRANCH  18  19
ENDBRANCH  16  18
ENDBRANCH  13  16
ENDBRANCH  10  13
ENDBRANCH   7  10
ENDBRANCH   4   7
ENDBRANCH   2   4
TORSDOF 17
ENDMDL
MODEL      366
REMARK 921   NORMALIZED FREE ENERGY PREDICTED BY IDOCK:   -3.06 KCAL/MOL
REMARK 922        TOTAL FREE ENERGY PREDICTED BY IDOCK:   -9.55 KCAL/MOL
REMARK 923 INTER-LIGAND FREE ENERGY PREDICTED BY IDOCK:   -6.94 KCAL/MOL
REMARK 924 INTRA-LIGAND FREE ENERGY PREDICTED BY IDOCK:   -2.61 KCAL/MOL
REMARK 927      BINDING AFFINITY PREDICTED BY RF-SCORE:    0.00 PKD
ROOT
HETATM    1  O   UNL     1     -11.192   4.052  64.354  1.00  0.00    -0.708 OA 
HETATM    2  C   UNL     1     -10.428   3.775  65.496  1.00  0.00     0.310 C  
HETATM    3  H   UNL     1     -11.631   3.261  64.063  1.00  0.00     0.000 HD 
ENDROOT
BRANCH   2   4
HETATM    4  C   UNL     1      -9.718   5.055  65.967  1.00  0.00    -0.180 C  
HETATM    5  O   UNL     1     -10.030   5.291  67.317  1.00  0.00    -0.149 OA 
HETATM    6  H   UNL     1      -9.590   6.081  67.607  1.00  0.00     0.000 HD 
BRANCH   4   7
HETATM    7  C   UNL     1      -8.179   4.946  65.803  1.00  0.00    -0.113 C  
HETATM    8  H   UNL     1      -6.836   3.541  65.873  1.00  0.00     0.000 HD 
HETATM    9  O   UNL     1      -7.778   3.608  65.973  1.00  0.00    -0.086 OA 
BRANCH   7  10
HETATM   10  C   UNL     1      -7.706   5.441  64.410  1.00  0.00    -0.096 C  
HETATM   11  H   UNL     1      -6.983   4.633  62.812  1.00  0.00     0.000 HD 
HETATM   12  O   UNL     1      -7.272   4.329  63.665  1.00  0.00    -0.048 OA 
BRANCH  10  13
HETATM   13  C   UNL     1      -6.553   6.480  64.482  1.00  0.00    -0.038 C  
HETATM   14  H   UNL     1      -4.958   6.907  63.459  1.00  0.00     0.000 HD 
HETATM   15  O   UNL     1      -5.663   6.271  63.416  1.00  0.00    -0.021 OA 
BRANCH  13  16
HETATM   16  C   UNL     1      -7.030   7.912  64.415  1.00  0.00    -0.068 C  
HETATM   17  O   UNL     1      -6.218   8.816  64.297  1.00  0.00    -0.070 OA 
BRANCH  16  18
HETATM   18  O   UNL     1      -8.342   8.213  64.494  1.00  0.00    -0.140 OA 
BRANCH  18  19
HETATM   19 CA   UNL     1      -9.505   7.874  66.589  1.00  0.00    -0.138 Ca 
BRANCH  19  20
HETATM   20  O   UNL     1     -10.668   7.533  68.683  1.00  0.00    -0.171 OA 
BRANCH  20  21
HETATM   21  C   UNL     1      -9.987   8.156  69.661  1.00  0.00    -0.193 C  
HETATM   22  O   UNL     1     -10.168   7.784  70.808  1.00  0.00    -0.196 OA 
BRANCH  21  23
HETATM   23  C   UNL     1      -9.157   9.391  69.393  1.00  0.00    -0.161 C  
HETATM   24  H   UNL     1      -8.102  10.618  70.445  1.00  0.00     0.000 HD 
HETATM   25  O   UNL     1      -8.624   9.842  70.614  1.00  0.00    -0.130 OA 
BRANCH  23  26
HETATM   26  C   UNL     1      -9.931  10.560  68.712  1.00  0.00    -0.192 C  
HETATM   27  H   UNL     1     -11.389  11.752  69.175  1.00  0.00     0.000 HD 
HETATM   28  O   UNL     1     -10.917  11.039  69.590  1.00  0.00    -0.251 OA 
BRANCH  26  29
HETATM   29  C   UNL     1      -9.085  11.762  68.166  1.00  0.00    -0.185 C  
BRANCH  29  30
HETATM   30  O   UNL     1      -9.996  12.628  67.507  1.00  0.00    -0.201 OA 
BRANCH  30  31
HETATM   31  C   UNL     1      -9.435  13.793  66.935  1.00  0.00    -0.262 C  
HETATM   32  O   UNL     1      -9.182  14.757  67.943  1.00  0.00    -0.185 OA 
HETATM   33  C   UNL     1      -8.603  15.927  67.385  1.00  0.00    -0.172 C  
HETATM   34  H   UNL     1     -11.392  13.735  64.300  1.00  0.00     0.000 HD 
HETATM   35  C   UNL     1      -9.623  16.634  66.455  1.00  0.00    -0.285 C  
HETATM   36  O   UNL     1     -10.783  16.984  67.170  1.00  0.00    -0.282 OA 
HETATM   37  C   UNL     1      -9.989  15.665  65.311  1.00  0.00    -0.194 C  
HETATM   38  O   UNL     1     -10.756  13.398  64.919  1.00  0.00    -0.327 OA 
HETATM   39  H   UNL     1     -11.407  17.417  66.600  1.00  0.00     0.000 HD 
HETATM   40  O   UNL     1     -10.998  16.193  64.486  1.00  0.00    -0.858 OA 
HETATM   41  C   UNL     1     -10.474  14.341  65.925  1.00  0.00    -0.307 C  
HETATM   42  H   UNL     1     -11.223  15.596  63.782  1.00  0.00     0.000 HD 
BRANCH  33  43
HETATM   43  C   UNL     1      -8.150  16.830  68.542  1.00  0.00    -0.241 C  
HETATM   44  O   UNL     1      -6.976  17.525  68.217  1.00  0.00    -0.196 OA 
HETATM   45  H   UNL     1      -6.697  18.083  68.932  1.00  0.00     0.000 HD 
ENDBRANCH  33  43
ENDBRANCH  30  31
ENDBRANCH  29  30
BRANCH  29  46
HETATM   46  C   UNL     1      -7.865  11.384  67.254  1.00  0.00    -0.149 C  
HETATM   47  O   UNL     1      -8.130  10.216  66.514  1.00  0.00    -0.117 OA 
HETATM   48  H   UNL     1      -7.393   9.987  65.962  1.00  0.00     0.000 HD 
BRANCH  46  49
HETATM   49  C   UNL     1      -6.500  11.320  67.979  1.00  0.00    -0.057 C  
HETATM   50  H   UNL     1      -5.604  12.224  69.463  1.00  0.00     0.000 HD 
HETATM   51  O   UNL     1      -6.442  12.263  69.017  1.00  0.00    -0.083 OA 
ENDBRANCH  46  49
ENDBRANCH  29  46
ENDBRANCH  26  29
ENDBRANCH  23  26
ENDBRANCH  21  23
ENDBRANCH  20  21
ENDBRANCH  19  20
ENDBRANCH  18  19
ENDBRANCH  16  18
ENDBRANCH  13  16
ENDBRANCH  10  13
ENDBRANCH   7  10
ENDBRANCH   4   7
ENDBRANCH   2   4
TORSDOF 17
ENDMDL
MODEL      367
REMARK 921   NORMALIZED FREE ENERGY PREDICTED BY IDOCK:   -3.04 KCAL/MOL
REMARK 922        TOTAL FREE ENERGY PREDICTED BY IDOCK:   -9.51 KCAL/MOL
REMARK 923 INTER-LIGAND FREE ENERGY PREDICTED BY IDOCK:   -9.81 KCAL/MOL
REMARK 924 INTRA-LIGAND FREE ENERGY PREDICTED BY IDOCK:    0.29 KCAL/MOL
REMARK 927      BINDING AFFINITY PREDICTED BY RF-SCORE:    0.00 PKD
ROOT
HETATM    1  O   UNL     1      -8.996  11.626  63.138  1.00  0.00    -0.522 OA 
HETATM    2  C   UNL     1      -9.986  11.447  64.114  1.00  0.00    -0.290 C  
HETATM    3  H   UNL     1      -9.387  11.978  62.347  1.00  0.00     0.000 HD 
ENDROOT
BRANCH   2   4
HETATM    4  C   UNL     1      -9.353  10.876  65.394  1.00  0.00    -0.208 C  
HETATM    5  O   UNL     1      -8.025  11.325  65.496  1.00  0.00    -0.367 OA 
HETATM    6  H   UNL     1      -7.634  10.973  66.287  1.00  0.00     0.000 HD 
BRANCH   4   7
HETATM    7  C   UNL     1     -10.142  11.304  66.660  1.00  0.00    -0.214 C  
HETATM    8  H   UNL     1     -12.006  11.450  67.194  1.00  0.00     0.000 HD 
HETATM    9  O   UNL     1     -11.523  11.187  66.419  1.00  0.00    -0.244 OA 
BRANCH   7  10
HETATM   10  C   UNL     1      -9.769  10.442  67.895  1.00  0.00    -0.149 C  
HETATM   11  H   UNL     1      -8.341   9.233  68.374  1.00  0.00     0.000 HD 
HETATM   12  O   UNL     1      -8.569   9.761  67.618  1.00  0.00    -0.125 OA 
BRANCH  10  13
HETATM   13  C   UNL     1     -10.860   9.404  68.276  1.00  0.00    -0.112 C  
HETATM   14  H   UNL     1     -11.428   7.648  67.668  1.00  0.00     0.000 HD 
HETATM   15  O   UNL     1     -10.761   8.283  67.435  1.00  0.00    -0.270 OA 
BRANCH  13  16
HETATM   16  C   UNL     1     -10.758   8.922  69.705  1.00  0.00    -0.217 C  
HETATM   17  O   UNL     1     -10.925   7.739  69.958  1.00  0.00    -0.249 OA 
BRANCH  16  18
HETATM   18  O   UNL     1     -10.495   9.779  70.711  1.00  0.00    -0.303 OA 
BRANCH  18  19
HETATM   19 CA   UNL     1     -11.927  11.705  71.023  1.00  0.00    -0.301 Ca 
BRANCH  19  20
HETATM   20  O   UNL     1     -13.360  13.631  71.335  1.00  0.00    -0.319 OA 
BRANCH  20  21
HETATM   21  C   UNL     1     -12.807  14.685  70.711  1.00  0.00    -0.358 C  
HETATM   22  O   UNL     1     -13.187  15.799  71.028  1.00  0.00    -0.547 OA 
BRANCH  21  23
HETATM   23  C   UNL     1     -11.875  14.516  69.532  1.00  0.00    -0.329 C  
HETATM   24  H   UNL     1     -11.536  13.154  68.207  1.00  0.00     0.000 HD 
HETATM   25  O   UNL     1     -12.122  13.260  68.947  1.00  0.00    -0.316 OA 
BRANCH  23  26
HETATM   26  C   UNL     1     -10.359  14.624  69.881  1.00  0.00     0.137 C  
HETATM   27  H   UNL     1      -8.733  13.663  69.443  1.00  0.00     0.000 HD 
HETATM   28  O   UNL     1      -9.656  13.596  69.231  1.00  0.00     0.272 OA 
BRANCH  26  29
HETATM   29  C   UNL     1      -9.654  15.998  69.607  1.00  0.00    -0.120 C  
BRANCH  29  30
HETATM   30  O   UNL     1     -10.688  16.966  69.504  1.00  0.00    -0.326 OA 
BRANCH  30  31
HETATM   31  C   UNL     1     -10.946  17.455  68.204  1.00  0.00    -0.160 C  
HETATM   32  O   UNL     1     -10.634  16.464  67.239  1.00  0.00    -0.314 OA 
HETATM   33  C   UNL     1     -10.902  16.938  65.928  1.00  0.00    -0.037 C  
HETATM   34  H   UNL     1      -9.763  20.452  68.835  1.00  0.00     0.000 HD 
HETATM   35  C   UNL     1      -9.942  18.103  65.574  1.00  0.00     0.504 C  
HETATM   36  O   UNL     1      -8.603  17.679  65.651  1.00  0.00    -0.410 OA 
HETATM   37  C   UNL     1     -10.184  19.251  66.577  1.00  0.00    -0.435 C  
HETATM   38  O   UNL     1     -10.318  19.692  68.958  1.00  0.00    -0.346 OA 
HETATM   39  H   UNL     1      -8.015  18.393  65.434  1.00  0.00     0.000 HD 
HETATM   40  O   UNL     1      -9.269  20.303  66.392  1.00  0.00    -0.533 OA 
HETATM   41  C   UNL     1     -10.039  18.696  68.004  1.00  0.00    -0.375 C  
HETATM   42  H   UNL     1      -9.419  21.009  67.009  1.00  0.00     0.000 HD 
BRANCH  33  43
HETATM   43  C   UNL     1     -10.759  15.754  64.959  1.00  0.00    -0.421 C  
HETATM   44  O   UNL     1     -11.354  16.035  63.720  1.00  0.00    -1.084 OA 
HETATM   45  H   UNL     1     -11.265  15.303  63.121  1.00  0.00     0.000 HD 
ENDBRANCH  33  43
ENDBRANCH  30  31
ENDBRANCH  29  30
BRANCH  29  46
HETATM   46  C   UNL     1      -8.684  16.038  68.374  1.00  0.00    -0.186 C  
HETATM   47  O   UNL     1      -8.647  14.791  67.721  1.00  0.00    -0.154 OA 
HETATM   48  H   UNL     1      -8.060  14.815  66.975  1.00  0.00     0.000 HD 
BRANCH  46  49
HETATM   49  C   UNL     1      -7.269  16.585  68.673  1.00  0.00    -0.186 C  
HETATM   50  H   UNL     1      -5.857  16.304  69.995  1.00  0.00     0.000 HD 
HETATM   51  O   UNL     1      -6.726  15.968  69.811  1.00  0.00    -0.191 OA 
ENDBRANCH  46  49
ENDBRANCH  29  46
ENDBRANCH  26  29
ENDBRANCH  23  26
ENDBRANCH  21  23
ENDBRANCH  20  21
ENDBRANCH  19  20
ENDBRANCH  18  19
ENDBRANCH  16  18
ENDBRANCH  13  16
ENDBRANCH  10  13
ENDBRANCH   7  10
ENDBRANCH   4   7
ENDBRANCH   2   4
TORSDOF 17
ENDMDL
MODEL      368
REMARK 921   NORMALIZED FREE ENERGY PREDICTED BY IDOCK:   -3.02 KCAL/MOL
REMARK 922        TOTAL FREE ENERGY PREDICTED BY IDOCK:   -9.47 KCAL/MOL
REMARK 923 INTER-LIGAND FREE ENERGY PREDICTED BY IDOCK:   -7.84 KCAL/MOL
REMARK 924 INTRA-LIGAND FREE ENERGY PREDICTED BY IDOCK:   -1.63 KCAL/MOL
REMARK 927      BINDING AFFINITY PREDICTED BY RF-SCORE:    0.00 PKD
ROOT
HETATM    1  O   UNL     1     -10.771  18.956  66.295  1.00  0.00    -0.395 OA 
HETATM    2  C   UNL     1      -9.937  18.920  67.421  1.00  0.00    -0.338 C  
HETATM    3  H   UNL     1     -10.936  19.859  66.048  1.00  0.00     0.000 HD 
ENDROOT
BRANCH   2   4
HETATM    4  C   UNL     1      -9.671  17.459  67.821  1.00  0.00    -0.268 C  
HETATM    5  O   UNL     1     -10.335  17.179  69.027  1.00  0.00    -0.314 OA 
HETATM    6  H   UNL     1     -10.171  16.276  69.274  1.00  0.00     0.000 HD 
BRANCH   4   7
HETATM    7  C   UNL     1     -10.152  16.471  66.725  1.00  0.00    -0.288 C  
HETATM    8  H   UNL     1      -9.566  15.911  64.957  1.00  0.00     0.000 HD 
HETATM    9  O   UNL     1      -9.271  16.516  65.628  1.00  0.00    -0.481 OA 
BRANCH   7  10
HETATM   10  C   UNL     1     -10.230  15.014  67.251  1.00  0.00    -0.242 C  
HETATM   11  H   UNL     1      -9.252  13.372  66.967  1.00  0.00     0.000 HD 
HETATM   12  O   UNL     1      -9.204  14.265  66.644  1.00  0.00    -0.260 OA 
BRANCH  10  13
HETATM   13  C   UNL     1     -11.592  14.324  66.964  1.00  0.00    -0.386 C  
HETATM   14  H   UNL     1     -12.424  13.377  65.487  1.00  0.00     0.000 HD 
HETATM   15  O   UNL     1     -11.591  13.799  65.662  1.00  0.00    -0.317 OA 
BRANCH  13  16
HETATM   16  C   UNL     1     -11.907  13.197  67.919  1.00  0.00    -0.348 C  
HETATM   17  O   UNL     1     -11.932  12.046  67.511  1.00  0.00    -0.572 OA 
BRANCH  16  18
HETATM   18  O   UNL     1     -12.174  13.439  69.218  1.00  0.00    -0.284 OA 
BRANCH  18  19
HETATM   19 CA   UNL     1     -12.519  11.571  70.718  1.00  0.00    -0.263 Ca 
BRANCH  19  20
HETATM   20  O   UNL     1     -12.865   9.704  72.218  1.00  0.00    -0.377 OA 
BRANCH  20  21
HETATM   21  C   UNL     1     -12.531   8.570  71.580  1.00  0.00    -0.317 C  
HETATM   22  O   UNL     1     -13.382   8.030  70.893  1.00  0.00     0.035 OA 
BRANCH  21  23
HETATM   23  C   UNL     1     -11.211   7.874  71.828  1.00  0.00    -0.260 C  
HETATM   24  H   UNL     1     -10.017   7.644  73.327  1.00  0.00     0.000 HD 
HETATM   25  O   UNL     1     -10.846   8.080  73.171  1.00  0.00    -0.335 OA 
BRANCH  23  26
HETATM   26  C   UNL     1     -10.045   8.344  70.907  1.00  0.00    -0.194 C  
HETATM   27  H   UNL     1      -8.392   9.338  71.110  1.00  0.00     0.000 HD 
HETATM   28  O   UNL     1      -9.103   9.052  71.672  1.00  0.00    -0.300 OA 
BRANCH  26  29
HETATM   29  C   UNL     1      -9.314   7.249  70.055  1.00  0.00    -0.154 C  
BRANCH  29  30
HETATM   30  O   UNL     1      -9.326   6.061  70.834  1.00  0.00    -0.158 OA 
BRANCH  30  31
HETATM   31  C   UNL     1      -8.090   5.385  70.943  1.00  0.00    -0.112 C  
HETATM   32  O   UNL     1      -8.074   4.256  70.086  1.00  0.00    -0.058 OA 
HETATM   33  C   UNL     1      -6.832   3.576  70.175  1.00  0.00    -0.034 C  
HETATM   34  H   UNL     1      -7.900   5.757  74.199  1.00  0.00     0.000 HD 
HETATM   35  C   UNL     1      -6.660   2.960  71.588  1.00  0.00    -0.019 C  
HETATM   36  O   UNL     1      -7.705   2.059  71.864  1.00  0.00    -0.040 OA 
HETATM   37  C   UNL     1      -6.675   4.107  72.620  1.00  0.00    -0.045 C  
HETATM   38  O   UNL     1      -7.983   6.034  73.295  1.00  0.00    -0.108 OA 
HETATM   39  H   UNL     1      -7.600   1.682  72.729  1.00  0.00     0.000 HD 
HETATM   40  O   UNL     1      -6.638   3.618  73.939  1.00  0.00    -0.038 OA 
HETATM   41  C   UNL     1      -7.956   4.933  72.419  1.00  0.00    -0.103 C  
HETATM   42  H   UNL     1      -6.647   4.324  74.574  1.00  0.00     0.000 HD 
BRANCH  33  43
HETATM   43  C   UNL     1      -6.796   2.509  69.070  1.00  0.00    -0.036 C  
HETATM   44  O   UNL     1      -5.800   1.553  69.316  1.00  0.00    -0.021 OA 
HETATM   45  H   UNL     1      -5.778   0.893  68.633  1.00  0.00     0.000 HD 
ENDBRANCH  33  43
ENDBRANCH  30  31
ENDBRANCH  29  30
BRANCH  29  46
HETATM   46  C   UNL     1      -7.871   7.615  69.559  1.00  0.00    -0.115 C  
HETATM   47  O   UNL     1      -7.653   9.005  69.620  1.00  0.00    -0.072 OA 
HETATM   48  H   UNL     1      -6.780   9.226  69.320  1.00  0.00     0.000 HD 
BRANCH  46  49
HETATM   49  C   UNL     1      -7.481   7.021  68.185  1.00  0.00    -0.099 C  
HETATM   50  H   UNL     1      -8.381   6.444  66.549  1.00  0.00     0.000 HD 
HETATM   51  O   UNL     1      -8.620   6.809  67.393  1.00  0.00    -0.120 OA 
ENDBRANCH  46  49
ENDBRANCH  29  46
ENDBRANCH  26  29
ENDBRANCH  23  26
ENDBRANCH  21  23
ENDBRANCH  20  21
ENDBRANCH  19  20
ENDBRANCH  18  19
ENDBRANCH  16  18
ENDBRANCH  13  16
ENDBRANCH  10  13
ENDBRANCH   7  10
ENDBRANCH   4   7
ENDBRANCH   2   4
TORSDOF 17
ENDMDL
MODEL      369
REMARK 921   NORMALIZED FREE ENERGY PREDICTED BY IDOCK:   -3.02 KCAL/MOL
REMARK 922        TOTAL FREE ENERGY PREDICTED BY IDOCK:   -9.46 KCAL/MOL
REMARK 923 INTER-LIGAND FREE ENERGY PREDICTED BY IDOCK:  -10.75 KCAL/MOL
REMARK 924 INTRA-LIGAND FREE ENERGY PREDICTED BY IDOCK:    1.29 KCAL/MOL
REMARK 927      BINDING AFFINITY PREDICTED BY RF-SCORE:    0.00 PKD
ROOT
HETATM    1  O   UNL     1     -13.995  16.344  73.733  1.00  0.00    -0.756 OA 
HETATM    2  C   UNL     1     -12.605  16.425  73.899  1.00  0.00    -0.443 C  
HETATM    3  H   UNL     1     -14.420  17.002  74.270  1.00  0.00     0.000 HD 
ENDROOT
BRANCH   2   4
HETATM    4  C   UNL     1     -11.917  15.359  73.029  1.00  0.00    -0.447 C  
HETATM    5  O   UNL     1     -12.462  14.097  73.323  1.00  0.00    -0.199 OA 
HETATM    6  H   UNL     1     -12.037  13.438  72.786  1.00  0.00     0.000 HD 
BRANCH   4   7
HETATM    7  C   UNL     1     -12.091  15.658  71.516  1.00  0.00    -0.425 C  
HETATM    8  H   UNL     1     -10.975  15.645  69.925  1.00  0.00     0.000 HD 
HETATM    9  O   UNL     1     -10.868  15.461  70.851  1.00  0.00    -0.323 OA 
BRANCH   7  10
HETATM   10  C   UNL     1     -13.171  14.752  70.867  1.00  0.00    -0.356 C  
HETATM   11  H   UNL     1     -14.678  13.713  71.484  1.00  0.00     0.000 HD 
HETATM   12  O   UNL     1     -14.017  14.268  71.882  1.00  0.00    -0.409 OA 
BRANCH  10  13
HETATM   13  C   UNL     1     -12.579  13.544  70.089  1.00  0.00    -0.112 C  
HETATM   14  H   UNL     1     -10.878  13.069  69.281  1.00  0.00     0.000 HD 
HETATM   15  O   UNL     1     -11.240  13.807  69.757  1.00  0.00    -0.181 OA 
BRANCH  13  16
HETATM   16  C   UNL     1     -12.619  12.250  70.867  1.00  0.00    -0.241 C  
HETATM   17  O   UNL     1     -13.405  12.126  71.794  1.00  0.00    -0.407 OA 
BRANCH  16  18
HETATM   18  O   UNL     1     -11.792  11.230  70.565  1.00  0.00    -0.338 OA 
BRANCH  18  19
HETATM   19 CA   UNL     1      -9.632  11.713  69.586  1.00  0.00    -0.390 Ca 
BRANCH  19  20
HETATM   20  O   UNL     1      -7.473  12.196  68.606  1.00  0.00    -0.111 OA 
BRANCH  20  21
HETATM   21  C   UNL     1      -7.285  13.526  68.611  1.00  0.00    -0.107 C  
HETATM   22  O   UNL     1      -7.415  14.117  69.670  1.00  0.00     0.069 OA 
BRANCH  21  23
HETATM   23  C   UNL     1      -7.090  14.309  67.331  1.00  0.00    -0.084 C  
HETATM   24  H   UNL     1      -5.649  15.289  66.501  1.00  0.00     0.000 HD 
HETATM   25  O   UNL     1      -5.771  14.798  67.305  1.00  0.00    -0.301 OA 
BRANCH  23  26
HETATM   26  C   UNL     1      -8.078  15.500  67.141  1.00  0.00    -0.216 C  
HETATM   27  H   UNL     1      -8.299  16.971  65.897  1.00  0.00     0.000 HD 
HETATM   28  O   UNL     1      -7.697  16.245  66.013  1.00  0.00    -0.018 OA 
BRANCH  26  29
HETATM   29  C   UNL     1      -9.606  15.162  67.057  1.00  0.00    -0.226 C  
BRANCH  29  30
HETATM   30  O   UNL     1      -9.820  14.588  65.776  1.00  0.00    -0.316 OA 
BRANCH  30  31
HETATM   31  C   UNL     1     -10.402  13.300  65.768  1.00  0.00    -0.288 C  
HETATM   32  O   UNL     1      -9.484  12.353  65.246  1.00  0.00    -0.064 OA 
HETATM   33  C   UNL     1     -10.050  11.052  65.247  1.00  0.00    -0.275 C  
HETATM   34  H   UNL     1     -13.347  14.371  64.792  1.00  0.00     0.000 HD 
HETATM   35  C   UNL     1     -11.240  10.987  64.254  1.00  0.00     0.200 C  
HETATM   36  O   UNL     1     -10.815  11.309  62.952  1.00  0.00    -0.781 OA 
HETATM   37  C   UNL     1     -12.311  11.996  64.717  1.00  0.00    -0.092 C  
HETATM   38  O   UNL     1     -12.579  14.322  65.347  1.00  0.00    -0.460 OA 
HETATM   39  H   UNL     1     -11.544  11.270  62.345  1.00  0.00     0.000 HD 
HETATM   40  O   UNL     1     -13.376  12.079  63.802  1.00  0.00    -0.681 OA 
HETATM   41  C   UNL     1     -11.655  13.379  64.860  1.00  0.00    -0.330 C  
HETATM   42  H   UNL     1     -14.036  12.699  64.088  1.00  0.00     0.000 HD 
BRANCH  33  43
HETATM   43  C   UNL     1      -8.939  10.052  64.886  1.00  0.00    -0.205 C  
HETATM   44  O   UNL     1      -9.345   9.189  63.858  1.00  0.00    -0.350 OA 
HETATM   45  H   UNL     1      -8.659   8.572  63.635  1.00  0.00     0.000 HD 
ENDBRANCH  33  43
ENDBRANCH  30  31
ENDBRANCH  29  30
BRANCH  29  46
HETATM   46  C   UNL     1     -10.589  16.351  67.342  1.00  0.00    -0.306 C  
HETATM   47  O   UNL     1     -11.788  15.888  67.919  1.00  0.00    -0.176 OA 
HETATM   48  H   UNL     1     -12.383  16.608  68.092  1.00  0.00     0.000 HD 
BRANCH  46  49
HETATM   49  C   UNL     1     -10.843  17.292  66.142  1.00  0.00     0.030 C  
HETATM   50  H   UNL     1     -10.480  17.322  64.222  1.00  0.00     0.000 HD 
HETATM   51  O   UNL     1     -10.325  16.743  64.959  1.00  0.00    -0.631 OA 
ENDBRANCH  46  49
ENDBRANCH  29  46
ENDBRANCH  26  29
ENDBRANCH  23  26
ENDBRANCH  21  23
ENDBRANCH  20  21
ENDBRANCH  19  20
ENDBRANCH  18  19
ENDBRANCH  16  18
ENDBRANCH  13  16
ENDBRANCH  10  13
ENDBRANCH   7  10
ENDBRANCH   4   7
ENDBRANCH   2   4
TORSDOF 17
ENDMDL
MODEL      370
REMARK 921   NORMALIZED FREE ENERGY PREDICTED BY IDOCK:   -2.99 KCAL/MOL
REMARK 922        TOTAL FREE ENERGY PREDICTED BY IDOCK:   -9.41 KCAL/MOL
REMARK 923 INTER-LIGAND FREE ENERGY PREDICTED BY IDOCK:   -6.01 KCAL/MOL
REMARK 924 INTRA-LIGAND FREE ENERGY PREDICTED BY IDOCK:   -3.40 KCAL/MOL
REMARK 927      BINDING AFFINITY PREDICTED BY RF-SCORE:    0.00 PKD
ROOT
HETATM    1  O   UNL     1     -13.264  16.122  69.839  1.00  0.00    -0.385 OA 
HETATM    2  C   UNL     1     -11.864  16.080  69.796  1.00  0.00    -0.227 C  
HETATM    3  H   UNL     1     -13.555  17.025  69.896  1.00  0.00     0.000 HD 
ENDROOT
BRANCH   2   4
HETATM    4  C   UNL     1     -11.392  14.619  69.703  1.00  0.00    -0.280 C  
HETATM    5  O   UNL     1     -10.014  14.592  69.429  1.00  0.00    -0.387 OA 
HETATM    6  H   UNL     1      -9.723  13.689  69.371  1.00  0.00     0.000 HD 
BRANCH   4   7
HETATM    7  C   UNL     1     -11.673  13.845  71.018  1.00  0.00     0.108 C  
HETATM    8  H   UNL     1     -11.982  14.280  72.888  1.00  0.00     0.000 HD 
HETATM    9  O   UNL     1     -11.811  14.754  72.083  1.00  0.00    -0.327 OA 
BRANCH   7  10
HETATM   10  C   UNL     1     -12.960  12.983  70.921  1.00  0.00    -0.044 C  
HETATM   11  H   UNL     1     -14.857  13.279  71.122  1.00  0.00     0.000 HD 
HETATM   12  O   UNL     1     -14.070  13.808  71.182  1.00  0.00     0.039 OA 
BRANCH  10  13
HETATM   13  C   UNL     1     -12.979  11.786  71.911  1.00  0.00    -0.330 C  
HETATM   14  H   UNL     1     -14.044  11.214  73.431  1.00  0.00     0.000 HD 
HETATM   15  O   UNL     1     -14.032  11.946  72.826  1.00  0.00     0.429 OA 
BRANCH  13  16
HETATM   16  C   UNL     1     -13.153  10.448  71.232  1.00  0.00    -0.399 C  
HETATM   17  O   UNL     1     -13.977   9.654  71.660  1.00  0.00    -0.210 OA 
BRANCH  16  18
HETATM   18  O   UNL     1     -12.406  10.106  70.163  1.00  0.00    -0.193 OA 
BRANCH  18  19
HETATM   19 CA   UNL     1     -10.033   9.733  70.455  1.00  0.00    -0.182 Ca 
BRANCH  19  20
HETATM   20  O   UNL     1      -7.660   9.359  70.747  1.00  0.00    -0.145 OA 
BRANCH  20  21
HETATM   21  C   UNL     1      -6.992  10.416  70.253  1.00  0.00    -0.096 C  
HETATM   22  O   UNL     1      -6.222  11.002  70.995  1.00  0.00    -0.356 OA 
BRANCH  21  23
HETATM   23  C   UNL     1      -7.300  10.986  68.886  1.00  0.00    -0.111 C  
HETATM   24  H   UNL     1      -7.140  12.705  68.024  1.00  0.00     0.000 HD 
HETATM   25  O   UNL     1      -6.947  12.348  68.882  1.00  0.00    -0.096 OA 
BRANCH  23  26
HETATM   26  C   UNL     1      -8.787  10.844  68.442  1.00  0.00    -0.147 C  
HETATM   27  H   UNL     1     -10.198  12.022  67.824  1.00  0.00     0.000 HD 
HETATM   28  O   UNL     1      -9.292  12.109  68.095  1.00  0.00    -0.194 OA 
BRANCH  26  29
HETATM   29  C   UNL     1      -9.103   9.820  67.298  1.00  0.00    -0.134 C  
BRANCH  29  30
HETATM   30  O   UNL     1      -8.119   8.800  67.390  1.00  0.00    -0.104 OA 
BRANCH  30  31
HETATM   31  C   UNL     1      -8.576   7.543  67.848  1.00  0.00    -0.121 C  
HETATM   32  O   UNL     1      -9.680   7.715  68.720  1.00  0.00    -0.149 OA 
HETATM   33  C   UNL     1     -10.159   6.459  69.176  1.00  0.00    -0.165 C  
HETATM   34  H   UNL     1      -5.556   6.314  68.233  1.00  0.00     0.000 HD 
HETATM   35  C   UNL     1      -9.094   5.774  70.070  1.00  0.00    -0.142 C  
HETATM   36  O   UNL     1      -8.785   6.584  71.178  1.00  0.00    -0.136 OA 
HETATM   37  C   UNL     1      -7.825   5.544  69.223  1.00  0.00    -0.091 C  
HETATM   38  O   UNL     1      -6.279   6.717  67.768  1.00  0.00    -0.032 OA 
HETATM   39  H   UNL     1      -8.132   6.164  71.726  1.00  0.00     0.000 HD 
HETATM   40  O   UNL     1      -6.770   5.029  69.996  1.00  0.00    -0.035 OA 
HETATM   41  C   UNL     1      -7.396   6.887  68.607  1.00  0.00    -0.094 C  
HETATM   42  H   UNL     1      -5.989   4.887  69.474  1.00  0.00     0.000 HD 
BRANCH  33  43
HETATM   43  C   UNL     1     -11.479   6.699  69.927  1.00  0.00    -0.354 C  
HETATM   44  O   UNL     1     -11.294   7.560  71.018  1.00  0.00    -0.262 OA 
HETATM   45  H   UNL     1     -12.109   7.709  71.482  1.00  0.00     0.000 HD 
ENDBRANCH  33  43
ENDBRANCH  30  31
ENDBRANCH  29  30
BRANCH  29  46
HETATM   46  C   UNL     1      -9.200  10.417  65.850  1.00  0.00    -0.170 C  
HETATM   47  O   UNL     1     -10.540  10.485  65.421  1.00  0.00    -0.202 OA 
HETATM   48  H   UNL     1     -10.599  10.846  64.545  1.00  0.00     0.000 HD 
BRANCH  46  49
HETATM   49  C   UNL     1      -8.284   9.743  64.801  1.00  0.00    -0.148 C  
HETATM   50  H   UNL     1      -8.036   7.968  64.022  1.00  0.00     0.000 HD 
HETATM   51  O   UNL     1      -8.599   8.382  64.666  1.00  0.00    -0.131 OA 
ENDBRANCH  46  49
ENDBRANCH  29  46
ENDBRANCH  26  29
ENDBRANCH  23  26
ENDBRANCH  21  23
ENDBRANCH  20  21
ENDBRANCH  19  20
ENDBRANCH  18  19
ENDBRANCH  16  18
ENDBRANCH  13  16
ENDBRANCH  10  13
ENDBRANCH   7  10
ENDBRANCH   4   7
ENDBRANCH   2   4
TORSDOF 17
ENDMDL
MODEL      371
REMARK 921   NORMALIZED FREE ENERGY PREDICTED BY IDOCK:   -2.99 KCAL/MOL
REMARK 922        TOTAL FREE ENERGY PREDICTED BY IDOCK:   -9.40 KCAL/MOL
REMARK 923 INTER-LIGAND FREE ENERGY PREDICTED BY IDOCK:   -8.82 KCAL/MOL
REMARK 924 INTRA-LIGAND FREE ENERGY PREDICTED BY IDOCK:   -0.58 KCAL/MOL
REMARK 927      BINDING AFFINITY PREDICTED BY RF-SCORE:    0.00 PKD
ROOT
HETATM    1  O   UNL     1      -9.578  20.457  65.938  1.00  0.00    -0.653 OA 
HETATM    2  C   UNL     1      -9.061  20.685  67.220  1.00  0.00    -0.275 C  
HETATM    3  H   UNL     1      -9.263  21.126  65.341  1.00  0.00     0.000 HD 
ENDROOT
BRANCH   2   4
HETATM    4  C   UNL     1      -9.571  19.601  68.185  1.00  0.00    -0.377 C  
HETATM    5  O   UNL     1     -10.878  19.921  68.593  1.00  0.00    -0.318 OA 
HETATM    6  H   UNL     1     -11.193  19.251  69.189  1.00  0.00     0.000 HD 
BRANCH   4   7
HETATM    7  C   UNL     1      -9.565  18.199  67.521  1.00  0.00    -0.280 C  
HETATM    8  H   UNL     1      -8.341  17.137  66.448  1.00  0.00     0.000 HD 
HETATM    9  O   UNL     1      -8.344  17.996  66.854  1.00  0.00    -0.232 OA 
BRANCH   7  10
HETATM   10  C   UNL     1      -9.768  17.065  68.561  1.00  0.00    -0.282 C  
HETATM   11  H   UNL     1      -8.700  15.628  69.285  1.00  0.00     0.000 HD 
HETATM   12  O   UNL     1      -8.575  16.322  68.648  1.00  0.00    -0.199 OA 
BRANCH  10  13
HETATM   13  C   UNL     1     -10.935  16.102  68.206  1.00  0.00    -0.340 C  
HETATM   14  H   UNL     1     -11.688  15.311  66.601  1.00  0.00     0.000 HD 
HETATM   15  O   UNL     1     -10.975  15.900  66.817  1.00  0.00    -0.271 OA 
BRANCH  13  16
HETATM   16  C   UNL     1     -10.819  14.749  68.869  1.00  0.00    -0.254 C  
HETATM   17  O   UNL     1     -10.567  13.764  68.192  1.00  0.00    -0.241 OA 
BRANCH  16  18
HETATM   18  O   UNL     1     -10.999  14.606  70.197  1.00  0.00    -0.188 OA 
BRANCH  18  19
HETATM   19 CA   UNL     1     -11.672  12.452  71.070  1.00  0.00    -0.380 Ca 
BRANCH  19  20
HETATM   20  O   UNL     1     -12.346  10.298  71.943  1.00  0.00    -0.335 OA 
BRANCH  20  21
HETATM   21  C   UNL     1     -11.748   9.334  71.222  1.00  0.00    -0.346 C  
HETATM   22  O   UNL     1     -11.828   9.397  70.007  1.00  0.00    -0.047 OA 
BRANCH  21  23
HETATM   23  C   UNL     1     -11.144   8.110  71.873  1.00  0.00    -0.285 C  
HETATM   24  H   UNL     1     -11.070   7.372  73.656  1.00  0.00     0.000 HD 
HETATM   25  O   UNL     1     -11.449   8.141  73.246  1.00  0.00    -0.189 OA 
BRANCH  23  26
HETATM   26  C   UNL     1      -9.601   7.975  71.699  1.00  0.00    -0.167 C  
HETATM   27  H   UNL     1      -8.012   8.672  72.565  1.00  0.00     0.000 HD 
HETATM   28  O   UNL     1      -8.952   8.754  72.672  1.00  0.00    -0.380 OA 
BRANCH  26  29
HETATM   29  C   UNL     1      -9.000   6.527  71.699  1.00  0.00    -0.143 C  
BRANCH  29  30
HETATM   30  O   UNL     1      -8.212   6.420  70.522  1.00  0.00    -0.115 OA 
BRANCH  30  31
HETATM   31  C   UNL     1      -8.871   6.724  69.310  1.00  0.00    -0.137 C  
HETATM   32  O   UNL     1      -9.007   5.553  68.522  1.00  0.00    -0.110 OA 
HETATM   33  C   UNL     1      -9.682   5.842  67.307  1.00  0.00    -0.129 C  
HETATM   34  H   UNL     1      -7.289   9.568  68.882  1.00  0.00     0.000 HD 
HETATM   35  C   UNL     1      -8.814   6.774  66.423  1.00  0.00    -0.144 C  
HETATM   36  O   UNL     1      -7.576   6.171  66.136  1.00  0.00    -0.087 OA 
HETATM   37  C   UNL     1      -8.585   8.093  67.190  1.00  0.00    -0.124 C  
HETATM   38  O   UNL     1      -7.828   8.932  69.336  1.00  0.00    -0.093 OA 
HETATM   39  H   UNL     1      -7.044   6.742  65.594  1.00  0.00     0.000 HD 
HETATM   40  O   UNL     1      -7.709   8.950  66.500  1.00  0.00    -0.097 OA 
HETATM   41  C   UNL     1      -7.991   7.763  68.570  1.00  0.00    -0.122 C  
HETATM   42  H   UNL     1      -7.569   9.762  66.972  1.00  0.00     0.000 HD 
BRANCH  33  43
HETATM   43  C   UNL     1      -9.994   4.508  66.610  1.00  0.00    -0.230 C  
HETATM   44  O   UNL     1     -10.433   4.711  65.293  1.00  0.00    -0.423 OA 
HETATM   45  H   UNL     1     -10.625   3.887  64.863  1.00  0.00     0.000 HD 
ENDBRANCH  33  43
ENDBRANCH  30  31
ENDBRANCH  29  30
BRANCH  29  46
HETATM   46  C   UNL     1     -10.036   5.354  71.824  1.00  0.00    -0.183 C  
HETATM   47  O   UNL     1     -11.084   5.505  70.894  1.00  0.00    -0.186 OA 
HETATM   48  H   UNL     1     -11.710   4.796  70.970  1.00  0.00     0.000 HD 
BRANCH  46  49
HETATM   49  C   UNL     1     -10.557   5.092  73.256  1.00  0.00    -0.234 C  
HETATM   50  H   UNL     1     -12.185   4.420  74.104  1.00  0.00     0.000 HD 
HETATM   51  O   UNL     1     -11.864   4.581  73.225  1.00  0.00    -0.218 OA 
ENDBRANCH  46  49
ENDBRANCH  29  46
ENDBRANCH  26  29
ENDBRANCH  23  26
ENDBRANCH  21  23
ENDBRANCH  20  21
ENDBRANCH  19  20
ENDBRANCH  18  19
ENDBRANCH  16  18
ENDBRANCH  13  16
ENDBRANCH  10  13
ENDBRANCH   7  10
ENDBRANCH   4   7
ENDBRANCH   2   4
TORSDOF 17
ENDMDL
MODEL      372
REMARK 921   NORMALIZED FREE ENERGY PREDICTED BY IDOCK:   -2.97 KCAL/MOL
REMARK 922        TOTAL FREE ENERGY PREDICTED BY IDOCK:   -9.36 KCAL/MOL
REMARK 923 INTER-LIGAND FREE ENERGY PREDICTED BY IDOCK:   -8.95 KCAL/MOL
REMARK 924 INTRA-LIGAND FREE ENERGY PREDICTED BY IDOCK:   -0.41 KCAL/MOL
REMARK 927      BINDING AFFINITY PREDICTED BY RF-SCORE:    0.00 PKD
ROOT
HETATM    1  O   UNL     1     -12.449   9.553  70.869  1.00  0.00    -0.405 OA 
HETATM    2  C   UNL     1     -11.170   9.329  71.397  1.00  0.00    -0.362 C  
HETATM    3  H   UNL     1     -13.002   9.952  71.531  1.00  0.00     0.000 HD 
ENDROOT
BRANCH   2   4
HETATM    4  C   UNL     1     -10.274   8.684  70.325  1.00  0.00    -0.194 C  
HETATM    5  O   UNL     1     -10.894   8.803  69.069  1.00  0.00    -0.393 OA 
HETATM    6  H   UNL     1     -10.341   8.404  68.407  1.00  0.00     0.000 HD 
BRANCH   4   7
HETATM    7  C   UNL     1      -8.874   9.350  70.276  1.00  0.00    -0.236 C  
HETATM    8  H   UNL     1      -7.319   9.483  71.436  1.00  0.00     0.000 HD 
HETATM    9  O   UNL     1      -8.177   9.075  71.467  1.00  0.00    -0.303 OA 
BRANCH   7  10
HETATM   10  C   UNL     1      -8.034   8.847  69.071  1.00  0.00    -0.106 C  
HETATM   11  H   UNL     1      -7.639   7.139  68.261  1.00  0.00     0.000 HD 
HETATM   12  O   UNL     1      -8.153   7.447  68.999  1.00  0.00    -0.123 OA 
BRANCH  10  13
HETATM   13  C   UNL     1      -6.529   9.219  69.168  1.00  0.00    -0.042 C  
HETATM   14  H   UNL     1      -4.829   8.280  69.171  1.00  0.00     0.000 HD 
HETATM   15  O   UNL     1      -5.750   8.052  69.113  1.00  0.00    -0.032 OA 
BRANCH  13  16
HETATM   16  C   UNL     1      -6.066  10.140  68.063  1.00  0.00    -0.052 C  
HETATM   17  O   UNL     1      -5.784  11.300  68.320  1.00  0.00    -0.046 OA 
BRANCH  16  18
HETATM   18  O   UNL     1      -5.969   9.706  66.791  1.00  0.00    -0.057 OA 
BRANCH  18  19
HETATM   19 CA   UNL     1      -7.400  10.683  65.101  1.00  0.00    -0.128 Ca 
BRANCH  19  20
HETATM   20  O   UNL     1      -8.831  11.659  63.411  1.00  0.00     0.112 OA 
BRANCH  20  21
HETATM   21  C   UNL     1     -10.092  11.244  63.622  1.00  0.00    -0.382 C  
HETATM   22  O   UNL     1     -10.397  10.126  63.241  1.00  0.00     0.407 OA 
BRANCH  21  23
HETATM   23  C   UNL     1     -11.160  12.176  64.149  1.00  0.00    -0.364 C  
HETATM   24  H   UNL     1     -12.636  13.170  63.402  1.00  0.00     0.000 HD 
HETATM   25  O   UNL     1     -11.966  12.585  63.071  1.00  0.00    -0.343 OA 
BRANCH  23  26
HETATM   26  C   UNL     1     -10.616  13.438  64.885  1.00  0.00    -0.385 C  
HETATM   27  H   UNL     1     -11.078  15.318  65.002  1.00  0.00     0.000 HD 
HETATM   28  O   UNL     1     -11.410  14.549  64.553  1.00  0.00    -0.368 OA 
BRANCH  26  29
HETATM   29  C   UNL     1     -10.459  13.351  66.442  1.00  0.00    -0.286 C  
BRANCH  29  30
HETATM   30  O   UNL     1     -11.740  13.625  66.992  1.00  0.00    -0.342 OA 
BRANCH  30  31
HETATM   31  C   UNL     1     -11.830  14.785  67.794  1.00  0.00    -0.294 C  
HETATM   32  O   UNL     1     -10.975  15.796  67.287  1.00  0.00    -0.316 OA 
HETATM   33  C   UNL     1     -11.067  16.973  68.075  1.00  0.00    -0.149 C  
HETATM   34  H   UNL     1     -11.934  13.117  70.619  1.00  0.00     0.000 HD 
HETATM   35  C   UNL     1     -10.510  16.708  69.497  1.00  0.00    -0.281 C  
HETATM   36  O   UNL     1      -9.167  16.295  69.432  1.00  0.00    -0.223 OA 
HETATM   37  C   UNL     1     -11.364  15.602  70.153  1.00  0.00    -0.344 C  
HETATM   38  O   UNL     1     -12.207  13.365  69.744  1.00  0.00    -0.302 OA 
HETATM   39  H   UNL     1      -8.826  16.133  70.304  1.00  0.00     0.000 HD 
HETATM   40  O   UNL     1     -10.849  15.224  71.406  1.00  0.00    -0.500 OA 
HETATM   41  C   UNL     1     -11.384  14.379  69.221  1.00  0.00    -0.284 C  
HETATM   42  H   UNL     1     -11.375  14.543  71.809  1.00  0.00     0.000 HD 
BRANCH  33  43
HETATM   43  C   UNL     1     -10.299  18.090  67.350  1.00  0.00    -0.382 C  
HETATM   44  O   UNL     1     -10.219  17.842  65.972  1.00  0.00    -0.463 OA 
HETATM   45  H   UNL     1      -9.744  18.531  65.524  1.00  0.00     0.000 HD 
ENDBRANCH  33  43
ENDBRANCH  30  31
ENDBRANCH  29  30
BRANCH  29  46
HETATM   46  C   UNL     1      -9.342  14.257  67.071  1.00  0.00    -0.241 C  
HETATM   47  O   UNL     1      -8.820  15.152  66.116  1.00  0.00    -0.449 OA 
HETATM   48  H   UNL     1      -8.145  15.699  66.496  1.00  0.00     0.000 HD 
BRANCH  46  49
HETATM   49  C   UNL     1      -8.229  13.494  67.826  1.00  0.00    -0.176 C  
HETATM   50  H   UNL     1      -6.759  13.909  69.046  1.00  0.00     0.000 HD 
HETATM   51  O   UNL     1      -7.443  14.378  68.582  1.00  0.00    -0.113 OA 
ENDBRANCH  46  49
ENDBRANCH  29  46
ENDBRANCH  26  29
ENDBRANCH  23  26
ENDBRANCH  21  23
ENDBRANCH  20  21
ENDBRANCH  19  20
ENDBRANCH  18  19
ENDBRANCH  16  18
ENDBRANCH  13  16
ENDBRANCH  10  13
ENDBRANCH   7  10
ENDBRANCH   4   7
ENDBRANCH   2   4
TORSDOF 17
ENDMDL
MODEL      373
REMARK 921   NORMALIZED FREE ENERGY PREDICTED BY IDOCK:   -2.96 KCAL/MOL
REMARK 922        TOTAL FREE ENERGY PREDICTED BY IDOCK:   -9.35 KCAL/MOL
REMARK 923 INTER-LIGAND FREE ENERGY PREDICTED BY IDOCK:   -8.25 KCAL/MOL
REMARK 924 INTRA-LIGAND FREE ENERGY PREDICTED BY IDOCK:   -1.09 KCAL/MOL
REMARK 927      BINDING AFFINITY PREDICTED BY RF-SCORE:    0.00 PKD
ROOT
HETATM    1  O   UNL     1     -11.113  16.111  71.174  1.00  0.00    -0.257 OA 
HETATM    2  C   UNL     1     -11.898  15.355  72.055  1.00  0.00    -0.442 C  
HETATM    3  H   UNL     1     -10.333  16.416  71.622  1.00  0.00     0.000 HD 
ENDROOT
BRANCH   2   4
HETATM    4  C   UNL     1     -13.161  14.861  71.328  1.00  0.00    -0.408 C  
HETATM    5  O   UNL     1     -13.807  15.954  70.725  1.00  0.00    -0.582 OA 
HETATM    6  H   UNL     1     -14.588  15.650  70.277  1.00  0.00     0.000 HD 
BRANCH   4   7
HETATM    7  C   UNL     1     -12.820  13.802  70.247  1.00  0.00    -0.032 C  
HETATM    8  H   UNL     1     -11.900  13.761  68.535  1.00  0.00     0.000 HD 
HETATM    9  O   UNL     1     -12.108  14.410  69.197  1.00  0.00    -0.318 OA 
BRANCH   7  10
HETATM   10  C   UNL     1     -11.973  12.637  70.824  1.00  0.00     0.013 C  
HETATM   11  H   UNL     1     -10.935  11.176  70.104  1.00  0.00     0.000 HD 
HETATM   12  O   UNL     1     -11.453  11.890  69.750  1.00  0.00    -0.278 OA 
BRANCH  10  13
HETATM   13  C   UNL     1     -12.778  11.687  71.754  1.00  0.00    -0.217 C  
HETATM   14  H   UNL     1     -14.403  11.776  72.813  1.00  0.00     0.000 HD 
HETATM   15  O   UNL     1     -13.911  12.357  72.245  1.00  0.00    -0.353 OA 
BRANCH  13  16
HETATM   16  C   UNL     1     -13.246  10.427  71.065  1.00  0.00    -0.278 C  
HETATM   17  O   UNL     1     -13.768   9.538  71.719  1.00  0.00    -0.363 OA 
BRANCH  16  18
HETATM   18  O   UNL     1     -13.086  10.259  69.737  1.00  0.00     0.060 OA 
BRANCH  18  19
HETATM   19 CA   UNL     1     -11.433   8.681  68.939  1.00  0.00    -0.433 Ca 
BRANCH  19  20
HETATM   20  O   UNL     1      -9.781   7.103  68.141  1.00  0.00    -0.137 OA 
BRANCH  20  21
HETATM   21  C   UNL     1      -9.769   7.133  66.798  1.00  0.00    -0.192 C  
HETATM   22  O   UNL     1     -10.159   6.143  66.202  1.00  0.00    -0.033 OA 
BRANCH  21  23
HETATM   23  C   UNL     1      -9.136   8.272  66.031  1.00  0.00    -0.176 C  
HETATM   24  H   UNL     1      -7.549   8.519  64.959  1.00  0.00     0.000 HD 
HETATM   25  O   UNL     1      -7.947   7.804  65.441  1.00  0.00    -0.109 OA 
BRANCH  23  26
HETATM   26  C   UNL     1      -8.814   9.534  66.888  1.00  0.00    -0.127 C  
HETATM   27  H   UNL     1      -7.260  10.292  67.765  1.00  0.00     0.000 HD 
HETATM   28  O   UNL     1      -7.455   9.523  67.243  1.00  0.00    -0.090 OA 
BRANCH  26  29
HETATM   29  C   UNL     1      -9.189  10.930  66.282  1.00  0.00    -0.177 C  
BRANCH  29  30
HETATM   30  O   UNL     1      -8.166  11.830  66.685  1.00  0.00    -0.171 OA 
BRANCH  30  31
HETATM   31  C   UNL     1      -8.584  12.919  67.483  1.00  0.00    -0.188 C  
HETATM   32  O   UNL     1      -9.042  13.979  66.660  1.00  0.00    -0.250 OA 
HETATM   33  C   UNL     1      -9.480  15.075  67.450  1.00  0.00    -0.201 C  
HETATM   34  H   UNL     1      -6.109  12.618  69.618  1.00  0.00     0.000 HD 
HETATM   35  C   UNL     1      -8.280  15.698  68.209  1.00  0.00    -0.142 C  
HETATM   36  O   UNL     1      -7.299  16.140  67.303  1.00  0.00    -0.153 OA 
HETATM   37  C   UNL     1      -7.684  14.621  69.139  1.00  0.00    -0.113 C  
HETATM   38  O   UNL     1      -6.865  12.338  69.117  1.00  0.00    -0.102 OA 
HETATM   39  H   UNL     1      -6.564  16.521  67.769  1.00  0.00     0.000 HD 
HETATM   40  O   UNL     1      -6.518  15.076  69.781  1.00  0.00    -0.140 OA 
HETATM   41  C   UNL     1      -7.350  13.376  68.300  1.00  0.00    -0.113 C  
HETATM   42  H   UNL     1      -6.151  14.413  70.353  1.00  0.00     0.000 HD 
BRANCH  33  43
HETATM   43  C   UNL     1     -10.165  16.086  66.518  1.00  0.00    -0.293 C  
HETATM   44  O   UNL     1      -9.532  17.337  66.570  1.00  0.00    -0.251 OA 
HETATM   45  H   UNL     1      -9.955  17.961  65.994  1.00  0.00     0.000 HD 
ENDBRANCH  33  43
ENDBRANCH  30  31
ENDBRANCH  29  30
BRANCH  29  46
HETATM   46  C   UNL     1     -10.621  11.469  66.632  1.00  0.00    -0.253 C  
HETATM   47  O   UNL     1     -11.327  10.545  67.427  1.00  0.00    -0.381 OA 
HETATM   48  H   UNL     1     -12.193  10.871  67.639  1.00  0.00     0.000 HD 
BRANCH  46  49
HETATM   49  C   UNL     1     -11.451  11.956  65.422  1.00  0.00    -0.251 C  
HETATM   50  H   UNL     1     -12.185  13.639  64.751  1.00  0.00     0.000 HD 
HETATM   51  O   UNL     1     -11.674  13.340  65.495  1.00  0.00    -0.321 OA 
ENDBRANCH  46  49
ENDBRANCH  29  46
ENDBRANCH  26  29
ENDBRANCH  23  26
ENDBRANCH  21  23
ENDBRANCH  20  21
ENDBRANCH  19  20
ENDBRANCH  18  19
ENDBRANCH  16  18
ENDBRANCH  13  16
ENDBRANCH  10  13
ENDBRANCH   7  10
ENDBRANCH   4   7
ENDBRANCH   2   4
TORSDOF 17
ENDMDL
MODEL      374
REMARK 921   NORMALIZED FREE ENERGY PREDICTED BY IDOCK:   -2.95 KCAL/MOL
REMARK 922        TOTAL FREE ENERGY PREDICTED BY IDOCK:   -9.33 KCAL/MOL
REMARK 923 INTER-LIGAND FREE ENERGY PREDICTED BY IDOCK:   -7.94 KCAL/MOL
REMARK 924 INTRA-LIGAND FREE ENERGY PREDICTED BY IDOCK:   -1.39 KCAL/MOL
REMARK 927      BINDING AFFINITY PREDICTED BY RF-SCORE:    0.00 PKD
ROOT
HETATM    1  O   UNL     1      -5.836   6.375  74.284  1.00  0.00    -0.060 OA 
HETATM    2  C   UNL     1      -7.207   6.095  74.371  1.00  0.00    -0.090 C  
HETATM    3  H   UNL     1      -5.409   6.137  75.099  1.00  0.00     0.000 HD 
ENDROOT
BRANCH   2   4
HETATM    4  C   UNL     1      -7.898   6.481  73.053  1.00  0.00    -0.104 C  
HETATM    5  O   UNL     1      -8.553   5.355  72.524  1.00  0.00    -0.118 OA 
HETATM    6  H   UNL     1      -8.980   5.594  71.709  1.00  0.00     0.000 HD 
BRANCH   4   7
HETATM    7  C   UNL     1      -8.926   7.625  73.262  1.00  0.00    -0.205 C  
HETATM    8  H   UNL     1      -9.287   9.373  72.491  1.00  0.00     0.000 HD 
HETATM    9  O   UNL     1      -8.658   8.673  72.363  1.00  0.00    -0.341 OA 
BRANCH   7  10
HETATM   10  C   UNL     1     -10.385   7.139  73.051  1.00  0.00    -0.271 C  
HETATM   11  H   UNL     1     -11.503   5.732  73.757  1.00  0.00     0.000 HD 
HETATM   12  O   UNL     1     -10.610   6.029  73.886  1.00  0.00    -0.268 OA 
BRANCH  10  13
HETATM   13  C   UNL     1     -10.697   6.737  71.584  1.00  0.00    -0.225 C  
HETATM   14  H   UNL     1     -11.808   5.430  70.673  1.00  0.00     0.000 HD 
HETATM   15  O   UNL     1     -11.616   5.675  71.571  1.00  0.00    -0.083 OA 
BRANCH  13  16
HETATM   16  C   UNL     1     -11.278   7.864  70.763  1.00  0.00    -0.266 C  
HETATM   17  O   UNL     1     -11.799   8.816  71.324  1.00  0.00    -0.284 OA 
BRANCH  16  18
HETATM   18  O   UNL     1     -11.243   7.835  69.416  1.00  0.00    -0.026 OA 
BRANCH  18  19
HETATM   19 CA   UNL     1      -9.217   8.508  68.275  1.00  0.00    -0.132 Ca 
BRANCH  19  20
HETATM   20  O   UNL     1      -7.192   9.179  67.134  1.00  0.00    -0.084 OA 
BRANCH  20  21
HETATM   21  C   UNL     1      -7.488  10.172  66.277  1.00  0.00    -0.112 C  
HETATM   22  O   UNL     1      -6.619  10.992  66.031  1.00  0.00    -0.111 OA 
BRANCH  21  23
HETATM   23  C   UNL     1      -8.893  10.387  65.761  1.00  0.00    -0.170 C  
HETATM   24  H   UNL     1      -9.960   9.712  64.300  1.00  0.00     0.000 HD 
HETATM   25  O   UNL     1      -9.077   9.578  64.625  1.00  0.00    -0.227 OA 
BRANCH  23  26
HETATM   26  C   UNL     1      -9.233  11.863  65.394  1.00  0.00     0.047 C  
HETATM   27  H   UNL     1     -10.193  12.787  63.985  1.00  0.00     0.000 HD 
HETATM   28  O   UNL     1      -9.986  11.887  64.208  1.00  0.00    -0.266 OA 
BRANCH  26  29
HETATM   29  C   UNL     1      -9.946  12.731  66.488  1.00  0.00    -0.253 C  
BRANCH  29  30
HETATM   30  O   UNL     1      -9.038  12.830  67.576  1.00  0.00    -0.177 OA 
BRANCH  30  31
HETATM   31  C   UNL     1      -9.167  13.983  68.382  1.00  0.00    -0.196 C  
HETATM   32  O   UNL     1     -10.406  13.961  69.071  1.00  0.00    -0.200 OA 
HETATM   33  C   UNL     1     -10.542  15.107  69.897  1.00  0.00    -0.235 C  
HETATM   34  H   UNL     1      -7.863  15.992  66.137  1.00  0.00     0.000 HD 
HETATM   35  C   UNL     1     -10.637  16.385  69.024  1.00  0.00    -0.308 C  
HETATM   36  O   UNL     1     -11.738  16.306  68.151  1.00  0.00    -0.192 OA 
HETATM   37  C   UNL     1      -9.334  16.511  68.208  1.00  0.00    -0.217 C  
HETATM   38  O   UNL     1      -7.897  15.244  66.721  1.00  0.00    -0.176 OA 
HETATM   39  H   UNL     1     -11.796  17.089  67.616  1.00  0.00     0.000 HD 
HETATM   40  O   UNL     1      -9.390  17.588  67.304  1.00  0.00    -0.239 OA 
HETATM   41  C   UNL     1      -9.112  15.204  67.429  1.00  0.00    -0.191 C  
HETATM   42  H   UNL     1      -8.587  17.665  66.802  1.00  0.00     0.000 HD 
BRANCH  33  43
HETATM   43  C   UNL     1     -11.788  14.912  70.776  1.00  0.00    -0.312 C  
HETATM   44  O   UNL     1     -12.843  14.345  70.047  1.00  0.00    -0.508 OA 
HETATM   45  H   UNL     1     -13.612  14.224  70.590  1.00  0.00     0.000 HD 
ENDBRANCH  33  43
ENDBRANCH  30  31
ENDBRANCH  29  30
BRANCH  29  46
HETATM   46  C   UNL     1     -11.362  12.232  66.944  1.00  0.00    -0.333 C  
HETATM   47  O   UNL     1     -12.220  13.318  67.204  1.00  0.00    -0.335 OA 
HETATM   48  H   UNL     1     -13.077  13.017  67.480  1.00  0.00     0.000 HD 
BRANCH  46  49
HETATM   49  C   UNL     1     -11.353  11.204  68.099  1.00  0.00    -0.309 C  
HETATM   50  H   UNL     1     -12.425  10.794  69.682  1.00  0.00     0.000 HD 
HETATM   51  O   UNL     1     -12.430  11.425  68.972  1.00  0.00    -0.364 OA 
ENDBRANCH  46  49
ENDBRANCH  29  46
ENDBRANCH  26  29
ENDBRANCH  23  26
ENDBRANCH  21  23
ENDBRANCH  20  21
ENDBRANCH  19  20
ENDBRANCH  18  19
ENDBRANCH  16  18
ENDBRANCH  13  16
ENDBRANCH  10  13
ENDBRANCH   7  10
ENDBRANCH   4   7
ENDBRANCH   2   4
TORSDOF 17
ENDMDL
MODEL      375
REMARK 921   NORMALIZED FREE ENERGY PREDICTED BY IDOCK:   -2.94 KCAL/MOL
REMARK 922        TOTAL FREE ENERGY PREDICTED BY IDOCK:   -9.31 KCAL/MOL
REMARK 923 INTER-LIGAND FREE ENERGY PREDICTED BY IDOCK:   -6.60 KCAL/MOL
REMARK 924 INTRA-LIGAND FREE ENERGY PREDICTED BY IDOCK:   -2.71 KCAL/MOL
REMARK 927      BINDING AFFINITY PREDICTED BY RF-SCORE:    0.00 PKD
ROOT
HETATM    1  O   UNL     1      -9.492  18.016  65.820  1.00  0.00    -0.495 OA 
HETATM    2  C   UNL     1     -10.333  18.478  66.842  1.00  0.00    -0.397 C  
HETATM    3  H   UNL     1      -9.731  18.430  64.998  1.00  0.00     0.000 HD 
ENDROOT
BRANCH   2   4
HETATM    4  C   UNL     1      -9.946  17.809  68.172  1.00  0.00    -0.342 C  
HETATM    5  O   UNL     1     -10.530  18.518  69.236  1.00  0.00    -0.423 OA 
HETATM    6  H   UNL     1     -10.292  18.104  70.057  1.00  0.00     0.000 HD 
BRANCH   4   7
HETATM    7  C   UNL     1     -10.409  16.329  68.221  1.00  0.00    -0.272 C  
HETATM    8  H   UNL     1     -11.641  15.189  67.240  1.00  0.00     0.000 HD 
HETATM    9  O   UNL     1     -11.358  16.096  67.209  1.00  0.00    -0.084 OA 
BRANCH   7  10
HETATM   10  C   UNL     1      -9.223  15.344  68.037  1.00  0.00    -0.184 C  
HETATM   11  H   UNL     1      -8.747  13.593  68.699  1.00  0.00     0.000 HD 
HETATM   12  O   UNL     1      -9.473  14.196  68.811  1.00  0.00    -0.186 OA 
BRANCH  10  13
HETATM   13  C   UNL     1      -7.851  15.943  68.454  1.00  0.00    -0.145 C  
HETATM   14  H   UNL     1      -6.507  15.605  69.815  1.00  0.00     0.000 HD 
HETATM   15  O   UNL     1      -7.346  15.239  69.560  1.00  0.00    -0.190 OA 
BRANCH  13  16
HETATM   16  C   UNL     1      -6.815  15.890  67.357  1.00  0.00    -0.194 C  
HETATM   17  O   UNL     1      -6.834  16.724  66.465  1.00  0.00    -0.220 OA 
BRANCH  16  18
HETATM   18  O   UNL     1      -5.871  14.928  67.336  1.00  0.00    -0.341 OA 
BRANCH  18  19
HETATM   19 CA   UNL     1      -6.554  12.608  67.245  1.00  0.00    -0.090 Ca 
BRANCH  19  20
HETATM   20  O   UNL     1      -7.237  10.289  67.153  1.00  0.00    -0.088 OA 
BRANCH  20  21
HETATM   21  C   UNL     1      -8.576  10.237  67.052  1.00  0.00    -0.129 C  
HETATM   22  O   UNL     1      -9.221  11.154  67.531  1.00  0.00    -0.151 OA 
BRANCH  21  23
HETATM   23  C   UNL     1      -9.289   9.012  66.524  1.00  0.00    -0.191 C  
HETATM   24  H   UNL     1     -10.460   8.610  65.042  1.00  0.00     0.000 HD 
HETATM   25  O   UNL     1     -10.012   9.379  65.374  1.00  0.00    -0.235 OA 
BRANCH  23  26
HETATM   26  C   UNL     1     -10.259   8.335  67.539  1.00  0.00    -0.243 C  
HETATM   27  H   UNL     1     -11.710   7.050  67.471  1.00  0.00     0.000 HD 
HETATM   28  O   UNL     1     -11.119   7.463  66.852  1.00  0.00    -0.236 OA 
BRANCH  26  29
HETATM   29  C   UNL     1      -9.617   7.588  68.759  1.00  0.00    -0.149 C  
BRANCH  29  30
HETATM   30  O   UNL     1      -9.850   6.203  68.550  1.00  0.00    -0.130 OA 
BRANCH  30  31
HETATM   31  C   UNL     1      -8.717   5.365  68.658  1.00  0.00    -0.097 C  
HETATM   32  O   UNL     1      -8.048   5.606  69.884  1.00  0.00    -0.092 OA 
HETATM   33  C   UNL     1      -6.916   4.759  70.013  1.00  0.00    -0.049 C  
HETATM   34  H   UNL     1      -7.861   5.709  65.507  1.00  0.00     0.000 HD 
HETATM   35  C   UNL     1      -5.854   5.123  68.943  1.00  0.00    -0.020 C  
HETATM   36  O   UNL     1      -5.451   6.464  69.084  1.00  0.00    -0.011 OA 
HETATM   37  C   UNL     1      -6.479   4.910  67.549  1.00  0.00    -0.045 C  
HETATM   38  O   UNL     1      -8.431   5.496  66.236  1.00  0.00    -0.117 OA 
HETATM   39  H   UNL     1      -4.800   6.686  68.428  1.00  0.00     0.000 HD 
HETATM   40  O   UNL     1      -5.612   5.327  66.522  1.00  0.00    -0.016 OA 
HETATM   41  C   UNL     1      -7.787   5.713  67.468  1.00  0.00    -0.101 C  
HETATM   42  H   UNL     1      -5.997   5.196  65.664  1.00  0.00     0.000 HD 
BRANCH  33  43
HETATM   43  C   UNL     1      -6.373   4.908  71.443  1.00  0.00    -0.026 C  
HETATM   44  O   UNL     1      -6.994   5.971  72.115  1.00  0.00    -0.074 OA 
HETATM   45  H   UNL     1      -6.660   6.063  72.999  1.00  0.00     0.000 HD 
ENDBRANCH  33  43
ENDBRANCH  30  31
ENDBRANCH  29  30
BRANCH  29  46
HETATM   46  C   UNL     1     -10.092   8.058  70.179  1.00  0.00    -0.194 C  
HETATM   47  O   UNL     1      -8.998   8.205  71.055  1.00  0.00    -0.141 OA 
HETATM   48  H   UNL     1      -9.285   8.489  71.914  1.00  0.00     0.000 HD 
BRANCH  46  49
HETATM   49  C   UNL     1     -11.230   7.216  70.801  1.00  0.00    -0.279 C  
HETATM   50  H   UNL     1     -11.417   5.776  72.109  1.00  0.00     0.000 HD 
HETATM   51  O   UNL     1     -10.718   6.294  71.728  1.00  0.00    -0.222 OA 
ENDBRANCH  46  49
ENDBRANCH  29  46
ENDBRANCH  26  29
ENDBRANCH  23  26
ENDBRANCH  21  23
ENDBRANCH  20  21
ENDBRANCH  19  20
ENDBRANCH  18  19
ENDBRANCH  16  18
ENDBRANCH  13  16
ENDBRANCH  10  13
ENDBRANCH   7  10
ENDBRANCH   4   7
ENDBRANCH   2   4
TORSDOF 17
ENDMDL
MODEL      376
REMARK 921   NORMALIZED FREE ENERGY PREDICTED BY IDOCK:   -2.94 KCAL/MOL
REMARK 922        TOTAL FREE ENERGY PREDICTED BY IDOCK:   -9.31 KCAL/MOL
REMARK 923 INTER-LIGAND FREE ENERGY PREDICTED BY IDOCK:   -8.41 KCAL/MOL
REMARK 924 INTRA-LIGAND FREE ENERGY PREDICTED BY IDOCK:   -0.89 KCAL/MOL
REMARK 927      BINDING AFFINITY PREDICTED BY RF-SCORE:    0.00 PKD
ROOT
HETATM    1  O   UNL     1      -9.455  20.180  66.123  1.00  0.00    -0.533 OA 
HETATM    2  C   UNL     1      -8.943  20.539  67.378  1.00  0.00    -0.297 C  
HETATM    3  H   UNL     1      -9.250  20.857  65.489  1.00  0.00     0.000 HD 
ENDROOT
BRANCH   2   4
HETATM    4  C   UNL     1      -9.273  19.442  68.405  1.00  0.00    -0.359 C  
HETATM    5  O   UNL     1     -10.456  19.783  69.084  1.00  0.00    -0.592 OA 
HETATM    6  H   UNL     1     -10.660  19.106  69.718  1.00  0.00     0.000 HD 
BRANCH   4   7
HETATM    7  C   UNL     1      -9.449  18.058  67.724  1.00  0.00    -0.264 C  
HETATM    8  H   UNL     1      -8.329  16.791  66.765  1.00  0.00     0.000 HD 
HETATM    9  O   UNL     1      -8.221  17.638  67.182  1.00  0.00    -0.205 OA 
BRANCH   7  10
HETATM   10  C   UNL     1      -9.955  16.982  68.721  1.00  0.00    -0.293 C  
HETATM   11  H   UNL     1      -9.169  15.535  69.731  1.00  0.00     0.000 HD 
HETATM   12  O   UNL     1      -8.859  16.194  69.121  1.00  0.00    -0.246 OA 
BRANCH  10  13
HETATM   13  C   UNL     1     -11.051  16.055  68.127  1.00  0.00    -0.344 C  
HETATM   14  H   UNL     1     -11.514  15.337  66.383  1.00  0.00     0.000 HD 
HETATM   15  O   UNL     1     -10.844  15.905  66.746  1.00  0.00    -0.309 OA 
BRANCH  13  16
HETATM   16  C   UNL     1     -11.071  14.677  68.746  1.00  0.00    -0.260 C  
HETATM   17  O   UNL     1     -10.857  13.697  68.049  1.00  0.00    -0.237 OA 
BRANCH  16  18
HETATM   18  O   UNL     1     -11.334  14.506  70.057  1.00  0.00    -0.259 OA 
BRANCH  18  19
HETATM   19 CA   UNL     1     -11.559  12.261  70.931  1.00  0.00    -0.415 Ca 
BRANCH  19  20
HETATM   20  O   UNL     1     -11.784  10.016  71.806  1.00  0.00    -0.293 OA 
BRANCH  20  21
HETATM   21  C   UNL     1     -11.179   9.161  70.962  1.00  0.00    -0.312 C  
HETATM   22  O   UNL     1     -11.731   8.919  69.902  1.00  0.00     0.095 OA 
BRANCH  21  23
HETATM   23  C   UNL     1      -9.948   8.381  71.365  1.00  0.00    -0.213 C  
HETATM   24  H   UNL     1      -8.868   8.203  72.955  1.00  0.00     0.000 HD 
HETATM   25  O   UNL     1      -9.641   8.693  72.702  1.00  0.00    -0.254 OA 
BRANCH  23  26
HETATM   26  C   UNL     1      -8.692   8.644  70.480  1.00  0.00    -0.162 C  
HETATM   27  H   UNL     1      -7.044   9.656  70.626  1.00  0.00     0.000 HD 
HETATM   28  O   UNL     1      -7.810   9.495  71.166  1.00  0.00    -0.326 OA 
BRANCH  26  29
HETATM   29  C   UNL     1      -7.911   7.393  69.949  1.00  0.00    -0.115 C  
BRANCH  29  30
HETATM   30  O   UNL     1      -6.819   7.894  69.191  1.00  0.00    -0.050 OA 
BRANCH  30  31
HETATM   31  C   UNL     1      -7.157   8.561  67.992  1.00  0.00    -0.086 C  
HETATM   32  O   UNL     1      -8.510   8.983  68.034  1.00  0.00    -0.123 OA 
HETATM   33  C   UNL     1      -8.859   9.669  66.841  1.00  0.00    -0.131 C  
HETATM   34  H   UNL     1      -5.494   6.475  66.079  1.00  0.00     0.000 HD 
HETATM   35  C   UNL     1      -8.820   8.694  65.635  1.00  0.00    -0.187 C  
HETATM   36  O   UNL     1      -9.712   7.625  65.835  1.00  0.00    -0.427 OA 
HETATM   37  C   UNL     1      -7.382   8.154  65.495  1.00  0.00    -0.072 C  
HETATM   38  O   UNL     1      -5.620   7.098  66.784  1.00  0.00    -0.021 OA 
HETATM   39  H   UNL     1      -9.688   7.028  65.096  1.00  0.00     0.000 HD 
HETATM   40  O   UNL     1      -7.290   7.174  64.491  1.00  0.00    -0.069 OA 
HETATM   41  C   UNL     1      -6.953   7.545  66.841  1.00  0.00    -0.079 C  
HETATM   42  H   UNL     1      -6.405   6.842  64.405  1.00  0.00     0.000 HD 
BRANCH  33  43
HETATM   43  C   UNL     1     -10.251  10.288  67.041  1.00  0.00    -0.228 C  
HETATM   44  O   UNL     1     -10.361  10.899  68.298  1.00  0.00    -0.162 OA 
HETATM   45  H   UNL     1     -11.221  11.283  68.421  1.00  0.00     0.000 HD 
ENDBRANCH  33  43
ENDBRANCH  30  31
ENDBRANCH  29  30
BRANCH  29  46
HETATM   46  C   UNL     1      -8.757   6.346  69.143  1.00  0.00    -0.127 C  
HETATM   47  O   UNL     1     -10.018   6.872  68.801  1.00  0.00    -0.147 OA 
HETATM   48  H   UNL     1     -10.530   6.239  68.313  1.00  0.00     0.000 HD 
BRANCH  46  49
HETATM   49  C   UNL     1      -8.864   4.949  69.797  1.00  0.00    -0.097 C  
HETATM   50  H   UNL     1     -10.274   3.719  70.365  1.00  0.00     0.000 HD 
HETATM   51  O   UNL     1     -10.208   4.578  69.963  1.00  0.00    -0.210 OA 
ENDBRANCH  46  49
ENDBRANCH  29  46
ENDBRANCH  26  29
ENDBRANCH  23  26
ENDBRANCH  21  23
ENDBRANCH  20  21
ENDBRANCH  19  20
ENDBRANCH  18  19
ENDBRANCH  16  18
ENDBRANCH  13  16
ENDBRANCH  10  13
ENDBRANCH   7  10
ENDBRANCH   4   7
ENDBRANCH   2   4
TORSDOF 17
ENDMDL
MODEL      377
REMARK 921   NORMALIZED FREE ENERGY PREDICTED BY IDOCK:   -2.92 KCAL/MOL
REMARK 922        TOTAL FREE ENERGY PREDICTED BY IDOCK:   -9.27 KCAL/MOL
REMARK 923 INTER-LIGAND FREE ENERGY PREDICTED BY IDOCK:   -9.15 KCAL/MOL
REMARK 924 INTRA-LIGAND FREE ENERGY PREDICTED BY IDOCK:   -0.12 KCAL/MOL
REMARK 927      BINDING AFFINITY PREDICTED BY RF-SCORE:    0.00 PKD
ROOT
HETATM    1  O   UNL     1     -13.085  10.481  71.365  1.00  0.00    -0.389 OA 
HETATM    2  C   UNL     1     -11.889   9.788  71.599  1.00  0.00    -0.354 C  
HETATM    3  H   UNL     1     -12.909  11.414  71.315  1.00  0.00     0.000 HD 
ENDROOT
BRANCH   2   4
HETATM    4  C   UNL     1     -12.174   8.279  71.680  1.00  0.00    -0.313 C  
HETATM    5  O   UNL     1     -13.340   7.986  70.951  1.00  0.00    -0.522 OA 
HETATM    6  H   UNL     1     -13.515   7.054  71.001  1.00  0.00     0.000 HD 
BRANCH   4   7
HETATM    7  C   UNL     1     -10.991   7.445  71.120  1.00  0.00    -0.246 C  
HETATM    8  H   UNL     1      -9.092   7.245  71.484  1.00  0.00     0.000 HD 
HETATM    9  O   UNL     1      -9.816   7.755  71.828  1.00  0.00    -0.162 OA 
BRANCH   7  10
HETATM   10  C   UNL     1     -11.256   5.919  71.225  1.00  0.00    -0.211 C  
HETATM   11  H   UNL     1     -12.184   4.744  72.445  1.00  0.00     0.000 HD 
HETATM   12  O   UNL     1     -12.022   5.678  72.381  1.00  0.00    -0.235 OA 
BRANCH  10  13
HETATM   13  C   UNL     1      -9.957   5.069  71.296  1.00  0.00    -0.197 C  
HETATM   14  H   UNL     1      -9.416   3.358  72.038  1.00  0.00     0.000 HD 
HETATM   15  O   UNL     1     -10.210   3.878  71.995  1.00  0.00    -0.169 OA 
BRANCH  13  16
HETATM   16  C   UNL     1      -9.404   4.703  69.939  1.00  0.00    -0.144 C  
HETATM   17  O   UNL     1      -8.317   4.152  69.857  1.00  0.00    -0.061 OA 
BRANCH  16  18
HETATM   18  O   UNL     1     -10.086   4.984  68.810  1.00  0.00    -0.170 OA 
BRANCH  18  19
HETATM   19 CA   UNL     1      -9.774   7.136  67.749  1.00  0.00    -0.132 Ca 
BRANCH  19  20
HETATM   20  O   UNL     1      -9.460   9.289  66.689  1.00  0.00    -0.166 OA 
BRANCH  20  21
HETATM   21  C   UNL     1      -8.983  10.154  67.600  1.00  0.00    -0.131 C  
HETATM   22  O   UNL     1      -7.832  10.008  67.977  1.00  0.00    -0.089 OA 
BRANCH  21  23
HETATM   23  C   UNL     1      -9.874  11.169  68.278  1.00  0.00    -0.189 C  
HETATM   24  H   UNL     1     -10.991  11.214  69.852  1.00  0.00     0.000 HD 
HETATM   25  O   UNL     1     -10.432  10.576  69.425  1.00  0.00    -0.218 OA 
BRANCH  23  26
HETATM   26  C   UNL     1     -11.023  11.726  67.385  1.00  0.00    -0.262 C  
HETATM   27  H   UNL     1     -12.717  12.630  67.656  1.00  0.00     0.000 HD 
HETATM   28  O   UNL     1     -12.017  12.291  68.201  1.00  0.00    -0.386 OA 
BRANCH  26  29
HETATM   29  C   UNL     1     -10.630  12.742  66.257  1.00  0.00    -0.257 C  
BRANCH  29  30
HETATM   30  O   UNL     1     -11.165  13.999  66.644  1.00  0.00    -0.310 OA 
BRANCH  30  31
HETATM   31  C   UNL     1     -10.292  14.842  67.369  1.00  0.00    -0.243 C  
HETATM   32  O   UNL     1     -10.783  16.172  67.364  1.00  0.00    -0.312 OA 
HETATM   33  C   UNL     1      -9.923  17.028  68.102  1.00  0.00    -0.287 C  
HETATM   34  H   UNL     1      -7.568  13.431  66.198  1.00  0.00     0.000 HD 
HETATM   35  C   UNL     1      -8.550  17.146  67.390  1.00  0.00    -0.203 C  
HETATM   36  O   UNL     1      -8.711  17.657  66.089  1.00  0.00    -0.445 OA 
HETATM   37  C   UNL     1      -7.917  15.740  67.323  1.00  0.00    -0.186 C  
HETATM   38  O   UNL     1      -8.411  13.469  66.634  1.00  0.00    -0.038 OA 
HETATM   39  H   UNL     1      -7.869  17.729  65.653  1.00  0.00     0.000 HD 
HETATM   40  O   UNL     1      -6.717  15.746  66.589  1.00  0.00    -0.157 OA 
HETATM   41  C   UNL     1      -8.917  14.781  66.657  1.00  0.00    -0.255 C  
HETATM   42  H   UNL     1      -6.327  14.880  66.549  1.00  0.00     0.000 HD 
BRANCH  33  43
HETATM   43  C   UNL     1     -10.620  18.389  68.247  1.00  0.00    -0.209 C  
HETATM   44  O   UNL     1      -9.696  19.443  68.192  1.00  0.00    -0.338 OA 
HETATM   45  H   UNL     1     -10.126  20.284  68.281  1.00  0.00     0.000 HD 
ENDBRANCH  33  43
ENDBRANCH  30  31
ENDBRANCH  29  30
BRANCH  29  46
HETATM   46  C   UNL     1     -11.053  12.346  64.798  1.00  0.00    -0.304 C  
HETATM   47  O   UNL     1     -12.388  11.897  64.764  1.00  0.00    -0.279 OA 
HETATM   48  H   UNL     1     -12.644  11.657  63.882  1.00  0.00     0.000 HD 
BRANCH  46  49
HETATM   49  C   UNL     1     -10.090  11.373  64.079  1.00  0.00    -0.320 C  
HETATM   50  H   UNL     1      -8.764  11.443  62.645  1.00  0.00     0.000 HD 
HETATM   51  O   UNL     1      -9.355  12.041  63.087  1.00  0.00    -0.268 OA 
ENDBRANCH  46  49
ENDBRANCH  29  46
ENDBRANCH  26  29
ENDBRANCH  23  26
ENDBRANCH  21  23
ENDBRANCH  20  21
ENDBRANCH  19  20
ENDBRANCH  18  19
ENDBRANCH  16  18
ENDBRANCH  13  16
ENDBRANCH  10  13
ENDBRANCH   7  10
ENDBRANCH   4   7
ENDBRANCH   2   4
TORSDOF 17
ENDMDL
MODEL      378
REMARK 921   NORMALIZED FREE ENERGY PREDICTED BY IDOCK:   -2.89 KCAL/MOL
REMARK 922        TOTAL FREE ENERGY PREDICTED BY IDOCK:   -9.20 KCAL/MOL
REMARK 923 INTER-LIGAND FREE ENERGY PREDICTED BY IDOCK:   -9.31 KCAL/MOL
REMARK 924 INTRA-LIGAND FREE ENERGY PREDICTED BY IDOCK:    0.11 KCAL/MOL
REMARK 927      BINDING AFFINITY PREDICTED BY RF-SCORE:    0.00 PKD
ROOT
HETATM    1  O   UNL     1     -12.076   7.692  70.089  1.00  0.00    -0.430 OA 
HETATM    2  C   UNL     1     -11.354   6.500  70.236  1.00  0.00    -0.395 C  
HETATM    3  H   UNL     1     -13.007   7.513  70.156  1.00  0.00     0.000 HD 
ENDROOT
BRANCH   2   4
HETATM    4  C   UNL     1      -9.847   6.791  70.128  1.00  0.00    -0.177 C  
HETATM    5  O   UNL     1      -9.631   8.174  70.260  1.00  0.00    -0.169 OA 
HETATM    6  H   UNL     1      -8.700   8.354  70.193  1.00  0.00     0.000 HD 
BRANCH   4   7
HETATM    7  C   UNL     1      -9.041   6.035  71.216  1.00  0.00    -0.143 C  
HETATM    8  H   UNL     1      -9.269   4.443  72.309  1.00  0.00     0.000 HD 
HETATM    9  O   UNL     1      -9.763   4.906  71.642  1.00  0.00    -0.158 OA 
BRANCH   7  10
HETATM   10  C   UNL     1      -7.651   5.579  70.697  1.00  0.00    -0.089 C  
HETATM   11  H   UNL     1      -6.385   6.194  69.374  1.00  0.00     0.000 HD 
HETATM   12  O   UNL     1      -7.236   6.473  69.692  1.00  0.00    -0.073 OA 
BRANCH  10  13
HETATM   13  C   UNL     1      -7.650   4.137  70.118  1.00  0.00    -0.045 C  
HETATM   14  H   UNL     1      -8.010   2.343  70.769  1.00  0.00     0.000 HD 
HETATM   15  O   UNL     1      -8.011   3.225  71.123  1.00  0.00    -0.056 OA 
BRANCH  13  16
HETATM   16  C   UNL     1      -8.603   3.954  68.961  1.00  0.00    -0.080 C  
HETATM   17  O   UNL     1      -9.600   3.263  69.102  1.00  0.00    -0.157 OA 
BRANCH  16  18
HETATM   18  O   UNL     1      -8.366   4.531  67.766  1.00  0.00    -0.099 OA 
BRANCH  18  19
HETATM   19 CA   UNL     1      -8.415   6.945  67.593  1.00  0.00    -0.112 Ca 
BRANCH  19  20
HETATM   20  O   UNL     1      -8.464   9.358  67.419  1.00  0.00    -0.124 OA 
BRANCH  20  21
HETATM   21  C   UNL     1      -9.716   9.743  67.115  1.00  0.00    -0.176 C  
HETATM   22  O   UNL     1     -10.259   9.216  66.160  1.00  0.00    -0.272 OA 
BRANCH  21  23
HETATM   23  C   UNL     1     -10.380  10.911  67.809  1.00  0.00    -0.187 C  
HETATM   24  H   UNL     1     -12.161  11.650  67.898  1.00  0.00     0.000 HD 
HETATM   25  O   UNL     1     -11.744  10.917  67.462  1.00  0.00    -0.543 OA 
BRANCH  23  26
HETATM   26  C   UNL     1      -9.765  12.303  67.473  1.00  0.00    -0.190 C  
HETATM   27  H   UNL     1      -8.042  13.173  67.664  1.00  0.00     0.000 HD 
HETATM   28  O   UNL     1      -8.417  12.325  67.870  1.00  0.00    -0.146 OA 
BRANCH  26  29
HETATM   29  C   UNL     1      -9.885  12.805  65.992  1.00  0.00    -0.255 C  
BRANCH  29  30
HETATM   30  O   UNL     1      -9.678  14.210  66.027  1.00  0.00    -0.301 OA 
BRANCH  30  31
HETATM   31  C   UNL     1      -9.562  14.784  67.313  1.00  0.00    -0.223 C  
HETATM   32  O   UNL     1     -10.848  15.023  67.858  1.00  0.00    -0.265 OA 
HETATM   33  C   UNL     1     -10.746  15.585  69.158  1.00  0.00    -0.250 C  
HETATM   34  H   UNL     1      -7.058  16.736  66.480  1.00  0.00     0.000 HD 
HETATM   35  C   UNL     1     -10.117  17.001  69.078  1.00  0.00    -0.290 C  
HETATM   36  O   UNL     1     -10.899  17.843  68.266  1.00  0.00    -0.289 OA 
HETATM   37  C   UNL     1      -8.701  16.868  68.480  1.00  0.00    -0.251 C  
HETATM   38  O   UNL     1      -7.524  15.916  66.586  1.00  0.00    -0.197 OA 
HETATM   39  H   UNL     1     -10.513  18.710  68.218  1.00  0.00     0.000 HD 
HETATM   40  O   UNL     1      -8.107  18.126  68.270  1.00  0.00    -0.278 OA 
HETATM   41  C   UNL     1      -8.801  16.122  67.139  1.00  0.00    -0.198 C  
HETATM   42  H   UNL     1      -7.235  18.044  67.902  1.00  0.00     0.000 HD 
BRANCH  33  43
HETATM   43  C   UNL     1     -12.153  15.610  69.775  1.00  0.00    -0.326 C  
HETATM   44  O   UNL     1     -12.887  14.469  69.417  1.00  0.00    -0.509 OA 
HETATM   45  H   UNL     1     -13.755  14.484  69.799  1.00  0.00     0.000 HD 
ENDBRANCH  33  43
ENDBRANCH  30  31
ENDBRANCH  29  30
BRANCH  29  46
HETATM   46  C   UNL     1     -11.210  12.422  65.244  1.00  0.00    -0.318 C  
HETATM   47  O   UNL     1     -10.999  11.342  64.364  1.00  0.00    -0.341 OA 
HETATM   48  H   UNL     1     -11.800  11.111  63.911  1.00  0.00     0.000 HD 
BRANCH  46  49
HETATM   49  C   UNL     1     -11.939  13.601  64.558  1.00  0.00    -0.418 C  
HETATM   50  H   UNL     1     -13.593  14.616  64.794  1.00  0.00     0.000 HD 
HETATM   51  O   UNL     1     -13.145  13.891  65.216  1.00  0.00    -0.777 OA 
ENDBRANCH  46  49
ENDBRANCH  29  46
ENDBRANCH  26  29
ENDBRANCH  23  26
ENDBRANCH  21  23
ENDBRANCH  20  21
ENDBRANCH  19  20
ENDBRANCH  18  19
ENDBRANCH  16  18
ENDBRANCH  13  16
ENDBRANCH  10  13
ENDBRANCH   7  10
ENDBRANCH   4   7
ENDBRANCH   2   4
TORSDOF 17
ENDMDL
MODEL      379
REMARK 921   NORMALIZED FREE ENERGY PREDICTED BY IDOCK:   -2.85 KCAL/MOL
REMARK 922        TOTAL FREE ENERGY PREDICTED BY IDOCK:   -9.13 KCAL/MOL
REMARK 923 INTER-LIGAND FREE ENERGY PREDICTED BY IDOCK:   -9.46 KCAL/MOL
REMARK 924 INTRA-LIGAND FREE ENERGY PREDICTED BY IDOCK:    0.33 KCAL/MOL
REMARK 927      BINDING AFFINITY PREDICTED BY RF-SCORE:    0.00 PKD
ROOT
HETATM    1  O   UNL     1      -7.101  15.634  67.159  1.00  0.00    -0.205 OA 
HETATM    2  C   UNL     1      -7.651  16.091  68.364  1.00  0.00    -0.145 C  
HETATM    3  H   UNL     1      -6.760  14.755  67.276  1.00  0.00     0.000 HD 
ENDROOT
BRANCH   2   4
HETATM    4  C   UNL     1      -8.202  17.515  68.174  1.00  0.00    -0.251 C  
HETATM    5  O   UNL     1      -7.576  18.381  69.087  1.00  0.00    -0.210 OA 
HETATM    6  H   UNL     1      -7.917  19.260  68.970  1.00  0.00     0.000 HD 
BRANCH   4   7
HETATM    7  C   UNL     1      -7.967  18.029  66.729  1.00  0.00    -0.237 C  
HETATM    8  H   UNL     1      -8.885  17.936  65.018  1.00  0.00     0.000 HD 
HETATM    9  O   UNL     1      -9.030  17.621  65.903  1.00  0.00    -0.519 OA 
BRANCH   7  10
HETATM   10  C   UNL     1      -7.852  19.576  66.676  1.00  0.00    -0.283 C  
HETATM   11  H   UNL     1      -7.086  20.958  67.787  1.00  0.00     0.000 HD 
HETATM   12  O   UNL     1      -7.157  20.011  67.820  1.00  0.00    -0.262 OA 
BRANCH  10  13
HETATM   13  C   UNL     1      -9.227  20.297  66.619  1.00  0.00    -0.304 C  
HETATM   14  H   UNL     1     -10.708  20.439  65.370  1.00  0.00     0.000 HD 
HETATM   15  O   UNL     1      -9.867  19.998  65.405  1.00  0.00    -0.250 OA 
BRANCH  13  16
HETATM   16  C   UNL     1     -10.157  19.906  67.743  1.00  0.00    -0.429 C  
HETATM   17  O   UNL     1      -9.891  20.231  68.890  1.00  0.00    -0.139 OA 
BRANCH  16  18
HETATM   18  O   UNL     1     -11.276  19.192  67.505  1.00  0.00    -0.293 OA 
BRANCH  18  19
HETATM   19 CA   UNL     1     -11.264  16.808  67.926  1.00  0.00    -0.314 Ca 
BRANCH  19  20
HETATM   20  O   UNL     1     -11.254  14.426  68.348  1.00  0.00    -0.252 OA 
BRANCH  20  21
HETATM   21  C   UNL     1     -11.182  13.779  67.172  1.00  0.00    -0.311 C  
HETATM   22  O   UNL     1     -11.013  14.445  66.165  1.00  0.00    -0.310 OA 
BRANCH  21  23
HETATM   23  C   UNL     1     -11.474  12.300  67.057  1.00  0.00    -0.354 C  
HETATM   24  H   UNL     1     -12.665  11.043  67.910  1.00  0.00     0.000 HD 
HETATM   25  O   UNL     1     -12.482  11.972  67.982  1.00  0.00    -0.119 OA 
BRANCH  23  26
HETATM   26  C   UNL     1     -10.243  11.374  67.296  1.00  0.00    -0.199 C  
HETATM   27  H   UNL     1      -9.497  10.364  68.774  1.00  0.00     0.000 HD 
HETATM   28  O   UNL     1     -10.247  10.929  68.629  1.00  0.00    -0.173 OA 
BRANCH  26  29
HETATM   29  C   UNL     1     -10.066  10.149  66.334  1.00  0.00    -0.236 C  
BRANCH  29  30
HETATM   30  O   UNL     1      -9.259   9.208  67.026  1.00  0.00    -0.130 OA 
BRANCH  30  31
HETATM   31  C   UNL     1      -9.776   7.895  67.107  1.00  0.00    -0.191 C  
HETATM   32  O   UNL     1     -10.193   7.617  68.433  1.00  0.00    -0.188 OA 
HETATM   33  C   UNL     1     -10.730   6.306  68.526  1.00  0.00    -0.292 C  
HETATM   34  H   UNL     1      -7.484   6.610  65.139  1.00  0.00     0.000 HD 
HETATM   35  C   UNL     1      -9.618   5.255  68.268  1.00  0.00    -0.130 C  
HETATM   36  O   UNL     1      -8.576   5.399  69.202  1.00  0.00    -0.101 OA 
HETATM   37  C   UNL     1      -9.072   5.470  66.841  1.00  0.00    -0.115 C  
HETATM   38  O   UNL     1      -8.186   7.198  65.389  1.00  0.00    -0.131 OA 
HETATM   39  H   UNL     1      -7.896   4.756  69.044  1.00  0.00     0.000 HD 
HETATM   40  O   UNL     1      -7.979   4.626  66.571  1.00  0.00    -0.101 OA 
HETATM   41  C   UNL     1      -8.630   6.935  66.698  1.00  0.00    -0.124 C  
HETATM   42  H   UNL     1      -7.643   4.758  65.693  1.00  0.00     0.000 HD 
BRANCH  33  43
HETATM   43  C   UNL     1     -11.362   6.150  69.918  1.00  0.00    -0.384 C  
HETATM   44  O   UNL     1     -11.769   7.389  70.434  1.00  0.00    -0.445 OA 
HETATM   45  H   UNL     1     -12.160   7.293  71.293  1.00  0.00     0.000 HD 
ENDBRANCH  33  43
ENDBRANCH  30  31
ENDBRANCH  29  30
BRANCH  29  46
HETATM   46  C   UNL     1      -9.501  10.474  64.906  1.00  0.00    -0.252 C  
HETATM   47  O   UNL     1      -8.159  10.894  64.978  1.00  0.00    -0.358 OA 
HETATM   48  H   UNL     1      -7.817  11.091  64.114  1.00  0.00     0.000 HD 
BRANCH  46  49
HETATM   49  C   UNL     1     -10.371  11.434  64.061  1.00  0.00    -0.362 C  
HETATM   50  H   UNL     1     -10.247  12.376  62.353  1.00  0.00     0.000 HD 
HETATM   51  O   UNL     1      -9.713  11.786  62.872  1.00  0.00    -0.357 OA 
ENDBRANCH  46  49
ENDBRANCH  29  46
ENDBRANCH  26  29
ENDBRANCH  23  26
ENDBRANCH  21  23
ENDBRANCH  20  21
ENDBRANCH  19  20
ENDBRANCH  18  19
ENDBRANCH  16  18
ENDBRANCH  13  16
ENDBRANCH  10  13
ENDBRANCH   7  10
ENDBRANCH   4   7
ENDBRANCH   2   4
TORSDOF 17
ENDMDL
MODEL      380
REMARK 921   NORMALIZED FREE ENERGY PREDICTED BY IDOCK:   -2.84 KCAL/MOL
REMARK 922        TOTAL FREE ENERGY PREDICTED BY IDOCK:   -9.11 KCAL/MOL
REMARK 923 INTER-LIGAND FREE ENERGY PREDICTED BY IDOCK:   -7.46 KCAL/MOL
REMARK 924 INTRA-LIGAND FREE ENERGY PREDICTED BY IDOCK:   -1.65 KCAL/MOL
REMARK 927      BINDING AFFINITY PREDICTED BY RF-SCORE:    0.00 PKD
ROOT
HETATM    1  O   UNL     1      -9.835  16.358  68.913  1.00  0.00    -0.238 OA 
HETATM    2  C   UNL     1      -9.419  16.656  67.608  1.00  0.00    -0.226 C  
HETATM    3  H   UNL     1      -9.114  16.490  69.516  1.00  0.00     0.000 HD 
ENDROOT
BRANCH   2   4
HETATM    4  C   UNL     1     -10.587  16.443  66.630  1.00  0.00    -0.239 C  
HETATM    5  O   UNL     1     -10.213  16.896  65.353  1.00  0.00    -0.605 OA 
HETATM    6  H   UNL     1     -10.935  16.764  64.750  1.00  0.00     0.000 HD 
BRANCH   4   7
HETATM    7  C   UNL     1     -10.996  14.948  66.549  1.00  0.00    -0.327 C  
HETATM    8  H   UNL     1     -11.825  13.633  67.717  1.00  0.00     0.000 HD 
HETATM    9  O   UNL     1     -11.575  14.548  67.767  1.00  0.00    -0.330 OA 
BRANCH   7  10
HETATM   10  C   UNL     1     -12.006  14.685  65.400  1.00  0.00    -0.275 C  
HETATM   11  H   UNL     1     -13.653  13.699  65.187  1.00  0.00     0.000 HD 
HETATM   12  O   UNL     1     -13.035  13.860  65.891  1.00  0.00    -0.436 OA 
BRANCH  10  13
HETATM   13  C   UNL     1     -11.366  14.005  64.158  1.00  0.00    -0.153 C  
HETATM   14  H   UNL     1      -9.600  13.405  63.617  1.00  0.00     0.000 HD 
HETATM   15  O   UNL     1      -9.991  13.821  64.376  1.00  0.00    -0.250 OA 
BRANCH  13  16
HETATM   16  C   UNL     1     -11.969  12.658  63.834  1.00  0.00    -0.479 C  
HETATM   17  O   UNL     1     -12.990  12.597  63.167  1.00  0.00    -0.524 OA 
BRANCH  16  18
HETATM   18  O   UNL     1     -11.404  11.518  64.278  1.00  0.00    -0.323 OA 
BRANCH  18  19
HETATM   19 CA   UNL     1      -9.550  11.645  65.827  1.00  0.00    -0.192 Ca 
BRANCH  19  20
HETATM   20  O   UNL     1      -7.695  11.772  67.376  1.00  0.00    -0.133 OA 
BRANCH  20  21
HETATM   21  C   UNL     1      -7.048  10.594  67.373  1.00  0.00    -0.090 C  
HETATM   22  O   UNL     1      -6.165  10.431  66.549  1.00  0.00    -0.066 OA 
BRANCH  21  23
HETATM   23  C   UNL     1      -7.500   9.435  68.233  1.00  0.00    -0.078 C  
HETATM   24  H   UNL     1      -6.866   8.552  69.828  1.00  0.00     0.000 HD 
HETATM   25  O   UNL     1      -6.582   9.280  69.288  1.00  0.00    -0.047 OA 
BRANCH  23  26
HETATM   26  C   UNL     1      -7.636   8.079  67.476  1.00  0.00    -0.101 C  
HETATM   27  H   UNL     1      -6.803   6.329  67.544  1.00  0.00     0.000 HD 
HETATM   28  O   UNL     1      -6.719   7.155  68.005  1.00  0.00    -0.056 OA 
BRANCH  26  29
HETATM   29  C   UNL     1      -9.062   7.429  67.416  1.00  0.00    -0.122 C  
BRANCH  29  30
HETATM   30  O   UNL     1      -9.026   6.479  66.360  1.00  0.00    -0.140 OA 
BRANCH  30  31
HETATM   31  C   UNL     1      -8.963   5.123  66.755  1.00  0.00    -0.113 C  
HETATM   32  O   UNL     1      -8.920   5.028  68.169  1.00  0.00    -0.105 OA 
HETATM   33  C   UNL     1      -8.873   3.670  68.579  1.00  0.00    -0.114 C  
HETATM   34  H   UNL     1      -6.879   4.273  64.365  1.00  0.00     0.000 HD 
HETATM   35  C   UNL     1      -7.536   3.024  68.132  1.00  0.00    -0.056 C  
HETATM   36  O   UNL     1      -6.444   3.716  68.686  1.00  0.00    -0.035 OA 
HETATM   37  C   UNL     1      -7.462   3.081  66.592  1.00  0.00    -0.075 C  
HETATM   38  O   UNL     1      -7.674   4.632  64.740  1.00  0.00    -0.075 OA 
HETATM   39  H   UNL     1      -5.625   3.320  68.412  1.00  0.00     0.000 HD 
HETATM   40  O   UNL     1      -6.224   2.616  66.114  1.00  0.00    -0.023 OA 
HETATM   41  C   UNL     1      -7.665   4.538  66.143  1.00  0.00    -0.094 C  
HETATM   42  H   UNL     1      -6.179   2.651  65.166  1.00  0.00     0.000 HD 
BRANCH  33  43
HETATM   43  C   UNL     1      -9.055   3.630  70.105  1.00  0.00    -0.129 C  
HETATM   44  O   UNL     1      -9.829   2.528  70.497  1.00  0.00    -0.047 OA 
HETATM   45  H   UNL     1      -9.941   2.503  71.439  1.00  0.00     0.000 HD 
ENDBRANCH  33  43
ENDBRANCH  30  31
ENDBRANCH  29  30
BRANCH  29  46
HETATM   46  C   UNL     1     -10.265   8.426  67.271  1.00  0.00    -0.279 C  
HETATM   47  O   UNL     1     -10.258   9.045  66.006  1.00  0.00    -0.363 OA 
HETATM   48  H   UNL     1     -10.986   9.648  65.918  1.00  0.00     0.000 HD 
BRANCH  46  49
HETATM   49  C   UNL     1     -10.411   9.447  68.422  1.00  0.00    -0.205 C  
HETATM   50  H   UNL     1     -11.501  11.016  68.838  1.00  0.00     0.000 HD 
HETATM   51  O   UNL     1     -11.411  10.388  68.131  1.00  0.00    -0.315 OA 
ENDBRANCH  46  49
ENDBRANCH  29  46
ENDBRANCH  26  29
ENDBRANCH  23  26
ENDBRANCH  21  23
ENDBRANCH  20  21
ENDBRANCH  19  20
ENDBRANCH  18  19
ENDBRANCH  16  18
ENDBRANCH  13  16
ENDBRANCH  10  13
ENDBRANCH   7  10
ENDBRANCH   4   7
ENDBRANCH   2   4
TORSDOF 17
ENDMDL
MODEL      381
REMARK 921   NORMALIZED FREE ENERGY PREDICTED BY IDOCK:   -2.83 KCAL/MOL
REMARK 922        TOTAL FREE ENERGY PREDICTED BY IDOCK:   -9.07 KCAL/MOL
REMARK 923 INTER-LIGAND FREE ENERGY PREDICTED BY IDOCK:   -8.26 KCAL/MOL
REMARK 924 INTRA-LIGAND FREE ENERGY PREDICTED BY IDOCK:   -0.82 KCAL/MOL
REMARK 927      BINDING AFFINITY PREDICTED BY RF-SCORE:    0.00 PKD
ROOT
HETATM    1  O   UNL     1      -5.544  21.378  68.116  1.00  0.00    -0.360 OA 
HETATM    2  C   UNL     1      -5.768  20.182  67.421  1.00  0.00    -0.177 C  
HETATM    3  H   UNL     1      -4.973  21.942  67.606  1.00  0.00     0.000 HD 
ENDROOT
BRANCH   2   4
HETATM    4  C   UNL     1      -6.692  19.269  68.246  1.00  0.00    -0.252 C  
HETATM    5  O   UNL     1      -6.925  19.858  69.501  1.00  0.00    -0.325 OA 
HETATM    6  H   UNL     1      -7.496  19.294  70.010  1.00  0.00     0.000 HD 
BRANCH   4   7
HETATM    7  C   UNL     1      -8.046  19.029  67.527  1.00  0.00    -0.267 C  
HETATM    8  H   UNL     1      -8.661  18.757  65.703  1.00  0.00     0.000 HD 
HETATM    9  O   UNL     1      -7.831  18.904  66.143  1.00  0.00    -0.303 OA 
BRANCH   7  10
HETATM   10  C   UNL     1      -8.759  17.752  68.046  1.00  0.00    -0.251 C  
HETATM   11  H   UNL     1      -9.081  15.967  67.384  1.00  0.00     0.000 HD 
HETATM   12  O   UNL     1      -8.644  16.749  67.066  1.00  0.00    -0.192 OA 
BRANCH  10  13
HETATM   13  C   UNL     1     -10.263  17.971  68.367  1.00  0.00    -0.391 C  
HETATM   14  H   UNL     1     -11.895  18.315  67.372  1.00  0.00     0.000 HD 
HETATM   15  O   UNL     1     -10.975  18.181  67.175  1.00  0.00    -0.263 OA 
BRANCH  13  16
HETATM   16  C   UNL     1     -10.899  16.806  69.088  1.00  0.00    -0.287 C  
HETATM   17  O   UNL     1     -10.404  16.394  70.126  1.00  0.00    -0.123 OA 
BRANCH  16  18
HETATM   18  O   UNL     1     -12.001  16.202  68.600  1.00  0.00    -0.254 OA 
BRANCH  18  19
HETATM   19 CA   UNL     1     -12.028  13.791  68.390  1.00  0.00    -0.253 Ca 
BRANCH  19  20
HETATM   20  O   UNL     1     -12.056  11.380  68.180  1.00  0.00    -0.623 OA 
BRANCH  20  21
HETATM   21  C   UNL     1     -11.280  11.029  67.140  1.00  0.00    -0.217 C  
HETATM   22  O   UNL     1     -10.350  10.270  67.353  1.00  0.00    -0.204 OA 
BRANCH  21  23
HETATM   23  C   UNL     1     -11.428  11.675  65.781  1.00  0.00    -0.108 C  
HETATM   24  H   UNL     1     -11.915  11.093  64.006  1.00  0.00     0.000 HD 
HETATM   25  O   UNL     1     -11.822  10.688  64.860  1.00  0.00     1.287 OA 
BRANCH  23  26
HETATM   26  C   UNL     1     -10.142  12.379  65.252  1.00  0.00    -0.265 C  
HETATM   27  H   UNL     1      -9.344  12.760  63.526  1.00  0.00     0.000 HD 
HETATM   28  O   UNL     1     -10.128  12.330  63.848  1.00  0.00    -0.364 OA 
BRANCH  26  29
HETATM   29  C   UNL     1      -9.878  13.849  65.730  1.00  0.00    -0.239 C  
BRANCH  29  30
HETATM   30  O   UNL     1      -9.429  13.760  67.074  1.00  0.00    -0.236 OA 
BRANCH  30  31
HETATM   31  C   UNL     1      -8.097  13.323  67.250  1.00  0.00    -0.142 C  
HETATM   32  O   UNL     1      -7.988  11.947  66.929  1.00  0.00    -0.162 OA 
HETATM   33  C   UNL     1      -6.651  11.498  67.086  1.00  0.00    -0.124 C  
HETATM   34  H   UNL     1      -7.641  15.046  70.008  1.00  0.00     0.000 HD 
HETATM   35  C   UNL     1      -6.243  11.554  68.581  1.00  0.00    -0.052 C  
HETATM   36  O   UNL     1      -7.098  10.750  69.357  1.00  0.00    -0.096 OA 
HETATM   37  C   UNL     1      -6.335  13.020  69.054  1.00  0.00    -0.099 C  
HETATM   38  O   UNL     1      -7.858  14.907  69.094  1.00  0.00    -0.159 OA 
HETATM   39  H   UNL     1      -6.847  10.785  70.273  1.00  0.00     0.000 HD 
HETATM   40  O   UNL     1      -6.089  13.137  70.434  1.00  0.00    -0.299 OA 
HETATM   41  C   UNL     1      -7.745  13.549  68.742  1.00  0.00    -0.044 C  
HETATM   42  H   UNL     1      -6.145  14.040  70.725  1.00  0.00     0.000 HD 
BRANCH  33  43
HETATM   43  C   UNL     1      -6.557  10.076  66.513  1.00  0.00    -0.074 C  
HETATM   44  O   UNL     1      -7.794   9.417  66.580  1.00  0.00    -0.096 OA 
HETATM   45  H   UNL     1      -7.736   8.539  66.225  1.00  0.00     0.000 HD 
ENDBRANCH  33  43
ENDBRANCH  30  31
ENDBRANCH  29  30
BRANCH  29  46
HETATM   46  C   UNL     1     -11.079  14.848  65.574  1.00  0.00    -0.352 C  
HETATM   47  O   UNL     1     -12.132  14.261  64.845  1.00  0.00    -0.395 OA 
HETATM   48  H   UNL     1     -12.859  14.864  64.751  1.00  0.00     0.000 HD 
BRANCH  46  49
HETATM   49  C   UNL     1     -10.702  16.246  65.033  1.00  0.00    -0.298 C  
HETATM   50  H   UNL     1     -11.311  17.473  63.638  1.00  0.00     0.000 HD 
HETATM   51  O   UNL     1     -11.543  16.613  63.971  1.00  0.00    -1.197 OA 
ENDBRANCH  46  49
ENDBRANCH  29  46
ENDBRANCH  26  29
ENDBRANCH  23  26
ENDBRANCH  21  23
ENDBRANCH  20  21
ENDBRANCH  19  20
ENDBRANCH  18  19
ENDBRANCH  16  18
ENDBRANCH  13  16
ENDBRANCH  10  13
ENDBRANCH   7  10
ENDBRANCH   4   7
ENDBRANCH   2   4
TORSDOF 17
ENDMDL
MODEL      382
REMARK 921   NORMALIZED FREE ENERGY PREDICTED BY IDOCK:   -2.82 KCAL/MOL
REMARK 922        TOTAL FREE ENERGY PREDICTED BY IDOCK:   -9.06 KCAL/MOL
REMARK 923 INTER-LIGAND FREE ENERGY PREDICTED BY IDOCK:   -6.78 KCAL/MOL
REMARK 924 INTRA-LIGAND FREE ENERGY PREDICTED BY IDOCK:   -2.27 KCAL/MOL
REMARK 927      BINDING AFFINITY PREDICTED BY RF-SCORE:    0.00 PKD
ROOT
HETATM    1  O   UNL     1      -9.492  18.017  65.820  1.00  0.00    -0.495 OA 
HETATM    2  C   UNL     1     -10.333  18.477  66.843  1.00  0.00    -0.397 C  
HETATM    3  H   UNL     1      -9.732  18.429  64.998  1.00  0.00     0.000 HD 
ENDROOT
BRANCH   2   4
HETATM    4  C   UNL     1      -9.944  17.809  68.172  1.00  0.00    -0.342 C  
HETATM    5  O   UNL     1     -10.531  18.516  69.236  1.00  0.00    -0.423 OA 
HETATM    6  H   UNL     1     -10.291  18.103  70.058  1.00  0.00     0.000 HD 
BRANCH   4   7
HETATM    7  C   UNL     1     -10.402  16.328  68.221  1.00  0.00    -0.272 C  
HETATM    8  H   UNL     1     -11.632  15.185  67.240  1.00  0.00     0.000 HD 
HETATM    9  O   UNL     1     -11.351  16.092  67.210  1.00  0.00    -0.130 OA 
BRANCH   7  10
HETATM   10  C   UNL     1      -9.214  15.347  68.038  1.00  0.00    -0.184 C  
HETATM   11  H   UNL     1      -8.733  13.597  68.700  1.00  0.00     0.000 HD 
HETATM   12  O   UNL     1      -9.461  14.198  68.812  1.00  0.00    -0.186 OA 
BRANCH  10  13
HETATM   13  C   UNL     1      -7.844  15.949  68.454  1.00  0.00    -0.145 C  
HETATM   14  H   UNL     1      -6.498  15.616  69.814  1.00  0.00     0.000 HD 
HETATM   15  O   UNL     1      -7.336  15.248  69.560  1.00  0.00    -0.190 OA 
BRANCH  13  16
HETATM   16  C   UNL     1      -6.808  15.899  67.357  1.00  0.00    -0.194 C  
HETATM   17  O   UNL     1      -6.831  16.733  66.464  1.00  0.00    -0.220 OA 
BRANCH  16  18
HETATM   18  O   UNL     1      -5.860  14.941  67.337  1.00  0.00    -0.341 OA 
BRANCH  18  19
HETATM   19 CA   UNL     1      -6.534  12.618  67.249  1.00  0.00    -0.086 Ca 
BRANCH  19  20
HETATM   20  O   UNL     1      -7.208  10.296  67.161  1.00  0.00    -0.088 OA 
BRANCH  20  21
HETATM   21  C   UNL     1      -8.548  10.239  67.060  1.00  0.00    -0.129 C  
HETATM   22  O   UNL     1      -9.195  11.155  67.539  1.00  0.00    -0.151 OA 
BRANCH  21  23
HETATM   23  C   UNL     1      -9.256   9.011  66.535  1.00  0.00    -0.179 C  
HETATM   24  H   UNL     1     -10.427   8.603  65.055  1.00  0.00     0.000 HD 
HETATM   25  O   UNL     1      -9.982   9.374  65.386  1.00  0.00    -0.235 OA 
BRANCH  23  26
HETATM   26  C   UNL     1     -10.222   8.332  67.553  1.00  0.00    -0.243 C  
HETATM   27  H   UNL     1     -11.667   7.040  67.488  1.00  0.00     0.000 HD 
HETATM   28  O   UNL     1     -11.079   7.454  66.868  1.00  0.00    -0.236 OA 
BRANCH  26  29
HETATM   29  C   UNL     1      -9.575   7.589  68.773  1.00  0.00    -0.149 C  
BRANCH  29  30
HETATM   30  O   UNL     1      -9.803   6.202  68.565  1.00  0.00    -0.130 OA 
BRANCH  30  31
HETATM   31  C   UNL     1      -8.666   5.370  68.673  1.00  0.00    -0.097 C  
HETATM   32  O   UNL     1      -7.829   5.538  67.542  1.00  0.00    -0.099 OA 
HETATM   33  C   UNL     1      -6.675   4.718  67.644  1.00  0.00    -0.051 C  
HETATM   34  H   UNL     1     -10.347   2.824  69.885  1.00  0.00     0.000 HD 
HETATM   35  C   UNL     1      -7.076   3.222  67.578  1.00  0.00    -0.054 C  
HETATM   36  O   UNL     1      -7.740   2.942  66.370  1.00  0.00    -0.075 OA 
HETATM   37  C   UNL     1      -8.010   2.918  68.768  1.00  0.00    -0.056 C  
HETATM   38  O   UNL     1     -10.030   3.718  69.845  1.00  0.00    -0.113 OA 
HETATM   39  H   UNL     1      -7.986   2.025  66.330  1.00  0.00     0.000 HD 
HETATM   40  O   UNL     1      -8.510   1.605  68.714  1.00  0.00    -0.052 OA 
HETATM   41  C   UNL     1      -9.184   3.911  68.738  1.00  0.00    -0.152 C  
HETATM   42  H   UNL     1      -9.084   1.418  69.447  1.00  0.00     0.000 HD 
BRANCH  33  43
HETATM   43  C   UNL     1      -5.712   5.111  66.512  1.00  0.00    -0.018 C  
HETATM   44  O   UNL     1      -6.327   5.980  65.599  1.00  0.00    -0.036 OA 
HETATM   45  H   UNL     1      -5.733   6.223  64.900  1.00  0.00     0.000 HD 
ENDBRANCH  33  43
ENDBRANCH  30  31
ENDBRANCH  29  30
BRANCH  29  46
HETATM   46  C   UNL     1     -10.051   8.059  70.193  1.00  0.00    -0.194 C  
HETATM   47  O   UNL     1      -8.957   8.211  71.067  1.00  0.00    -0.141 OA 
HETATM   48  H   UNL     1      -9.244   8.496  71.926  1.00  0.00     0.000 HD 
BRANCH  46  49
HETATM   49  C   UNL     1     -11.184   7.212  70.817  1.00  0.00    -0.279 C  
HETATM   50  H   UNL     1     -11.364   5.773  72.128  1.00  0.00     0.000 HD 
HETATM   51  O   UNL     1     -10.668   6.294  71.744  1.00  0.00    -0.222 OA 
ENDBRANCH  46  49
ENDBRANCH  29  46
ENDBRANCH  26  29
ENDBRANCH  23  26
ENDBRANCH  21  23
ENDBRANCH  20  21
ENDBRANCH  19  20
ENDBRANCH  18  19
ENDBRANCH  16  18
ENDBRANCH  13  16
ENDBRANCH  10  13
ENDBRANCH   7  10
ENDBRANCH   4   7
ENDBRANCH   2   4
TORSDOF 17
ENDMDL
MODEL      383
REMARK 921   NORMALIZED FREE ENERGY PREDICTED BY IDOCK:   -2.82 KCAL/MOL
REMARK 922        TOTAL FREE ENERGY PREDICTED BY IDOCK:   -9.06 KCAL/MOL
REMARK 923 INTER-LIGAND FREE ENERGY PREDICTED BY IDOCK:   -7.11 KCAL/MOL
REMARK 924 INTRA-LIGAND FREE ENERGY PREDICTED BY IDOCK:   -1.95 KCAL/MOL
REMARK 927      BINDING AFFINITY PREDICTED BY RF-SCORE:    0.00 PKD
ROOT
HETATM    1  O   UNL     1      -9.307  17.672  65.810  1.00  0.00    -0.511 OA 
HETATM    2  C   UNL     1     -10.294  17.858  66.788  1.00  0.00    -0.355 C  
HETATM    3  H   UNL     1      -9.490  18.227  65.061  1.00  0.00     0.000 HD 
ENDROOT
BRANCH   2   4
HETATM    4  C   UNL     1      -9.997  16.959  68.001  1.00  0.00    -0.279 C  
HETATM    5  O   UNL     1     -10.748  17.404  69.103  1.00  0.00    -0.354 OA 
HETATM    6  H   UNL     1     -10.564  16.848  69.852  1.00  0.00     0.000 HD 
BRANCH   4   7
HETATM    7  C   UNL     1     -10.338  15.474  67.707  1.00  0.00    -0.263 C  
HETATM    8  H   UNL     1     -11.209  14.467  66.291  1.00  0.00     0.000 HD 
HETATM    9  O   UNL     1     -11.000  15.376  66.470  1.00  0.00    -0.315 OA 
BRANCH   7  10
HETATM   10  C   UNL     1      -9.068  14.583  67.673  1.00  0.00    -0.195 C  
HETATM   11  H   UNL     1      -8.581  12.823  68.303  1.00  0.00     0.000 HD 
HETATM   12  O   UNL     1      -9.358  13.369  68.324  1.00  0.00    -0.209 OA 
BRANCH  10  13
HETATM   13  C   UNL     1      -7.835  15.237  68.356  1.00  0.00    -0.122 C  
HETATM   14  H   UNL     1      -6.636  14.820  69.825  1.00  0.00     0.000 HD 
HETATM   15  O   UNL     1      -7.390  14.421  69.408  1.00  0.00    -0.129 OA 
BRANCH  13  16
HETATM   16  C   UNL     1      -6.674  15.455  67.414  1.00  0.00    -0.144 C  
HETATM   17  O   UNL     1      -6.775  16.265  66.506  1.00  0.00    -0.226 OA 
BRANCH  16  18
HETATM   18  O   UNL     1      -5.527  14.760  67.551  1.00  0.00    -0.337 OA 
BRANCH  18  19
HETATM   19 CA   UNL     1      -5.600  12.342  67.506  1.00  0.00    -0.051 Ca 
BRANCH  19  20
HETATM   20  O   UNL     1      -5.674   9.924  67.461  1.00  0.00    -0.042 OA 
BRANCH  20  21
HETATM   21  C   UNL     1      -6.491   9.498  68.441  1.00  0.00    -0.053 C  
HETATM   22  O   UNL     1      -6.015   8.796  69.316  1.00  0.00    -0.040 OA 
BRANCH  21  23
HETATM   23  C   UNL     1      -7.985   9.723  68.385  1.00  0.00    -0.089 C  
HETATM   24  H   UNL     1      -9.331  10.447  69.565  1.00  0.00     0.000 HD 
HETATM   25  O   UNL     1      -8.392  10.306  69.600  1.00  0.00    -0.169 OA 
BRANCH  23  26
HETATM   26  C   UNL     1      -8.828   8.436  68.132  1.00  0.00    -0.142 C  
HETATM   27  H   UNL     1     -10.644   7.844  68.466  1.00  0.00     0.000 HD 
HETATM   28  O   UNL     1     -10.131   8.629  68.621  1.00  0.00    -0.180 OA 
BRANCH  26  29
HETATM   29  C   UNL     1      -8.892   7.897  66.661  1.00  0.00    -0.146 C  
BRANCH  29  30
HETATM   30  O   UNL     1      -7.599   7.391  66.362  1.00  0.00    -0.085 OA 
BRANCH  30  31
HETATM   31  C   UNL     1      -7.513   5.993  66.176  1.00  0.00    -0.085 C  
HETATM   32  O   UNL     1      -8.554   5.550  65.321  1.00  0.00    -0.147 OA 
HETATM   33  C   UNL     1      -8.471   4.148  65.112  1.00  0.00    -0.114 C  
HETATM   34  H   UNL     1      -6.741   5.378  69.307  1.00  0.00     0.000 HD 
HETATM   35  C   UNL     1      -8.746   3.394  66.438  1.00  0.00    -0.126 C  
HETATM   36  O   UNL     1     -10.024   3.716  66.933  1.00  0.00    -0.357 OA 
HETATM   37  C   UNL     1      -7.671   3.810  67.464  1.00  0.00    -0.078 C  
HETATM   38  O   UNL     1      -6.650   5.776  68.450  1.00  0.00    -0.048 OA 
HETATM   39  H   UNL     1     -10.192   3.254  67.746  1.00  0.00     0.000 HD 
HETATM   40  O   UNL     1      -7.920   3.253  68.731  1.00  0.00    -0.057 OA 
HETATM   41  C   UNL     1      -7.663   5.343  67.575  1.00  0.00    -0.092 C  
HETATM   42  H   UNL     1      -7.257   3.509  69.362  1.00  0.00     0.000 HD 
BRANCH  33  43
HETATM   43  C   UNL     1      -9.476   3.773  64.012  1.00  0.00    -0.153 C  
HETATM   44  O   UNL     1     -10.697   4.438  64.189  1.00  0.00    -0.470 OA 
HETATM   45  H   UNL     1     -11.318   4.207  63.509  1.00  0.00     0.000 HD 
ENDBRANCH  33  43
ENDBRANCH  30  31
ENDBRANCH  29  30
BRANCH  29  46
HETATM   46  C   UNL     1      -9.392   8.915  65.577  1.00  0.00    -0.145 C  
HETATM   47  O   UNL     1      -9.019   8.500  64.284  1.00  0.00    -0.403 OA 
HETATM   48  H   UNL     1      -9.321   9.116  63.628  1.00  0.00     0.000 HD 
BRANCH  46  49
HETATM   49  C   UNL     1      -9.022  10.392  65.847  1.00  0.00    -0.162 C  
HETATM   50  H   UNL     1      -9.948  12.081  66.180  1.00  0.00     0.000 HD 
HETATM   51  O   UNL     1     -10.176  11.173  66.014  1.00  0.00    -0.234 OA 
ENDBRANCH  46  49
ENDBRANCH  29  46
ENDBRANCH  26  29
ENDBRANCH  23  26
ENDBRANCH  21  23
ENDBRANCH  20  21
ENDBRANCH  19  20
ENDBRANCH  18  19
ENDBRANCH  16  18
ENDBRANCH  13  16
ENDBRANCH  10  13
ENDBRANCH   7  10
ENDBRANCH   4   7
ENDBRANCH   2   4
TORSDOF 17
ENDMDL
MODEL      384
REMARK 921   NORMALIZED FREE ENERGY PREDICTED BY IDOCK:   -2.80 KCAL/MOL
REMARK 922        TOTAL FREE ENERGY PREDICTED BY IDOCK:   -9.02 KCAL/MOL
REMARK 923 INTER-LIGAND FREE ENERGY PREDICTED BY IDOCK:   -9.05 KCAL/MOL
REMARK 924 INTRA-LIGAND FREE ENERGY PREDICTED BY IDOCK:    0.03 KCAL/MOL
REMARK 927      BINDING AFFINITY PREDICTED BY RF-SCORE:    0.00 PKD
ROOT
HETATM    1  O   UNL     1      -9.451  17.470  68.503  1.00  0.00    -0.279 OA 
HETATM    2  C   UNL     1      -8.565  16.811  67.640  1.00  0.00    -0.206 C  
HETATM    3  H   UNL     1      -8.983  18.135  68.995  1.00  0.00     0.000 HD 
ENDROOT
BRANCH   2   4
HETATM    4  C   UNL     1      -9.324  15.735  66.843  1.00  0.00    -0.227 C  
HETATM    5  O   UNL     1      -9.745  14.720  67.719  1.00  0.00    -0.211 OA 
HETATM    6  H   UNL     1     -10.213  14.055  67.227  1.00  0.00     0.000 HD 
BRANCH   4   7
HETATM    7  C   UNL     1     -10.555  16.331  66.111  1.00  0.00    -0.267 C  
HETATM    8  H   UNL     1     -11.068  18.046  65.352  1.00  0.00     0.000 HD 
HETATM    9  O   UNL     1     -10.314  17.681  65.800  1.00  0.00    -0.558 OA 
BRANCH   7  10
HETATM   10  C   UNL     1     -10.880  15.562  64.803  1.00  0.00    -0.363 C  
HETATM   11  H   UNL     1     -11.837  15.932  63.167  1.00  0.00     0.000 HD 
HETATM   12  O   UNL     1     -11.638  16.403  63.968  1.00  0.00    -1.071 OA 
BRANCH  10  13
HETATM   13  C   UNL     1     -11.668  14.244  65.039  1.00  0.00    -0.383 C  
HETATM   14  H   UNL     1     -13.444  13.560  64.651  1.00  0.00     0.000 HD 
HETATM   15  O   UNL     1     -12.962  14.366  64.507  1.00  0.00    -0.560 OA 
BRANCH  13  16
HETATM   16  C   UNL     1     -11.019  13.035  64.408  1.00  0.00    -0.374 C  
HETATM   17  O   UNL     1      -9.896  13.127  63.938  1.00  0.00    -0.157 OA 
BRANCH  16  18
HETATM   18  O   UNL     1     -11.663  11.852  64.344  1.00  0.00    -0.329 OA 
BRANCH  18  19
HETATM   19 CA   UNL     1     -10.615   9.886  65.288  1.00  0.00    -0.297 Ca 
BRANCH  19  20
HETATM   20  O   UNL     1      -9.567   7.919  66.231  1.00  0.00    -0.195 OA 
BRANCH  20  21
HETATM   21  C   UNL     1     -10.288   7.511  67.289  1.00  0.00    -0.296 C  
HETATM   22  O   UNL     1     -10.677   6.355  67.304  1.00  0.00    -0.262 OA 
BRANCH  21  23
HETATM   23  C   UNL     1     -10.763   8.478  68.350  1.00  0.00    -0.032 C  
HETATM   24  H   UNL     1     -11.564  10.234  68.378  1.00  0.00     0.000 HD 
HETATM   25  O   UNL     1     -11.266   9.627  67.712  1.00  0.00    -0.142 OA 
BRANCH  23  26
HETATM   26  C   UNL     1      -9.671   8.904  69.378  1.00  0.00    -0.169 C  
HETATM   27  H   UNL     1      -8.734  10.534  69.854  1.00  0.00     0.000 HD 
HETATM   28  O   UNL     1      -9.400  10.274  69.228  1.00  0.00    -0.193 OA 
BRANCH  26  29
HETATM   29  C   UNL     1      -9.940   8.584  70.889  1.00  0.00    -0.191 C  
BRANCH  29  30
HETATM   30  O   UNL     1      -8.837   9.109  71.613  1.00  0.00    -0.339 OA 
BRANCH  30  31
HETATM   31  C   UNL     1      -7.599   8.463  71.402  1.00  0.00    -0.097 C  
HETATM   32  O   UNL     1      -7.761   7.378  70.504  1.00  0.00    -0.092 OA 
HETATM   33  C   UNL     1      -6.521   6.729  70.271  1.00  0.00    -0.043 C  
HETATM   34  H   UNL     1      -6.676   8.679  74.545  1.00  0.00     0.000 HD 
HETATM   35  C   UNL     1      -6.022   6.049  71.572  1.00  0.00    -0.035 C  
HETATM   36  O   UNL     1      -6.962   5.107  72.029  1.00  0.00    -0.068 OA 
HETATM   37  C   UNL     1      -5.818   7.143  72.642  1.00  0.00    -0.041 C  
HETATM   38  O   UNL     1      -6.967   8.998  73.700  1.00  0.00    -0.347 OA 
HETATM   39  H   UNL     1      -6.656   4.692  72.826  1.00  0.00     0.000 HD 
HETATM   40  O   UNL     1      -5.474   6.591  73.889  1.00  0.00    -0.044 OA 
HETATM   41  C   UNL     1      -7.124   7.943  72.783  1.00  0.00    -0.084 C  
HETATM   42  H   UNL     1      -5.348   7.265  74.547  1.00  0.00     0.000 HD 
BRANCH  33  43
HETATM   43  C   UNL     1      -6.722   5.719  69.130  1.00  0.00    -0.060 C  
HETATM   44  O   UNL     1      -6.230   6.219  67.915  1.00  0.00    -0.026 OA 
HETATM   45  H   UNL     1      -6.354   5.595  67.210  1.00  0.00     0.000 HD 
ENDBRANCH  33  43
ENDBRANCH  30  31
ENDBRANCH  29  30
BRANCH  29  46
HETATM   46  C   UNL     1     -10.208   7.077  71.234  1.00  0.00    -0.190 C  
HETATM   47  O   UNL     1     -11.261   6.560  70.453  1.00  0.00    -0.299 OA 
HETATM   48  H   UNL     1     -11.423   5.648  70.662  1.00  0.00     0.000 HD 
BRANCH  46  49
HETATM   49  C   UNL     1     -10.391   6.772  72.739  1.00  0.00    -0.209 C  
HETATM   50  H   UNL     1     -11.342   7.536  74.266  1.00  0.00     0.000 HD 
HETATM   51  O   UNL     1     -11.230   7.723  73.341  1.00  0.00    -0.315 OA 
ENDBRANCH  46  49
ENDBRANCH  29  46
ENDBRANCH  26  29
ENDBRANCH  23  26
ENDBRANCH  21  23
ENDBRANCH  20  21
ENDBRANCH  19  20
ENDBRANCH  18  19
ENDBRANCH  16  18
ENDBRANCH  13  16
ENDBRANCH  10  13
ENDBRANCH   7  10
ENDBRANCH   4   7
ENDBRANCH   2   4
TORSDOF 17
ENDMDL
MODEL      385
REMARK 921   NORMALIZED FREE ENERGY PREDICTED BY IDOCK:   -2.78 KCAL/MOL
REMARK 922        TOTAL FREE ENERGY PREDICTED BY IDOCK:   -8.98 KCAL/MOL
REMARK 923 INTER-LIGAND FREE ENERGY PREDICTED BY IDOCK:   -8.98 KCAL/MOL
REMARK 924 INTRA-LIGAND FREE ENERGY PREDICTED BY IDOCK:   -0.00 KCAL/MOL
REMARK 927      BINDING AFFINITY PREDICTED BY RF-SCORE:    0.00 PKD
ROOT
HETATM    1  O   UNL     1     -13.395  10.606  72.100  1.00  0.00    -0.574 OA 
HETATM    2  C   UNL     1     -12.693   9.425  71.820  1.00  0.00    -0.390 C  
HETATM    3  H   UNL     1     -13.910  10.492  72.890  1.00  0.00     0.000 HD 
ENDROOT
BRANCH   2   4
HETATM    4  C   UNL     1     -11.859   9.610  70.541  1.00  0.00    -0.215 C  
HETATM    5  O   UNL     1     -10.855  10.565  70.775  1.00  0.00    -0.366 OA 
HETATM    6  H   UNL     1     -10.339  10.679  69.985  1.00  0.00     0.000 HD 
BRANCH   4   7
HETATM    7  C   UNL     1     -11.208   8.276  70.088  1.00  0.00    -0.132 C  
HETATM    8  H   UNL     1      -9.647   7.729  69.066  1.00  0.00     0.000 HD 
HETATM    9  O   UNL     1     -10.045   8.545  69.344  1.00  0.00    -0.193 OA 
BRANCH   7  10
HETATM   10  C   UNL     1     -10.838   7.372  71.294  1.00  0.00    -0.238 C  
HETATM   11  H   UNL     1     -11.712   5.991  72.324  1.00  0.00     0.000 HD 
HETATM   12  O   UNL     1     -11.939   6.545  71.585  1.00  0.00    -0.322 OA 
BRANCH  10  13
HETATM   13  C   UNL     1     -10.456   8.170  72.571  1.00  0.00    -0.339 C  
HETATM   14  H   UNL     1     -10.687   7.978  74.490  1.00  0.00     0.000 HD 
HETATM   15  O   UNL     1     -10.920   7.490  73.709  1.00  0.00    -0.266 OA 
BRANCH  13  16
HETATM   16  C   UNL     1      -8.968   8.376  72.728  1.00  0.00    -0.221 C  
HETATM   17  O   UNL     1      -8.430   8.117  73.793  1.00  0.00    -0.240 OA 
BRANCH  16  18
HETATM   18  O   UNL     1      -8.220   8.853  71.713  1.00  0.00    -0.318 OA 
BRANCH  18  19
HETATM   19 CA   UNL     1      -8.109   7.605  69.642  1.00  0.00    -0.103 Ca 
BRANCH  19  20
HETATM   20  O   UNL     1      -7.997   6.357  67.572  1.00  0.00    -0.113 OA 
BRANCH  20  21
HETATM   21  C   UNL     1      -6.830   6.632  66.965  1.00  0.00    -0.066 C  
HETATM   22  O   UNL     1      -5.923   7.078  67.647  1.00  0.00    -0.026 OA 
BRANCH  21  23
HETATM   23  C   UNL     1      -6.679   6.567  65.461  1.00  0.00    -0.047 C  
HETATM   24  H   UNL     1      -5.244   6.806  64.193  1.00  0.00     0.000 HD 
HETATM   25  O   UNL     1      -5.339   6.847  65.137  1.00  0.00    -0.026 OA 
BRANCH  23  26
HETATM   26  C   UNL     1      -7.608   7.538  64.671  1.00  0.00    -0.111 C  
HETATM   27  H   UNL     1      -9.409   7.504  63.953  1.00  0.00     0.000 HD 
HETATM   28  O   UNL     1      -8.843   6.912  64.434  1.00  0.00     0.418 OA 
BRANCH  26  29
HETATM   29  C   UNL     1      -7.848   8.961  65.283  1.00  0.00    -0.104 C  
BRANCH  29  30
HETATM   30  O   UNL     1      -9.155   9.353  64.888  1.00  0.00    -0.219 OA 
BRANCH  30  31
HETATM   31  C   UNL     1      -9.440  10.733  64.985  1.00  0.00    -0.241 C  
HETATM   32  O   UNL     1     -10.149  11.002  66.183  1.00  0.00    -0.221 OA 
HETATM   33  C   UNL     1     -10.428  12.388  66.302  1.00  0.00    -0.245 C  
HETATM   34  H   UNL     1     -10.172  11.054  61.801  1.00  0.00     0.000 HD 
HETATM   35  C   UNL     1     -11.415  12.830  65.190  1.00  0.00    -0.321 C  
HETATM   36  O   UNL     1     -12.617  12.104  65.279  1.00  0.00    -0.494 OA 
HETATM   37  C   UNL     1     -10.750  12.572  63.822  1.00  0.00    -0.445 C  
HETATM   38  O   UNL     1      -9.638  10.830  62.553  1.00  0.00    -0.264 OA 
HETATM   39  H   UNL     1     -13.220  12.375  64.597  1.00  0.00     0.000 HD 
HETATM   40  O   UNL     1     -11.629  12.842  62.758  1.00  0.00    -0.663 OA 
HETATM   41  C   UNL     1     -10.312  11.099  63.758  1.00  0.00    -0.386 C  
HETATM   42  H   UNL     1     -11.219  12.683  61.916  1.00  0.00     0.000 HD 
BRANCH  33  43
HETATM   43  C   UNL     1     -10.991  12.640  67.709  1.00  0.00    -0.234 C  
HETATM   44  O   UNL     1     -11.941  11.669  68.059  1.00  0.00    -0.577 OA 
HETATM   45  H   UNL     1     -12.288  11.824  68.929  1.00  0.00     0.000 HD 
ENDBRANCH  33  43
ENDBRANCH  30  31
ENDBRANCH  29  30
BRANCH  29  46
HETATM   46  C   UNL     1      -6.774  10.050  64.931  1.00  0.00    -0.126 C  
HETATM   47  O   UNL     1      -7.000  11.236  65.658  1.00  0.00    -0.363 OA 
HETATM   48  H   UNL     1      -6.351  11.894  65.445  1.00  0.00     0.000 HD 
BRANCH  46  49
HETATM   49  C   UNL     1      -6.585  10.317  63.420  1.00  0.00    -0.104 C  
HETATM   50  H   UNL     1      -5.213  10.025  62.058  1.00  0.00     0.000 HD 
HETATM   51  O   UNL     1      -5.330   9.860  62.987  1.00  0.00    -0.085 OA 
ENDBRANCH  46  49
ENDBRANCH  29  46
ENDBRANCH  26  29
ENDBRANCH  23  26
ENDBRANCH  21  23
ENDBRANCH  20  21
ENDBRANCH  19  20
ENDBRANCH  18  19
ENDBRANCH  16  18
ENDBRANCH  13  16
ENDBRANCH  10  13
ENDBRANCH   7  10
ENDBRANCH   4   7
ENDBRANCH   2   4
TORSDOF 17
ENDMDL
MODEL      386
REMARK 921   NORMALIZED FREE ENERGY PREDICTED BY IDOCK:   -2.77 KCAL/MOL
REMARK 922        TOTAL FREE ENERGY PREDICTED BY IDOCK:   -8.97 KCAL/MOL
REMARK 923 INTER-LIGAND FREE ENERGY PREDICTED BY IDOCK:   -7.10 KCAL/MOL
REMARK 924 INTRA-LIGAND FREE ENERGY PREDICTED BY IDOCK:   -1.87 KCAL/MOL
REMARK 927      BINDING AFFINITY PREDICTED BY RF-SCORE:    0.00 PKD
ROOT
HETATM    1  O   UNL     1     -11.114   4.235  64.176  1.00  0.00    -0.507 OA 
HETATM    2  C   UNL     1      -9.858   3.841  64.657  1.00  0.00    -0.190 C  
HETATM    3  H   UNL     1     -11.507   3.522  63.686  1.00  0.00     0.000 HD 
ENDROOT
BRANCH   2   4
HETATM    4  C   UNL     1      -9.222   4.996  65.450  1.00  0.00    -0.138 C  
HETATM    5  O   UNL     1      -9.060   4.604  66.791  1.00  0.00    -0.114 OA 
HETATM    6  H   UNL     1      -8.668   5.317  67.281  1.00  0.00     0.000 HD 
BRANCH   4   7
HETATM    7  C   UNL     1      -7.846   5.403  64.861  1.00  0.00    -0.102 C  
HETATM    8  H   UNL     1      -6.301   4.503  64.098  1.00  0.00     0.000 HD 
HETATM    9  O   UNL     1      -7.144   4.253  64.459  1.00  0.00    -0.049 OA 
BRANCH   7  10
HETATM   10  C   UNL     1      -7.996   6.354  63.643  1.00  0.00    -0.084 C  
HETATM   11  H   UNL     1      -7.867   6.194  61.723  1.00  0.00     0.000 HD 
HETATM   12  O   UNL     1      -7.776   5.612  62.468  1.00  0.00    -0.062 OA 
BRANCH  10  13
HETATM   13  C   UNL     1      -7.010   7.555  63.672  1.00  0.00    -0.060 C  
HETATM   14  H   UNL     1      -5.919   8.530  62.394  1.00  0.00     0.000 HD 
HETATM   15  O   UNL     1      -6.521   7.795  62.377  1.00  0.00    -0.078 OA 
BRANCH  13  16
HETATM   16  C   UNL     1      -7.636   8.834  64.176  1.00  0.00    -0.122 C  
HETATM   17  O   UNL     1      -6.986   9.868  64.175  1.00  0.00    -0.120 OA 
BRANCH  16  18
HETATM   18  O   UNL     1      -8.902   8.854  64.640  1.00  0.00    -0.158 OA 
BRANCH  18  19
HETATM   19 CA   UNL     1      -9.361   7.986  66.852  1.00  0.00    -0.124 Ca 
BRANCH  19  20
HETATM   20  O   UNL     1      -9.820   7.118  69.063  1.00  0.00    -0.152 OA 
BRANCH  20  21
HETATM   21  C   UNL     1      -9.122   7.835  69.962  1.00  0.00    -0.150 C  
HETATM   22  O   UNL     1      -9.171   7.488  71.130  1.00  0.00    -0.147 OA 
BRANCH  21  23
HETATM   23  C   UNL     1      -8.437   9.130  69.589  1.00  0.00    -0.133 C  
HETATM   24  H   UNL     1      -7.473  10.517  70.524  1.00  0.00     0.000 HD 
HETATM   25  O   UNL     1      -7.904   9.703  70.758  1.00  0.00    -0.292 OA 
BRANCH  23  26
HETATM   26  C   UNL     1      -9.357  10.174  68.886  1.00  0.00    -0.179 C  
HETATM   27  H   UNL     1     -11.074  11.007  69.229  1.00  0.00     0.000 HD 
HETATM   28  O   UNL     1     -10.514  10.371  69.658  1.00  0.00    -0.231 OA 
BRANCH  26  29
HETATM   29  C   UNL     1      -8.724  11.562  68.523  1.00  0.00    -0.138 C  
BRANCH  29  30
HETATM   30  O   UNL     1      -9.789  12.378  68.056  1.00  0.00    -0.194 OA 
BRANCH  30  31
HETATM   31  C   UNL     1      -9.798  13.709  68.532  1.00  0.00    -0.196 C  
HETATM   32  O   UNL     1     -10.869  13.893  69.443  1.00  0.00    -0.186 OA 
HETATM   33  C   UNL     1     -10.881  15.222  69.941  1.00  0.00    -0.281 C  
HETATM   34  H   UNL     1      -9.058  15.015  65.613  1.00  0.00     0.000 HD 
HETATM   35  C   UNL     1     -11.202  16.218  68.797  1.00  0.00    -0.343 C  
HETATM   36  O   UNL     1     -12.453  15.925  68.224  1.00  0.00    -0.113 OA 
HETATM   37  C   UNL     1     -10.098  16.098  67.726  1.00  0.00    -0.250 C  
HETATM   38  O   UNL     1      -8.943  14.453  66.369  1.00  0.00    -0.205 OA 
HETATM   39  H   UNL     1     -12.650  16.535  67.522  1.00  0.00     0.000 HD 
HETATM   40  O   UNL     1     -10.379  16.891  66.599  1.00  0.00    -0.306 OA 
HETATM   41  C   UNL     1      -9.986  14.626  67.298  1.00  0.00    -0.235 C  
HETATM   42  H   UNL     1      -9.698  16.817  65.940  1.00  0.00     0.000 HD 
BRANCH  33  43
HETATM   43  C   UNL     1     -11.913  15.293  71.078  1.00  0.00    -0.343 C  
HETATM   44  O   UNL     1     -11.695  16.411  71.895  1.00  0.00    -0.567 OA 
HETATM   45  H   UNL     1     -12.333  16.455  72.597  1.00  0.00     0.000 HD 
ENDBRANCH  33  43
ENDBRANCH  30  31
ENDBRANCH  29  30
BRANCH  29  46
HETATM   46  C   UNL     1      -7.522  11.526  67.514  1.00  0.00    -0.116 C  
HETATM   47  O   UNL     1      -7.980  11.404  66.187  1.00  0.00    -0.332 OA 
HETATM   48  H   UNL     1      -7.253  11.383  65.577  1.00  0.00     0.000 HD 
BRANCH  46  49
HETATM   49  C   UNL     1      -6.418  10.497  67.848  1.00  0.00    -0.060 C  
HETATM   50  H   UNL     1      -4.815   9.766  67.002  1.00  0.00     0.000 HD 
HETATM   51  O   UNL     1      -5.493  10.398  66.797  1.00  0.00    -0.040 OA 
ENDBRANCH  46  49
ENDBRANCH  29  46
ENDBRANCH  26  29
ENDBRANCH  23  26
ENDBRANCH  21  23
ENDBRANCH  20  21
ENDBRANCH  19  20
ENDBRANCH  18  19
ENDBRANCH  16  18
ENDBRANCH  13  16
ENDBRANCH  10  13
ENDBRANCH   7  10
ENDBRANCH   4   7
ENDBRANCH   2   4
TORSDOF 17
ENDMDL
MODEL      387
REMARK 921   NORMALIZED FREE ENERGY PREDICTED BY IDOCK:   -2.77 KCAL/MOL
REMARK 922        TOTAL FREE ENERGY PREDICTED BY IDOCK:   -8.97 KCAL/MOL
REMARK 923 INTER-LIGAND FREE ENERGY PREDICTED BY IDOCK:   -7.73 KCAL/MOL
REMARK 924 INTRA-LIGAND FREE ENERGY PREDICTED BY IDOCK:   -1.23 KCAL/MOL
REMARK 927      BINDING AFFINITY PREDICTED BY RF-SCORE:    0.00 PKD
ROOT
HETATM    1  O   UNL     1      -9.420  19.826  65.712  1.00  0.00    -0.363 OA 
HETATM    2  C   UNL     1      -9.053  20.311  66.975  1.00  0.00    -0.361 C  
HETATM    3  H   UNL     1      -9.260  20.493  65.055  1.00  0.00     0.000 HD 
ENDROOT
BRANCH   2   4
HETATM    4  C   UNL     1      -9.312  19.232  68.040  1.00  0.00    -0.328 C  
HETATM    5  O   UNL     1     -10.572  19.448  68.625  1.00  0.00    -0.455 OA 
HETATM    6  H   UNL     1     -10.731  18.781  69.282  1.00  0.00     0.000 HD 
BRANCH   4   7
HETATM    7  C   UNL     1      -9.264  17.806  67.429  1.00  0.00    -0.248 C  
HETATM    8  H   UNL     1      -7.918  16.629  66.664  1.00  0.00     0.000 HD 
HETATM    9  O   UNL     1      -7.947  17.502  67.039  1.00  0.00    -0.200 OA 
BRANCH   7  10
HETATM   10  C   UNL     1      -9.755  16.728  68.432  1.00  0.00    -0.247 C  
HETATM   11  H   UNL     1      -8.971  15.232  69.368  1.00  0.00     0.000 HD 
HETATM   12  O   UNL     1      -8.670  15.892  68.754  1.00  0.00    -0.186 OA 
BRANCH  10  13
HETATM   13  C   UNL     1     -10.917  15.856  67.882  1.00  0.00    -0.327 C  
HETATM   14  H   UNL     1     -11.467  15.138  66.163  1.00  0.00     0.000 HD 
HETATM   15  O   UNL     1     -10.756  15.671  66.499  1.00  0.00    -0.307 OA 
BRANCH  13  16
HETATM   16  C   UNL     1     -11.000  14.492  68.526  1.00  0.00    -0.249 C  
HETATM   17  O   UNL     1     -10.697  13.499  67.882  1.00  0.00    -0.239 OA 
BRANCH  16  18
HETATM   18  O   UNL     1     -11.413  14.347  69.801  1.00  0.00    -0.262 OA 
BRANCH  18  19
HETATM   19 CA   UNL     1     -11.400  12.144  70.802  1.00  0.00    -0.475 Ca 
BRANCH  19  20
HETATM   20  O   UNL     1     -11.388   9.941  71.802  1.00  0.00    -0.216 OA 
BRANCH  20  21
HETATM   21  C   UNL     1     -10.742   9.096  70.979  1.00  0.00    -0.293 C  
HETATM   22  O   UNL     1     -11.317   8.735  69.966  1.00  0.00    -0.173 OA 
BRANCH  21  23
HETATM   23  C   UNL     1      -9.422   8.465  71.361  1.00  0.00    -0.192 C  
HETATM   24  H   UNL     1      -8.280   8.455  72.917  1.00  0.00     0.000 HD 
HETATM   25  O   UNL     1      -9.109   8.851  72.677  1.00  0.00    -0.321 OA 
BRANCH  23  26
HETATM   26  C   UNL     1      -8.231   8.832  70.426  1.00  0.00    -0.122 C  
HETATM   27  H   UNL     1      -6.676   9.989  70.501  1.00  0.00     0.000 HD 
HETATM   28  O   UNL     1      -7.402   9.765  71.071  1.00  0.00    -0.329 OA 
BRANCH  26  29
HETATM   29  C   UNL     1      -7.361   7.652  69.871  1.00  0.00    -0.081 C  
BRANCH  29  30
HETATM   30  O   UNL     1      -6.399   8.235  69.004  1.00  0.00    -0.042 OA 
BRANCH  30  31
HETATM   31  C   UNL     1      -6.914   8.885  67.860  1.00  0.00    -0.078 C  
HETATM   32  O   UNL     1      -7.096   7.950  66.809  1.00  0.00    -0.074 OA 
HETATM   33  C   UNL     1      -7.629   8.586  65.658  1.00  0.00    -0.090 C  
HETATM   34  H   UNL     1      -5.026  11.546  68.220  1.00  0.00     0.000 HD 
HETATM   35  C   UNL     1      -6.597   9.588  65.077  1.00  0.00    -0.088 C  
HETATM   36  O   UNL     1      -5.405   8.925  64.733  1.00  0.00    -0.042 OA 
HETATM   37  C   UNL     1      -6.308  10.660  66.148  1.00  0.00    -0.128 C  
HETATM   38  O   UNL     1      -5.663  10.890  68.475  1.00  0.00    -0.044 OA 
HETATM   39  H   UNL     1      -4.773   9.539  64.378  1.00  0.00     0.000 HD 
HETATM   40  O   UNL     1      -5.293  11.543  65.738  1.00  0.00    -0.484 OA 
HETATM   41  C   UNL     1      -5.874   9.955  67.444  1.00  0.00    -0.050 C  
HETATM   42  H   UNL     1      -5.115  12.203  66.397  1.00  0.00     0.000 HD 
BRANCH  33  43
HETATM   43  C   UNL     1      -8.008   7.493  64.646  1.00  0.00    -0.133 C  
HETATM   44  O   UNL     1      -7.936   7.970  63.329  1.00  0.00    -0.152 OA 
HETATM   45  H   UNL     1      -8.170   7.295  62.705  1.00  0.00     0.000 HD 
ENDBRANCH  33  43
ENDBRANCH  30  31
ENDBRANCH  29  30
BRANCH  29  46
HETATM   46  C   UNL     1      -8.149   6.485  69.177  1.00  0.00    -0.112 C  
HETATM   47  O   UNL     1      -9.420   6.318  69.761  1.00  0.00    -0.150 OA 
HETATM   48  H   UNL     1      -9.897   5.612  69.342  1.00  0.00     0.000 HD 
BRANCH  46  49
HETATM   49  C   UNL     1      -7.376   5.151  69.064  1.00  0.00    -0.061 C  
HETATM   50  H   UNL     1      -5.947   4.218  70.017  1.00  0.00     0.000 HD 
HETATM   51  O   UNL     1      -6.422   5.039  70.087  1.00  0.00    -0.032 OA 
ENDBRANCH  46  49
ENDBRANCH  29  46
ENDBRANCH  26  29
ENDBRANCH  23  26
ENDBRANCH  21  23
ENDBRANCH  20  21
ENDBRANCH  19  20
ENDBRANCH  18  19
ENDBRANCH  16  18
ENDBRANCH  13  16
ENDBRANCH  10  13
ENDBRANCH   7  10
ENDBRANCH   4   7
ENDBRANCH   2   4
TORSDOF 17
ENDMDL
MODEL      388
REMARK 921   NORMALIZED FREE ENERGY PREDICTED BY IDOCK:   -2.77 KCAL/MOL
REMARK 922        TOTAL FREE ENERGY PREDICTED BY IDOCK:   -8.96 KCAL/MOL
REMARK 923 INTER-LIGAND FREE ENERGY PREDICTED BY IDOCK:   -9.97 KCAL/MOL
REMARK 924 INTRA-LIGAND FREE ENERGY PREDICTED BY IDOCK:    1.01 KCAL/MOL
REMARK 927      BINDING AFFINITY PREDICTED BY RF-SCORE:    0.00 PKD
ROOT
HETATM    1  O   UNL     1     -13.335  10.638  70.889  1.00  0.00    -0.243 OA 
HETATM    2  C   UNL     1     -12.033  10.545  70.379  1.00  0.00    -0.335 C  
HETATM    3  H   UNL     1     -13.466   9.973  71.555  1.00  0.00     0.000 HD 
ENDROOT
BRANCH   2   4
HETATM    4  C   UNL     1     -11.821  11.622  69.301  1.00  0.00    -0.331 C  
HETATM    5  O   UNL     1     -10.740  12.441  69.669  1.00  0.00    -0.422 OA 
HETATM    6  H   UNL     1     -10.609  13.107  69.004  1.00  0.00     0.000 HD 
BRANCH   4   7
HETATM    7  C   UNL     1     -11.543  10.991  67.911  1.00  0.00    -0.226 C  
HETATM    8  H   UNL     1     -11.788  11.488  66.048  1.00  0.00     0.000 HD 
HETATM    9  O   UNL     1     -11.959  11.875  66.898  1.00  0.00    -0.614 OA 
BRANCH   7  10
HETATM   10  C   UNL     1     -10.038  10.668  67.713  1.00  0.00    -0.174 C  
HETATM   11  H   UNL     1      -8.503  11.569  66.962  1.00  0.00     0.000 HD 
HETATM   12  O   UNL     1      -9.425  11.767  67.084  1.00  0.00    -0.172 OA 
BRANCH  10  13
HETATM   13  C   UNL     1      -9.787   9.395  66.858  1.00  0.00    -0.201 C  
HETATM   14  H   UNL     1     -10.647   7.676  66.580  1.00  0.00     0.000 HD 
HETATM   15  O   UNL     1     -10.800   8.454  67.102  1.00  0.00    -0.226 OA 
BRANCH  13  16
HETATM   16  C   UNL     1      -9.754   9.666  65.372  1.00  0.00    -0.295 C  
HETATM   17  O   UNL     1      -8.931   9.099  64.671  1.00  0.00    -0.192 OA 
BRANCH  16  18
HETATM   18  O   UNL     1     -10.613  10.536  64.804  1.00  0.00    -0.253 OA 
BRANCH  18  19
HETATM   19 CA   UNL     1     -10.229  12.911  65.062  1.00  0.00    -0.256 Ca 
BRANCH  19  20
HETATM   20  O   UNL     1      -9.843  15.286  65.320  1.00  0.00    -0.307 OA 
BRANCH  20  21
HETATM   21  C   UNL     1     -10.484  15.710  66.423  1.00  0.00    -0.305 C  
HETATM   22  O   UNL     1     -11.269  16.636  66.307  1.00  0.00     0.180 OA 
BRANCH  21  23
HETATM   23  C   UNL     1     -10.130  15.192  67.799  1.00  0.00    -0.230 C  
HETATM   24  H   UNL     1     -11.101  14.620  69.366  1.00  0.00     0.000 HD 
HETATM   25  O   UNL     1     -11.323  14.946  68.502  1.00  0.00    -0.270 OA 
BRANCH  23  26
HETATM   26  C   UNL     1      -9.231  16.147  68.642  1.00  0.00    -0.220 C  
HETATM   27  H   UNL     1      -9.314  17.003  70.380  1.00  0.00     0.000 HD 
HETATM   28  O   UNL     1      -9.862  16.421  69.866  1.00  0.00    -0.045 OA 
BRANCH  26  29
HETATM   29  C   UNL     1      -7.751  15.699  68.902  1.00  0.00    -0.181 C  
BRANCH  29  30
HETATM   30  O   UNL     1      -7.056  16.853  69.352  1.00  0.00    -0.227 OA 
BRANCH  30  31
HETATM   31  C   UNL     1      -7.278  18.034  68.609  1.00  0.00    -0.273 C  
HETATM   32  O   UNL     1      -8.669  18.293  68.510  1.00  0.00    -0.309 OA 
HETATM   33  C   UNL     1      -8.907  19.486  67.779  1.00  0.00    -0.318 C  
HETATM   34  H   UNL     1      -4.936  17.379  66.405  1.00  0.00     0.000 HD 
HETATM   35  C   UNL     1      -8.466  19.304  66.304  1.00  0.00    -0.319 C  
HETATM   36  O   UNL     1      -9.170  18.243  65.705  1.00  0.00    -0.450 OA 
HETATM   37  C   UNL     1      -6.953  19.002  66.284  1.00  0.00    -0.230 C  
HETATM   38  O   UNL     1      -5.302  17.524  67.269  1.00  0.00    -0.120 OA 
HETATM   39  H   UNL     1      -8.900  18.132  64.801  1.00  0.00     0.000 HD 
HETATM   40  O   UNL     1      -6.498  18.711  64.985  1.00  0.00    -0.468 OA 
HETATM   41  C   UNL     1      -6.681  17.797  67.200  1.00  0.00    -0.167 C  
HETATM   42  H   UNL     1      -5.567  18.525  64.973  1.00  0.00     0.000 HD 
BRANCH  33  43
HETATM   43  C   UNL     1     -10.400  19.826  67.900  1.00  0.00    -0.433 C  
HETATM   44  O   UNL     1     -11.028  19.819  66.646  1.00  0.00    -0.417 OA 
HETATM   45  H   UNL     1     -11.951  20.029  66.721  1.00  0.00     0.000 HD 
ENDBRANCH  33  43
ENDBRANCH  30  31
ENDBRANCH  29  30
BRANCH  29  46
HETATM   46  C   UNL     1      -7.023  15.003  67.699  1.00  0.00    -0.182 C  
HETATM   47  O   UNL     1      -7.811  13.966  67.163  1.00  0.00    -0.325 OA 
HETATM   48  H   UNL     1      -7.370  13.545  66.435  1.00  0.00     0.000 HD 
BRANCH  46  49
HETATM   49  C   UNL     1      -5.573  14.548  67.986  1.00  0.00    -0.127 C  
HETATM   50  H   UNL     1      -4.453  12.982  67.651  1.00  0.00     0.000 HD 
HETATM   51  O   UNL     1      -5.344  13.261  67.475  1.00  0.00    -0.289 OA 
ENDBRANCH  46  49
ENDBRANCH  29  46
ENDBRANCH  26  29
ENDBRANCH  23  26
ENDBRANCH  21  23
ENDBRANCH  20  21
ENDBRANCH  19  20
ENDBRANCH  18  19
ENDBRANCH  16  18
ENDBRANCH  13  16
ENDBRANCH  10  13
ENDBRANCH   7  10
ENDBRANCH   4   7
ENDBRANCH   2   4
TORSDOF 17
ENDMDL
MODEL      389
REMARK 921   NORMALIZED FREE ENERGY PREDICTED BY IDOCK:   -2.76 KCAL/MOL
REMARK 922        TOTAL FREE ENERGY PREDICTED BY IDOCK:   -8.94 KCAL/MOL
REMARK 923 INTER-LIGAND FREE ENERGY PREDICTED BY IDOCK:   -7.47 KCAL/MOL
REMARK 924 INTRA-LIGAND FREE ENERGY PREDICTED BY IDOCK:   -1.47 KCAL/MOL
REMARK 927      BINDING AFFINITY PREDICTED BY RF-SCORE:    0.00 PKD
ROOT
HETATM    1  O   UNL     1      -9.044  17.376  65.630  1.00  0.00    -0.459 OA 
HETATM    2  C   UNL     1     -10.108  17.760  66.458  1.00  0.00    -0.358 C  
HETATM    3  H   UNL     1      -9.074  17.873  64.820  1.00  0.00     0.000 HD 
ENDROOT
BRANCH   2   4
HETATM    4  C   UNL     1     -10.059  16.956  67.768  1.00  0.00    -0.292 C  
HETATM    5  O   UNL     1     -10.975  17.503  68.683  1.00  0.00    -0.251 OA 
HETATM    6  H   UNL     1     -10.946  17.006  69.493  1.00  0.00     0.000 HD 
BRANCH   4   7
HETATM    7  C   UNL     1     -10.397  15.460  67.531  1.00  0.00    -0.264 C  
HETATM    8  H   UNL     1     -11.181  14.384  66.114  1.00  0.00     0.000 HD 
HETATM    9  O   UNL     1     -10.974  15.300  66.259  1.00  0.00    -0.322 OA 
BRANCH   7  10
HETATM   10  C   UNL     1      -9.137  14.559  67.631  1.00  0.00    -0.195 C  
HETATM   11  H   UNL     1      -8.689  12.872  68.460  1.00  0.00     0.000 HD 
HETATM   12  O   UNL     1      -9.461  13.424  68.399  1.00  0.00    -0.212 OA 
BRANCH  10  13
HETATM   13  C   UNL     1      -7.916  15.271  68.276  1.00  0.00    -0.132 C  
HETATM   14  H   UNL     1      -6.769  15.008  69.821  1.00  0.00     0.000 HD 
HETATM   15  O   UNL     1      -7.516  14.572  69.427  1.00  0.00    -0.135 OA 
BRANCH  13  16
HETATM   16  C   UNL     1      -6.723  15.369  67.354  1.00  0.00    -0.144 C  
HETATM   17  O   UNL     1      -6.685  16.248  66.506  1.00  0.00    -0.226 OA 
BRANCH  16  18
HETATM   18  O   UNL     1      -5.701  14.495  67.442  1.00  0.00    -0.342 OA 
BRANCH  18  19
HETATM   19 CA   UNL     1      -6.127  12.142  67.069  1.00  0.00    -0.081 Ca 
BRANCH  19  20
HETATM   20  O   UNL     1      -6.553   9.790  66.695  1.00  0.00    -0.069 OA 
BRANCH  20  21
HETATM   21  C   UNL     1      -7.294   9.318  67.713  1.00  0.00    -0.084 C  
HETATM   22  O   UNL     1      -7.023   8.214  68.153  1.00  0.00    -0.073 OA 
BRANCH  21  23
HETATM   23  C   UNL     1      -8.535  10.036  68.194  1.00  0.00    -0.114 C  
HETATM   24  H   UNL     1      -9.204  10.684  69.886  1.00  0.00     0.000 HD 
HETATM   25  O   UNL     1      -8.424  10.233  69.583  1.00  0.00    -0.169 OA 
BRANCH  23  26
HETATM   26  C   UNL     1      -9.873   9.297  67.891  1.00  0.00    -0.167 C  
HETATM   27  H   UNL     1     -11.767   9.639  68.133  1.00  0.00     0.000 HD 
HETATM   28  O   UNL     1     -10.951  10.090  68.319  1.00  0.00    -0.248 OA 
BRANCH  26  29
HETATM   29  C   UNL     1     -10.118   8.830  66.414  1.00  0.00    -0.243 C  
BRANCH  29  30
HETATM   30  O   UNL     1      -9.346   7.651  66.233  1.00  0.00    -0.176 OA 
BRANCH  30  31
HETATM   31  C   UNL     1      -9.852   6.484  66.848  1.00  0.00    -0.164 C  
HETATM   32  O   UNL     1      -9.742   6.589  68.258  1.00  0.00    -0.130 OA 
HETATM   33  C   UNL     1     -10.261   5.428  68.889  1.00  0.00    -0.196 C  
HETATM   34  H   UNL     1      -8.546   4.455  64.622  1.00  0.00     0.000 HD 
HETATM   35  C   UNL     1      -9.382   4.197  68.548  1.00  0.00    -0.156 C  
HETATM   36  O   UNL     1      -8.056   4.405  68.972  1.00  0.00    -0.072 OA 
HETATM   37  C   UNL     1      -9.413   3.988  67.020  1.00  0.00    -0.199 C  
HETATM   38  O   UNL     1      -9.072   5.180  64.936  1.00  0.00    -0.133 OA 
HETATM   39  H   UNL     1      -7.518   3.651  68.763  1.00  0.00     0.000 HD 
HETATM   40  O   UNL     1      -8.545   2.956  66.619  1.00  0.00    -0.096 OA 
HETATM   41  C   UNL     1      -8.993   5.300  66.335  1.00  0.00    -0.128 C  
HETATM   42  H   UNL     1      -8.565   2.827  65.678  1.00  0.00     0.000 HD 
BRANCH  33  43
HETATM   43  C   UNL     1     -10.320   5.698  70.401  1.00  0.00    -0.260 C  
HETATM   44  O   UNL     1      -9.944   4.564  71.136  1.00  0.00    -0.190 OA 
HETATM   45  H   UNL     1      -9.980   4.731  72.070  1.00  0.00     0.000 HD 
ENDBRANCH  33  43
ENDBRANCH  30  31
ENDBRANCH  29  30
BRANCH  29  46
HETATM   46  C   UNL     1      -9.835   9.898  65.300  1.00  0.00    -0.303 C  
HETATM   47  O   UNL     1      -8.708   9.541  64.533  1.00  0.00    -0.181 OA 
HETATM   48  H   UNL     1      -8.536  10.187  63.859  1.00  0.00     0.000 HD 
BRANCH  46  49
HETATM   49  C   UNL     1      -9.764  11.360  65.798  1.00  0.00    -0.233 C  
HETATM   50  H   UNL     1     -10.841  12.986  65.674  1.00  0.00     0.000 HD 
HETATM   51  O   UNL     1     -10.885  12.088  65.368  1.00  0.00    -0.274 OA 
ENDBRANCH  46  49
ENDBRANCH  29  46
ENDBRANCH  26  29
ENDBRANCH  23  26
ENDBRANCH  21  23
ENDBRANCH  20  21
ENDBRANCH  19  20
ENDBRANCH  18  19
ENDBRANCH  16  18
ENDBRANCH  13  16
ENDBRANCH  10  13
ENDBRANCH   7  10
ENDBRANCH   4   7
ENDBRANCH   2   4
TORSDOF 17
ENDMDL
MODEL      390
REMARK 921   NORMALIZED FREE ENERGY PREDICTED BY IDOCK:   -2.73 KCAL/MOL
REMARK 922        TOTAL FREE ENERGY PREDICTED BY IDOCK:   -8.89 KCAL/MOL
REMARK 923 INTER-LIGAND FREE ENERGY PREDICTED BY IDOCK:   -6.83 KCAL/MOL
REMARK 924 INTRA-LIGAND FREE ENERGY PREDICTED BY IDOCK:   -2.06 KCAL/MOL
REMARK 927      BINDING AFFINITY PREDICTED BY RF-SCORE:    0.00 PKD
ROOT
HETATM    1  O   UNL     1      -6.287  12.327  70.400  1.00  0.00    -0.448 OA 
HETATM    2  C   UNL     1      -7.009  12.386  69.200  1.00  0.00    -0.034 C  
HETATM    3  H   UNL     1      -6.729  11.749  71.011  1.00  0.00     0.000 HD 
ENDROOT
BRANCH   2   4
HETATM    4  C   UNL     1      -6.293  13.321  68.211  1.00  0.00    -0.099 C  
HETATM    5  O   UNL     1      -6.182  12.681  66.964  1.00  0.00    -0.437 OA 
HETATM    6  H   UNL     1      -5.739  13.259  66.353  1.00  0.00     0.000 HD 
BRANCH   4   7
HETATM    7  C   UNL     1      -7.057  14.661  68.038  1.00  0.00    -0.138 C  
HETATM    8  H   UNL     1      -6.929  16.236  66.905  1.00  0.00     0.000 HD 
HETATM    9  O   UNL     1      -6.461  15.416  67.011  1.00  0.00    -0.270 OA 
BRANCH   7  10
HETATM   10  C   UNL     1      -8.553  14.435  67.696  1.00  0.00    -0.185 C  
HETATM   11  H   UNL     1      -9.678  14.651  66.140  1.00  0.00     0.000 HD 
HETATM   12  O   UNL     1      -8.761  14.789  66.350  1.00  0.00    -0.197 OA 
BRANCH  10  13
HETATM   13  C   UNL     1      -9.523  15.258  68.588  1.00  0.00    -0.204 C  
HETATM   14  H   UNL     1      -9.419  16.823  69.734  1.00  0.00     0.000 HD 
HETATM   15  O   UNL     1      -8.826  16.320  69.188  1.00  0.00    -0.249 OA 
BRANCH  13  16
HETATM   16  C   UNL     1     -10.690  15.841  67.827  1.00  0.00    -0.307 C  
HETATM   17  O   UNL     1     -10.891  17.046  67.856  1.00  0.00    -0.357 OA 
BRANCH  16  18
HETATM   18  O   UNL     1     -11.525  15.053  67.121  1.00  0.00    -0.347 OA 
BRANCH  18  19
HETATM   19 CA   UNL     1     -11.990  12.816  67.920  1.00  0.00    -0.259 Ca 
BRANCH  19  20
HETATM   20  O   UNL     1     -12.455  10.579  68.718  1.00  0.00    -0.161 OA 
BRANCH  20  21
HETATM   21  C   UNL     1     -11.533  10.250  69.639  1.00  0.00    -0.235 C  
HETATM   22  O   UNL     1     -11.707  10.636  70.783  1.00  0.00    -0.328 OA 
BRANCH  21  23
HETATM   23  C   UNL     1     -10.233   9.576  69.261  1.00  0.00    -0.203 C  
HETATM   24  H   UNL     1      -8.367   9.801  69.701  1.00  0.00     0.000 HD 
HETATM   25  O   UNL     1      -9.184  10.224  69.938  1.00  0.00    -0.150 OA 
BRANCH  23  26
HETATM   26  C   UNL     1      -9.924   9.569  67.733  1.00  0.00    -0.174 C  
HETATM   27  H   UNL     1      -9.201  10.809  66.429  1.00  0.00     0.000 HD 
HETATM   28  O   UNL     1      -9.389  10.814  67.361  1.00  0.00    -0.150 OA 
BRANCH  26  29
HETATM   29  C   UNL     1      -9.009   8.419  67.189  1.00  0.00    -0.137 C  
BRANCH  29  30
HETATM   30  O   UNL     1      -7.850   8.405  68.010  1.00  0.00    -0.108 OA 
BRANCH  30  31
HETATM   31  C   UNL     1      -7.416   7.131  68.441  1.00  0.00    -0.106 C  
HETATM   32  O   UNL     1      -8.499   6.216  68.423  1.00  0.00    -0.113 OA 
HETATM   33  C   UNL     1      -8.073   4.927  68.840  1.00  0.00    -0.083 C  
HETATM   34  H   UNL     1      -5.501   8.323  70.826  1.00  0.00     0.000 HD 
HETATM   35  C   UNL     1      -7.653   4.961  70.332  1.00  0.00    -0.059 C  
HETATM   36  O   UNL     1      -8.727   5.380  71.138  1.00  0.00    -0.126 OA 
HETATM   37  C   UNL     1      -6.475   5.946  70.481  1.00  0.00    -0.036 C  
HETATM   38  O   UNL     1      -5.823   8.219  69.939  1.00  0.00    -0.025 OA 
HETATM   39  H   UNL     1      -8.469   5.401  72.052  1.00  0.00     0.000 HD 
HETATM   40  O   UNL     1      -6.109   6.119  71.828  1.00  0.00    -0.038 OA 
HETATM   41  C   UNL     1      -6.891   7.303  69.889  1.00  0.00    -0.056 C  
HETATM   42  H   UNL     1      -5.383   6.725  71.919  1.00  0.00     0.000 HD 
BRANCH  33  43
HETATM   43  C   UNL     1      -9.225   3.943  68.584  1.00  0.00    -0.151 C  
HETATM   44  O   UNL     1      -9.182   2.864  69.480  1.00  0.00    -0.119 OA 
HETATM   45  H   UNL     1      -9.894   2.256  69.322  1.00  0.00     0.000 HD 
ENDBRANCH  33  43
ENDBRANCH  30  31
ENDBRANCH  29  30
BRANCH  29  46
HETATM   46  C   UNL     1      -8.649   8.491  65.663  1.00  0.00    -0.177 C  
HETATM   47  O   UNL     1      -9.678   9.116  64.931  1.00  0.00    -0.389 OA 
HETATM   48  H   UNL     1      -9.461   9.160  64.008  1.00  0.00     0.000 HD 
BRANCH  46  49
HETATM   49  C   UNL     1      -8.212   7.150  65.029  1.00  0.00    -0.093 C  
HETATM   50  H   UNL     1      -7.190   6.547  63.477  1.00  0.00     0.000 HD 
HETATM   51  O   UNL     1      -7.458   7.371  63.866  1.00  0.00    -0.085 OA 
ENDBRANCH  46  49
ENDBRANCH  29  46
ENDBRANCH  26  29
ENDBRANCH  23  26
ENDBRANCH  21  23
ENDBRANCH  20  21
ENDBRANCH  19  20
ENDBRANCH  18  19
ENDBRANCH  16  18
ENDBRANCH  13  16
ENDBRANCH  10  13
ENDBRANCH   7  10
ENDBRANCH   4   7
ENDBRANCH   2   4
TORSDOF 17
ENDMDL
MODEL      391
REMARK 921   NORMALIZED FREE ENERGY PREDICTED BY IDOCK:   -2.68 KCAL/MOL
REMARK 922        TOTAL FREE ENERGY PREDICTED BY IDOCK:   -8.78 KCAL/MOL
REMARK 923 INTER-LIGAND FREE ENERGY PREDICTED BY IDOCK:   -8.18 KCAL/MOL
REMARK 924 INTRA-LIGAND FREE ENERGY PREDICTED BY IDOCK:   -0.60 KCAL/MOL
REMARK 927      BINDING AFFINITY PREDICTED BY RF-SCORE:    0.00 PKD
ROOT
HETATM    1  O   UNL     1     -12.509  14.361  72.378  1.00  0.00    -0.301 OA 
HETATM    2  C   UNL     1     -11.905  14.768  71.180  1.00  0.00    -0.334 C  
HETATM    3  H   UNL     1     -12.187  14.894  73.096  1.00  0.00     0.000 HD 
ENDROOT
BRANCH   2   4
HETATM    4  C   UNL     1     -12.426  13.905  70.018  1.00  0.00    -0.266 C  
HETATM    5  O   UNL     1     -12.766  14.738  68.938  1.00  0.00    -0.408 OA 
HETATM    6  H   UNL     1     -13.088  14.205  68.220  1.00  0.00     0.000 HD 
BRANCH   4   7
HETATM    7  C   UNL     1     -11.368  12.868  69.559  1.00  0.00    -0.153 C  
HETATM    8  H   UNL     1     -11.353  11.017  68.965  1.00  0.00     0.000 HD 
HETATM    9  O   UNL     1     -12.001  11.651  69.246  1.00  0.00    -0.320 OA 
BRANCH   7  10
HETATM   10  C   UNL     1     -10.575  13.359  68.318  1.00  0.00    -0.254 C  
HETATM   11  H   UNL     1     -10.314  15.040  67.404  1.00  0.00     0.000 HD 
HETATM   12  O   UNL     1     -10.799  14.740  68.164  1.00  0.00    -0.244 OA 
BRANCH  10  13
HETATM   13  C   UNL     1     -10.975  12.635  67.002  1.00  0.00    -0.265 C  
HETATM   14  H   UNL     1     -12.615  12.233  66.042  1.00  0.00     0.000 HD 
HETATM   15  O   UNL     1     -12.370  12.676  66.846  1.00  0.00    -0.430 OA 
BRANCH  13  16
HETATM   16  C   UNL     1     -10.352  13.244  65.769  1.00  0.00    -0.288 C  
HETATM   17  O   UNL     1     -11.031  13.414  64.768  1.00  0.00    -0.323 OA 
BRANCH  16  18
HETATM   18  O   UNL     1      -9.051  13.596  65.747  1.00  0.00     0.184 OA 
BRANCH  18  19
HETATM   19 CA   UNL     1      -7.521  12.548  67.302  1.00  0.00    -0.100 Ca 
BRANCH  19  20
HETATM   20  O   UNL     1      -5.991  11.499  68.856  1.00  0.00    -0.047 OA 
BRANCH  20  21
HETATM   21  C   UNL     1      -6.376  10.226  69.049  1.00  0.00    -0.044 C  
HETATM   22  O   UNL     1      -5.640   9.498  69.693  1.00  0.00    -0.033 OA 
BRANCH  21  23
HETATM   23  C   UNL     1      -7.588   9.647  68.354  1.00  0.00    -0.081 C  
HETATM   24  H   UNL     1      -9.062  10.335  67.315  1.00  0.00     0.000 HD 
HETATM   25  O   UNL     1      -8.301  10.699  67.751  1.00  0.00    -0.114 OA 
BRANCH  23  26
HETATM   26  C   UNL     1      -8.551   8.849  69.285  1.00  0.00    -0.133 C  
HETATM   27  H   UNL     1      -9.927   9.262  70.587  1.00  0.00     0.000 HD 
HETATM   28  O   UNL     1      -9.340   9.748  70.021  1.00  0.00    -0.225 OA 
BRANCH  26  29
HETATM   29  C   UNL     1      -9.471   7.771  68.614  1.00  0.00    -0.152 C  
BRANCH  29  30
HETATM   30  O   UNL     1      -9.178   6.538  69.255  1.00  0.00    -0.139 OA 
BRANCH  30  31
HETATM   31  C   UNL     1     -10.147   6.078  70.176  1.00  0.00    -0.194 C  
HETATM   32  O   UNL     1     -10.928   7.164  70.645  1.00  0.00    -0.242 OA 
HETATM   33  C   UNL     1     -11.916   6.713  71.559  1.00  0.00    -0.352 C  
HETATM   34  H   UNL     1      -8.106   3.962  71.636  1.00  0.00     0.000 HD 
HETATM   35  C   UNL     1     -11.243   6.169  72.846  1.00  0.00    -0.215 C  
HETATM   36  O   UNL     1     -10.465   7.169  73.457  1.00  0.00    -0.328 OA 
HETATM   37  C   UNL     1     -10.346   4.976  72.455  1.00  0.00    -0.202 C  
HETATM   38  O   UNL     1      -8.578   4.358  70.914  1.00  0.00    -0.089 OA 
HETATM   39  H   UNL     1     -10.053   6.836  74.245  1.00  0.00     0.000 HD 
HETATM   40  O   UNL     1      -9.611   4.498  73.555  1.00  0.00    -0.117 OA 
HETATM   41  C   UNL     1      -9.375   5.432  71.354  1.00  0.00    -0.147 C  
HETATM   42  H   UNL     1      -9.059   3.763  73.314  1.00  0.00     0.000 HD 
BRANCH  33  43
HETATM   43  C   UNL     1     -12.862   7.889  71.852  1.00  0.00    -0.308 C  
HETATM   44  O   UNL     1     -13.914   7.940  70.926  1.00  0.00    -0.602 OA 
HETATM   45  H   UNL     1     -14.498   8.666  71.107  1.00  0.00     0.000 HD 
ENDBRANCH  33  43
ENDBRANCH  30  31
ENDBRANCH  29  30
BRANCH  29  46
HETATM   46  C   UNL     1      -9.373   7.660  67.051  1.00  0.00    -0.157 C  
HETATM   47  O   UNL     1     -10.653   7.616  66.467  1.00  0.00    -0.485 OA 
HETATM   48  H   UNL     1     -10.594   7.549  65.521  1.00  0.00     0.000 HD 
BRANCH  46  49
HETATM   49  C   UNL     1      -8.452   6.532  66.531  1.00  0.00    -0.120 C  
HETATM   50  H   UNL     1      -8.609   4.932  65.419  1.00  0.00     0.000 HD 
HETATM   51  O   UNL     1      -9.174   5.626  65.738  1.00  0.00    -0.156 OA 
ENDBRANCH  46  49
ENDBRANCH  29  46
ENDBRANCH  26  29
ENDBRANCH  23  26
ENDBRANCH  21  23
ENDBRANCH  20  21
ENDBRANCH  19  20
ENDBRANCH  18  19
ENDBRANCH  16  18
ENDBRANCH  13  16
ENDBRANCH  10  13
ENDBRANCH   7  10
ENDBRANCH   4   7
ENDBRANCH   2   4
TORSDOF 17
ENDMDL
MODEL      392
REMARK 921   NORMALIZED FREE ENERGY PREDICTED BY IDOCK:   -2.64 KCAL/MOL
REMARK 922        TOTAL FREE ENERGY PREDICTED BY IDOCK:   -8.71 KCAL/MOL
REMARK 923 INTER-LIGAND FREE ENERGY PREDICTED BY IDOCK:   -8.19 KCAL/MOL
REMARK 924 INTRA-LIGAND FREE ENERGY PREDICTED BY IDOCK:   -0.52 KCAL/MOL
REMARK 927      BINDING AFFINITY PREDICTED BY RF-SCORE:    0.00 PKD
ROOT
HETATM    1  O   UNL     1      -9.373  17.243  68.826  1.00  0.00    -0.264 OA 
HETATM    2  C   UNL     1      -9.289  16.028  68.133  1.00  0.00    -0.200 C  
HETATM    3  H   UNL     1      -8.527  17.457  69.201  1.00  0.00     0.000 HD 
ENDROOT
BRANCH   2   4
HETATM    4  C   UNL     1     -10.660  15.682  67.527  1.00  0.00    -0.297 C  
HETATM    5  O   UNL     1     -10.812  16.362  66.306  1.00  0.00    -0.210 OA 
HETATM    6  H   UNL     1     -11.659  16.148  65.931  1.00  0.00     0.000 HD 
BRANCH   4   7
HETATM    7  C   UNL     1     -10.810  14.156  67.291  1.00  0.00    -0.285 C  
HETATM    8  H   UNL     1     -12.171  12.798  67.579  1.00  0.00     0.000 HD 
HETATM    9  O   UNL     1     -12.079  13.732  67.724  1.00  0.00    -0.362 OA 
BRANCH   7  10
HETATM   10  C   UNL     1     -10.634  13.780  65.795  1.00  0.00    -0.293 C  
HETATM   11  H   UNL     1      -9.976  14.655  64.204  1.00  0.00     0.000 HD 
HETATM   12  O   UNL     1     -10.084  14.885  65.120  1.00  0.00    -0.365 OA 
BRANCH  10  13
HETATM   13  C   UNL     1     -11.963  13.376  65.099  1.00  0.00    -0.378 C  
HETATM   14  H   UNL     1     -13.492  14.284  64.317  1.00  0.00     0.000 HD 
HETATM   15  O   UNL     1     -12.680  14.531  64.743  1.00  0.00    -0.606 OA 
BRANCH  13  16
HETATM   16  C   UNL     1     -11.760  12.552  63.849  1.00  0.00    -0.452 C  
HETATM   17  O   UNL     1     -12.605  11.734  63.520  1.00  0.00    -0.523 OA 
BRANCH  16  18
HETATM   18  O   UNL     1     -10.653  12.696  63.093  1.00  0.00    -0.173 OA 
BRANCH  18  19
HETATM   19 CA   UNL     1      -8.654  11.467  63.685  1.00  0.00    -0.308 Ca 
BRANCH  19  20
HETATM   20  O   UNL     1      -6.655  10.239  64.278  1.00  0.00    -0.127 OA 
BRANCH  20  21
HETATM   21  C   UNL     1      -6.705   9.028  63.698  1.00  0.00    -0.089 C  
HETATM   22  O   UNL     1      -5.814   8.730  62.919  1.00  0.00    -0.084 OA 
BRANCH  21  23
HETATM   23  C   UNL     1      -7.903   8.118  63.854  1.00  0.00    -0.147 C  
HETATM   24  H   UNL     1      -9.749   8.322  64.378  1.00  0.00     0.000 HD 
HETATM   25  O   UNL     1      -8.997   8.893  64.281  1.00  0.00    -0.071 OA 
BRANCH  23  26
HETATM   26  C   UNL     1      -7.698   6.936  64.849  1.00  0.00    -0.113 C  
HETATM   27  H   UNL     1      -6.211   6.117  65.787  1.00  0.00     0.000 HD 
HETATM   28  O   UNL     1      -6.336   6.837  65.180  1.00  0.00    -0.040 OA 
BRANCH  26  29
HETATM   29  C   UNL     1      -8.559   6.941  66.159  1.00  0.00    -0.143 C  
BRANCH  29  30
HETATM   30  O   UNL     1      -7.969   7.902  67.023  1.00  0.00    -0.109 OA 
BRANCH  30  31
HETATM   31  C   UNL     1      -8.195   7.708  68.405  1.00  0.00    -0.125 C  
HETATM   32  O   UNL     1      -9.572   7.873  68.702  1.00  0.00    -0.152 OA 
HETATM   33  C   UNL     1      -9.816   7.666  70.085  1.00  0.00    -0.184 C  
HETATM   34  H   UNL     1      -5.476   9.304  69.320  1.00  0.00     0.000 HD 
HETATM   35  C   UNL     1      -9.130   8.778  70.920  1.00  0.00    -0.208 C  
HETATM   36  O   UNL     1      -9.614  10.045  70.547  1.00  0.00    -0.360 OA 
HETATM   37  C   UNL     1      -7.610   8.705  70.666  1.00  0.00    -0.080 C  
HETATM   38  O   UNL     1      -5.989   8.648  68.863  1.00  0.00    -0.042 OA 
HETATM   39  H   UNL     1      -9.193  10.726  71.058  1.00  0.00     0.000 HD 
HETATM   40  O   UNL     1      -6.926   9.757  71.302  1.00  0.00    -0.330 OA 
HETATM   41  C   UNL     1      -7.360   8.779  69.150  1.00  0.00    -0.072 C  
HETATM   42  H   UNL     1      -5.990   9.712  71.146  1.00  0.00     0.000 HD 
BRANCH  33  43
HETATM   43  C   UNL     1     -11.337   7.636  70.298  1.00  0.00    -0.181 C  
HETATM   44  O   UNL     1     -11.694   6.715  71.294  1.00  0.00    -0.303 OA 
HETATM   45  H   UNL     1     -12.634   6.697  71.426  1.00  0.00     0.000 HD 
ENDBRANCH  33  43
ENDBRANCH  30  31
ENDBRANCH  29  30
BRANCH  29  46
HETATM   46  C   UNL     1      -8.745   5.551  66.863  1.00  0.00    -0.112 C  
HETATM   47  O   UNL     1      -7.500   4.955  67.142  1.00  0.00    -0.084 OA 
HETATM   48  H   UNL     1      -7.612   4.114  67.568  1.00  0.00     0.000 HD 
BRANCH  46  49
HETATM   49  C   UNL     1      -9.712   4.580  66.148  1.00  0.00    -0.207 C  
HETATM   50  H   UNL     1     -11.635   4.419  65.834  1.00  0.00     0.000 HD 
HETATM   51  O   UNL     1     -11.041   5.016  66.274  1.00  0.00    -0.108 OA 
ENDBRANCH  46  49
ENDBRANCH  29  46
ENDBRANCH  26  29
ENDBRANCH  23  26
ENDBRANCH  21  23
ENDBRANCH  20  21
ENDBRANCH  19  20
ENDBRANCH  18  19
ENDBRANCH  16  18
ENDBRANCH  13  16
ENDBRANCH  10  13
ENDBRANCH   7  10
ENDBRANCH   4   7
ENDBRANCH   2   4
TORSDOF 17
ENDMDL
MODEL      393
REMARK 921   NORMALIZED FREE ENERGY PREDICTED BY IDOCK:   -2.61 KCAL/MOL
REMARK 922        TOTAL FREE ENERGY PREDICTED BY IDOCK:   -8.64 KCAL/MOL
REMARK 923 INTER-LIGAND FREE ENERGY PREDICTED BY IDOCK:   -7.26 KCAL/MOL
REMARK 924 INTRA-LIGAND FREE ENERGY PREDICTED BY IDOCK:   -1.39 KCAL/MOL
REMARK 927      BINDING AFFINITY PREDICTED BY RF-SCORE:    0.00 PKD
ROOT
HETATM    1  O   UNL     1      -9.812  18.548  69.222  1.00  0.00    -0.231 OA 
HETATM    2  C   UNL     1      -9.378  17.377  68.585  1.00  0.00    -0.267 C  
HETATM    3  H   UNL     1      -9.691  18.465  70.160  1.00  0.00     0.000 HD 
ENDROOT
BRANCH   2   4
HETATM    4  C   UNL     1      -9.573  17.511  67.065  1.00  0.00    -0.268 C  
HETATM    5  O   UNL     1      -8.332  17.363  66.422  1.00  0.00    -0.252 OA 
HETATM    6  H   UNL     1      -8.452  17.446  65.484  1.00  0.00     0.000 HD 
BRANCH   4   7
HETATM    7  C   UNL     1     -10.566  16.450  66.522  1.00  0.00    -0.235 C  
HETATM    8  H   UNL     1     -11.210  15.861  64.785  1.00  0.00     0.000 HD 
HETATM    9  O   UNL     1     -10.601  16.510  65.117  1.00  0.00    -0.632 OA 
BRANCH   7  10
HETATM   10  C   UNL     1     -10.175  15.013  66.957  1.00  0.00    -0.257 C  
HETATM   11  H   UNL     1      -9.070  13.594  66.252  1.00  0.00     0.000 HD 
HETATM   12  O   UNL     1      -9.310  14.474  65.986  1.00  0.00    -0.259 OA 
BRANCH  10  13
HETATM   13  C   UNL     1     -11.393  14.064  67.127  1.00  0.00    -0.331 C  
HETATM   14  H   UNL     1     -11.939  12.319  66.473  1.00  0.00     0.000 HD 
HETATM   15  O   UNL     1     -11.194  12.899  66.368  1.00  0.00    -0.282 OA 
BRANCH  13  16
HETATM   16  C   UNL     1     -11.636  13.650  68.559  1.00  0.00    -0.335 C  
HETATM   17  O   UNL     1     -11.669  14.498  69.437  1.00  0.00    -0.281 OA 
BRANCH  16  18
HETATM   18  O   UNL     1     -11.806  12.355  68.890  1.00  0.00    -0.305 OA 
BRANCH  18  19
HETATM   19 CA   UNL     1     -10.685  10.649  67.590  1.00  0.00    -0.172 Ca 
BRANCH  19  20
HETATM   20  O   UNL     1      -9.563   8.944  66.290  1.00  0.00    -0.219 OA 
BRANCH  20  21
HETATM   21  C   UNL     1      -9.107   7.995  67.125  1.00  0.00    -0.137 C  
HETATM   22  O   UNL     1      -9.910   7.193  67.571  1.00  0.00    -0.138 OA 
BRANCH  21  23
HETATM   23  C   UNL     1      -7.687   8.006  67.644  1.00  0.00    -0.110 C  
HETATM   24  H   UNL     1      -5.924   7.777  66.891  1.00  0.00     0.000 HD 
HETATM   25  O   UNL     1      -6.816   7.769  66.565  1.00  0.00    -0.063 OA 
BRANCH  23  26
HETATM   26  C   UNL     1      -7.397   6.967  68.769  1.00  0.00    -0.094 C  
HETATM   27  H   UNL     1      -6.493   5.257  68.918  1.00  0.00     0.000 HD 
HETATM   28  O   UNL     1      -6.670   5.891  68.233  1.00  0.00    -0.053 OA 
BRANCH  26  29
HETATM   29  C   UNL     1      -6.685   7.488  70.065  1.00  0.00    -0.046 C  
BRANCH  29  30
HETATM   30  O   UNL     1      -7.300   6.819  71.157  1.00  0.00    -0.076 OA 
BRANCH  30  31
HETATM   31  C   UNL     1      -8.644   6.429  70.962  1.00  0.00    -0.131 C  
HETATM   32  O   UNL     1      -9.514   7.314  71.647  1.00  0.00    -0.152 OA 
HETATM   33  C   UNL     1     -10.869   6.942  71.446  1.00  0.00    -0.228 C  
HETATM   34  H   UNL     1      -8.005   3.220  71.237  1.00  0.00     0.000 HD 
HETATM   35  C   UNL     1     -11.150   5.571  72.113  1.00  0.00    -0.210 C  
HETATM   36  O   UNL     1     -10.883   5.629  73.493  1.00  0.00    -0.267 OA 
HETATM   37  C   UNL     1     -10.241   4.515  71.450  1.00  0.00    -0.113 C  
HETATM   38  O   UNL     1      -7.920   4.098  70.884  1.00  0.00    -0.061 OA 
HETATM   39  H   UNL     1     -11.055   4.789  73.901  1.00  0.00     0.000 HD 
HETATM   40  O   UNL     1     -10.355   3.262  72.080  1.00  0.00    -0.095 OA 
HETATM   41  C   UNL     1      -8.783   4.997  71.537  1.00  0.00    -0.131 C  
HETATM   42  H   UNL     1      -9.796   2.613  71.671  1.00  0.00     0.000 HD 
BRANCH  33  43
HETATM   43  C   UNL     1     -11.756   8.058  72.019  1.00  0.00    -0.323 C  
HETATM   44  O   UNL     1     -11.703   8.083  73.421  1.00  0.00    -0.481 OA 
HETATM   45  H   UNL     1     -12.251   8.772  73.775  1.00  0.00     0.000 HD 
ENDBRANCH  33  43
ENDBRANCH  30  31
ENDBRANCH  29  30
BRANCH  29  46
HETATM   46  C   UNL     1      -6.669   9.045  70.261  1.00  0.00    -0.047 C  
HETATM   47  O   UNL     1      -6.287   9.385  71.573  1.00  0.00    -0.195 OA 
HETATM   48  H   UNL     1      -6.277  10.327  71.691  1.00  0.00     0.000 HD 
BRANCH  46  49
HETATM   49  C   UNL     1      -7.960   9.773  69.820  1.00  0.00    -0.164 C  
HETATM   50  H   UNL     1      -8.623  11.609  69.713  1.00  0.00     0.000 HD 
HETATM   51  O   UNL     1      -7.830  11.161  69.984  1.00  0.00     0.383 OA 
ENDBRANCH  46  49
ENDBRANCH  29  46
ENDBRANCH  26  29
ENDBRANCH  23  26
ENDBRANCH  21  23
ENDBRANCH  20  21
ENDBRANCH  19  20
ENDBRANCH  18  19
ENDBRANCH  16  18
ENDBRANCH  13  16
ENDBRANCH  10  13
ENDBRANCH   7  10
ENDBRANCH   4   7
ENDBRANCH   2   4
TORSDOF 17
ENDMDL
MODEL      394
REMARK 921   NORMALIZED FREE ENERGY PREDICTED BY IDOCK:   -2.60 KCAL/MOL
REMARK 922        TOTAL FREE ENERGY PREDICTED BY IDOCK:   -8.62 KCAL/MOL
REMARK 923 INTER-LIGAND FREE ENERGY PREDICTED BY IDOCK:   -8.57 KCAL/MOL
REMARK 924 INTRA-LIGAND FREE ENERGY PREDICTED BY IDOCK:   -0.04 KCAL/MOL
REMARK 927      BINDING AFFINITY PREDICTED BY RF-SCORE:    0.00 PKD
ROOT
HETATM    1  O   UNL     1      -5.866   6.388  74.275  1.00  0.00    -0.060 OA 
HETATM    2  C   UNL     1      -7.244   6.174  74.417  1.00  0.00    -0.090 C  
HETATM    3  H   UNL     1      -5.418   6.126  75.071  1.00  0.00     0.000 HD 
ENDROOT
BRANCH   2   4
HETATM    4  C   UNL     1      -7.969   6.597  73.127  1.00  0.00    -0.105 C  
HETATM    5  O   UNL     1      -8.794   5.546  72.692  1.00  0.00    -0.124 OA 
HETATM    6  H   UNL     1      -9.241   5.807  71.895  1.00  0.00     0.000 HD 
BRANCH   4   7
HETATM    7  C   UNL     1      -8.828   7.870  73.348  1.00  0.00    -0.263 C  
HETATM    8  H   UNL     1      -9.080   9.587  72.470  1.00  0.00     0.000 HD 
HETATM    9  O   UNL     1      -8.554   8.807  72.335  1.00  0.00    -0.395 OA 
BRANCH   7  10
HETATM   10  C   UNL     1     -10.347   7.553  73.345  1.00  0.00    -0.350 C  
HETATM   11  H   UNL     1     -11.556   6.507  74.429  1.00  0.00     0.000 HD 
HETATM   12  O   UNL     1     -10.626   6.701  74.430  1.00  0.00    -0.208 OA 
BRANCH  10  13
HETATM   13  C   UNL     1     -10.835   6.875  72.035  1.00  0.00    -0.225 C  
HETATM   14  H   UNL     1     -12.246   5.648  71.509  1.00  0.00     0.000 HD 
HETATM   15  O   UNL     1     -11.947   6.063  72.310  1.00  0.00    -0.318 OA 
BRANCH  13  16
HETATM   16  C   UNL     1     -11.234   7.860  70.962  1.00  0.00    -0.269 C  
HETATM   17  O   UNL     1     -11.797   8.899  71.273  1.00  0.00    -0.285 OA 
BRANCH  16  18
HETATM   18  O   UNL     1     -10.990   7.609  69.660  1.00  0.00    -0.226 OA 
BRANCH  18  19
HETATM   19 CA   UNL     1      -9.009   8.544  68.631  1.00  0.00    -0.129 Ca 
BRANCH  19  20
HETATM   20  O   UNL     1      -7.028   9.478  67.602  1.00  0.00    -0.078 OA 
BRANCH  20  21
HETATM   21  C   UNL     1      -7.399  10.223  66.547  1.00  0.00    -0.113 C  
HETATM   22  O   UNL     1      -6.679  11.152  66.223  1.00  0.00    -0.127 OA 
BRANCH  21  23
HETATM   23  C   UNL     1      -8.745  10.045  65.880  1.00  0.00    -0.140 C  
HETATM   24  H   UNL     1      -9.541   8.776  64.663  1.00  0.00     0.000 HD 
HETATM   25  O   UNL     1      -8.696   8.888  65.082  1.00  0.00    -0.178 OA 
BRANCH  23  26
HETATM   26  C   UNL     1      -9.200  11.250  65.002  1.00  0.00    -0.129 C  
HETATM   27  H   UNL     1      -9.951  11.509  63.233  1.00  0.00     0.000 HD 
HETATM   28  O   UNL     1      -9.674  10.774  63.768  1.00  0.00    -0.264 OA 
BRANCH  26  29
HETATM   29  C   UNL     1     -10.248  12.237  65.623  1.00  0.00    -0.261 C  
BRANCH  29  30
HETATM   30  O   UNL     1      -9.530  13.076  66.515  1.00  0.00    -0.250 OA 
BRANCH  30  31
HETATM   31  C   UNL     1     -10.206  14.241  66.944  1.00  0.00    -0.266 C  
HETATM   32  O   UNL     1      -9.629  15.389  66.343  1.00  0.00    -0.252 OA 
HETATM   33  C   UNL     1     -10.309  16.565  66.752  1.00  0.00    -0.296 C  
HETATM   34  H   UNL     1     -10.501  13.220  70.049  1.00  0.00     0.000 HD 
HETATM   35  C   UNL     1     -10.095  16.804  68.269  1.00  0.00    -0.274 C  
HETATM   36  O   UNL     1      -8.724  16.934  68.560  1.00  0.00    -0.234 OA 
HETATM   37  C   UNL     1     -10.678  15.600  69.037  1.00  0.00    -0.236 C  
HETATM   38  O   UNL     1     -10.598  13.177  69.106  1.00  0.00    -0.119 OA 
HETATM   39  H   UNL     1      -8.593  17.080  69.489  1.00  0.00     0.000 HD 
HETATM   40  O   UNL     1     -10.420  15.688  70.417  1.00  0.00    -0.315 OA 
HETATM   41  C   UNL     1     -10.047  14.311  68.483  1.00  0.00    -0.246 C  
HETATM   42  H   UNL     1     -10.780  14.947  70.889  1.00  0.00     0.000 HD 
BRANCH  33  43
HETATM   43  C   UNL     1      -9.788  17.734  65.902  1.00  0.00    -0.063 C  
HETATM   44  O   UNL     1      -8.396  17.669  65.745  1.00  0.00    -0.537 OA 
HETATM   45  H   UNL     1      -8.074  18.391  65.219  1.00  0.00     0.000 HD 
ENDBRANCH  33  43
ENDBRANCH  30  31
ENDBRANCH  29  30
BRANCH  29  46
HETATM   46  C   UNL     1     -11.493  11.573  66.311  1.00  0.00    -0.049 C  
HETATM   47  O   UNL     1     -12.465  12.540  66.636  1.00  0.00    -0.352 OA 
HETATM   48  H   UNL     1     -13.218  12.139  67.052  1.00  0.00     0.000 HD 
BRANCH  46  49
HETATM   49  C   UNL     1     -11.165  10.649  67.506  1.00  0.00    -0.253 C  
HETATM   50  H   UNL     1     -11.913  10.232  69.263  1.00  0.00     0.000 HD 
HETATM   51  O   UNL     1     -12.114  10.800  68.529  1.00  0.00    -0.493 OA 
ENDBRANCH  46  49
ENDBRANCH  29  46
ENDBRANCH  26  29
ENDBRANCH  23  26
ENDBRANCH  21  23
ENDBRANCH  20  21
ENDBRANCH  19  20
ENDBRANCH  18  19
ENDBRANCH  16  18
ENDBRANCH  13  16
ENDBRANCH  10  13
ENDBRANCH   7  10
ENDBRANCH   4   7
ENDBRANCH   2   4
TORSDOF 17
ENDMDL
MODEL      395
REMARK 921   NORMALIZED FREE ENERGY PREDICTED BY IDOCK:   -2.55 KCAL/MOL
REMARK 922        TOTAL FREE ENERGY PREDICTED BY IDOCK:   -8.53 KCAL/MOL
REMARK 923 INTER-LIGAND FREE ENERGY PREDICTED BY IDOCK:   -7.62 KCAL/MOL
REMARK 924 INTRA-LIGAND FREE ENERGY PREDICTED BY IDOCK:   -0.91 KCAL/MOL
REMARK 927      BINDING AFFINITY PREDICTED BY RF-SCORE:    0.00 PKD
ROOT
HETATM    1  O   UNL     1     -12.509  14.340  71.955  1.00  0.00    -0.320 OA 
HETATM    2  C   UNL     1     -11.845  15.011  70.919  1.00  0.00    -0.324 C  
HETATM    3  H   UNL     1     -12.258  14.714  72.791  1.00  0.00     0.000 HD 
ENDROOT
BRANCH   2   4
HETATM    4  C   UNL     1     -12.253  14.406  69.565  1.00  0.00    -0.282 C  
HETATM    5  O   UNL     1     -12.651  15.437  68.697  1.00  0.00    -0.363 OA 
HETATM    6  H   UNL     1     -12.903  15.063  67.860  1.00  0.00     0.000 HD 
BRANCH   4   7
HETATM    7  C   UNL     1     -11.086  13.610  68.922  1.00  0.00    -0.256 C  
HETATM    8  H   UNL     1     -10.884  12.197  67.602  1.00  0.00     0.000 HD 
HETATM    9  O   UNL     1     -11.599  12.684  67.996  1.00  0.00    -0.300 OA 
BRANCH   7  10
HETATM   10  C   UNL     1     -10.077  14.542  68.200  1.00  0.00    -0.227 C  
HETATM   11  H   UNL     1      -9.648  16.425  68.229  1.00  0.00     0.000 HD 
HETATM   12  O   UNL     1     -10.266  15.855  68.672  1.00  0.00    -0.213 OA 
BRANCH  10  13
HETATM   13  C   UNL     1     -10.229  14.538  66.653  1.00  0.00    -0.275 C  
HETATM   14  H   UNL     1     -11.657  14.800  65.363  1.00  0.00     0.000 HD 
HETATM   15  O   UNL     1     -11.564  14.803  66.309  1.00  0.00    -0.358 OA 
BRANCH  13  16
HETATM   16  C   UNL     1      -9.359  15.561  65.962  1.00  0.00    -0.344 C  
HETATM   17  O   UNL     1      -9.817  16.223  65.043  1.00  0.00    -0.317 OA 
BRANCH  16  18
HETATM   18  O   UNL     1      -8.078  15.752  66.335  1.00  0.00    -0.245 OA 
BRANCH  18  19
HETATM   19 CA   UNL     1      -6.996  14.094  67.727  1.00  0.00    -0.083 Ca 
BRANCH  19  20
HETATM   20  O   UNL     1      -5.914  12.437  69.119  1.00  0.00    -0.070 OA 
BRANCH  20  21
HETATM   21  C   UNL     1      -6.456  11.234  68.858  1.00  0.00    -0.063 C  
HETATM   22  O   UNL     1      -6.277  10.340  69.668  1.00  0.00    -0.046 OA 
BRANCH  21  23
HETATM   23  C   UNL     1      -7.117  10.928  67.533  1.00  0.00    -0.090 C  
HETATM   24  H   UNL     1      -8.110  11.920  66.208  1.00  0.00     0.000 HD 
HETATM   25  O   UNL     1      -7.695  12.112  67.041  1.00  0.00    -0.160 OA 
BRANCH  23  26
HETATM   26  C   UNL     1      -8.207   9.816  67.591  1.00  0.00    -0.114 C  
HETATM   27  H   UNL     1      -9.974   9.604  68.362  1.00  0.00     0.000 HD 
HETATM   28  O   UNL     1      -9.309  10.282  68.327  1.00  0.00    -0.135 OA 
BRANCH  26  29
HETATM   29  C   UNL     1      -8.699   9.218  66.228  1.00  0.00    -0.142 C  
BRANCH  29  30
HETATM   30  O   UNL     1      -8.409   7.829  66.270  1.00  0.00    -0.118 OA 
BRANCH  30  31
HETATM   31  C   UNL     1      -9.506   6.979  66.536  1.00  0.00    -0.150 C  
HETATM   32  O   UNL     1      -9.733   6.899  67.934  1.00  0.00    -0.122 OA 
HETATM   33  C   UNL     1     -10.843   6.060  68.215  1.00  0.00    -0.284 C  
HETATM   34  H   UNL     1      -8.664   4.776  64.252  1.00  0.00     0.000 HD 
HETATM   35  C   UNL     1     -10.519   4.597  67.817  1.00  0.00     0.234 C  
HETATM   36  O   UNL     1      -9.393   4.131  68.521  1.00  0.00    -0.135 OA 
HETATM   37  C   UNL     1     -10.238   4.558  66.300  1.00  0.00    -0.239 C  
HETATM   38  O   UNL     1      -8.891   5.633  64.594  1.00  0.00    -0.048 OA 
HETATM   39  H   UNL     1      -9.195   3.235  68.277  1.00  0.00     0.000 HD 
HETATM   40  O   UNL     1      -9.824   3.281  65.881  1.00  0.00    -0.400 OA 
HETATM   41  C   UNL     1      -9.136   5.581  65.978  1.00  0.00    -0.156 C  
HETATM   42  H   UNL     1      -9.651   3.258  64.947  1.00  0.00     0.000 HD 
BRANCH  33  43
HETATM   43  C   UNL     1     -11.172   6.195  69.710  1.00  0.00    -0.423 C  
HETATM   44  O   UNL     1     -12.019   7.287  69.949  1.00  0.00    -0.515 OA 
HETATM   45  H   UNL     1     -12.223   7.370  70.872  1.00  0.00     0.000 HD 
ENDBRANCH  33  43
ENDBRANCH  30  31
ENDBRANCH  29  30
BRANCH  29  46
HETATM   46  C   UNL     1      -8.131   9.901  64.934  1.00  0.00    -0.145 C  
HETATM   47  O   UNL     1      -9.159  10.520  64.196  1.00  0.00    -0.199 OA 
HETATM   48  H   UNL     1      -8.815  10.933  63.413  1.00  0.00     0.000 HD 
BRANCH  46  49
HETATM   49  C   UNL     1      -7.242   8.993  64.052  1.00  0.00    -0.095 C  
HETATM   50  H   UNL     1      -5.747   9.196  62.809  1.00  0.00     0.000 HD 
HETATM   51  O   UNL     1      -6.293   9.754  63.351  1.00  0.00    -0.103 OA 
ENDBRANCH  46  49
ENDBRANCH  29  46
ENDBRANCH  26  29
ENDBRANCH  23  26
ENDBRANCH  21  23
ENDBRANCH  20  21
ENDBRANCH  19  20
ENDBRANCH  18  19
ENDBRANCH  16  18
ENDBRANCH  13  16
ENDBRANCH  10  13
ENDBRANCH   7  10
ENDBRANCH   4   7
ENDBRANCH   2   4
TORSDOF 17
ENDMDL
MODEL      396
REMARK 921   NORMALIZED FREE ENERGY PREDICTED BY IDOCK:   -2.53 KCAL/MOL
REMARK 922        TOTAL FREE ENERGY PREDICTED BY IDOCK:   -8.49 KCAL/MOL
REMARK 923 INTER-LIGAND FREE ENERGY PREDICTED BY IDOCK:   -6.84 KCAL/MOL
REMARK 924 INTRA-LIGAND FREE ENERGY PREDICTED BY IDOCK:   -1.65 KCAL/MOL
REMARK 927      BINDING AFFINITY PREDICTED BY RF-SCORE:    0.00 PKD
ROOT
HETATM    1  O   UNL     1     -13.025  13.883  69.990  1.00  0.00    -0.243 OA 
HETATM    2  C   UNL     1     -12.072  12.889  69.730  1.00  0.00    -0.245 C  
HETATM    3  H   UNL     1     -12.611  14.737  69.964  1.00  0.00     0.000 HD 
ENDROOT
BRANCH   2   4
HETATM    4  C   UNL     1     -12.742  11.505  69.773  1.00  0.00     0.204 C  
HETATM    5  O   UNL     1     -12.320  10.750  68.664  1.00  0.00    -0.825 OA 
HETATM    6  H   UNL     1     -12.734   9.895  68.690  1.00  0.00     0.000 HD 
BRANCH   4   7
HETATM    7  C   UNL     1     -12.394  10.743  71.079  1.00  0.00    -0.404 C  
HETATM    8  H   UNL     1     -12.464  11.090  72.991  1.00  0.00     0.000 HD 
HETATM    9  O   UNL     1     -12.677  11.557  72.191  1.00  0.00    -0.149 OA 
BRANCH   7  10
HETATM   10  C   UNL     1     -13.192   9.418  71.207  1.00  0.00    -0.295 C  
HETATM   11  H   UNL     1     -14.446   8.659  72.465  1.00  0.00     0.000 HD 
HETATM   12  O   UNL     1     -13.958   9.471  72.386  1.00  0.00    -0.381 OA 
BRANCH  10  13
HETATM   13  C   UNL     1     -12.288   8.154  71.250  1.00  0.00    -0.265 C  
HETATM   14  H   UNL     1     -12.330   6.351  70.530  1.00  0.00     0.000 HD 
HETATM   15  O   UNL     1     -12.883   7.123  70.504  1.00  0.00    -0.052 OA 
BRANCH  13  16
HETATM   16  C   UNL     1     -10.902   8.388  70.697  1.00  0.00    -0.231 C  
HETATM   17  O   UNL     1     -10.712   8.322  69.493  1.00  0.00    -0.227 OA 
BRANCH  16  18
HETATM   18  O   UNL     1      -9.864   8.658  71.513  1.00  0.00    -0.218 OA 
BRANCH  18  19
HETATM   19 CA   UNL     1      -8.105  10.128  70.735  1.00  0.00    -0.174 Ca 
BRANCH  19  20
HETATM   20  O   UNL     1      -6.347  11.597  69.959  1.00  0.00    -0.142 OA 
BRANCH  20  21
HETATM   21  C   UNL     1      -6.138  11.367  68.651  1.00  0.00    -0.043 C  
HETATM   22  O   UNL     1      -5.272  10.566  68.344  1.00  0.00    -0.035 OA 
BRANCH  21  23
HETATM   23  C   UNL     1      -6.817  12.189  67.578  1.00  0.00    -0.127 C  
HETATM   24  H   UNL     1      -7.114  14.066  67.238  1.00  0.00     0.000 HD 
HETATM   25  O   UNL     1      -6.687  13.549  67.912  1.00  0.00    -0.115 OA 
BRANCH  23  26
HETATM   26  C   UNL     1      -8.326  11.860  67.364  1.00  0.00    -0.163 C  
HETATM   27  H   UNL     1     -10.029  12.601  67.919  1.00  0.00     0.000 HD 
HETATM   28  O   UNL     1      -9.110  12.802  68.050  1.00  0.00    -0.194 OA 
BRANCH  26  29
HETATM   29  C   UNL     1      -8.831  11.731  65.886  1.00  0.00    -0.003 C  
BRANCH  29  30
HETATM   30  O   UNL     1      -8.861  13.048  65.355  1.00  0.00     0.831 OA 
BRANCH  30  31
HETATM   31  C   UNL     1      -9.875  13.892  65.862  1.00  0.00    -0.267 C  
HETATM   32  O   UNL     1     -11.057  13.750  65.092  1.00  0.00    -0.307 OA 
HETATM   33  C   UNL     1     -12.089  14.582  65.600  1.00  0.00    -0.293 C  
HETATM   34  H   UNL     1      -7.835  16.400  66.434  1.00  0.00     0.000 HD 
HETATM   35  C   UNL     1     -11.712  16.074  65.412  1.00  0.00     0.545 C  
HETATM   36  O   UNL     1     -11.508  16.364  64.050  1.00  0.00    -1.465 OA 
HETATM   37  C   UNL     1     -10.417  16.350  66.203  1.00  0.00    -0.314 C  
HETATM   38  O   UNL     1      -8.161  15.511  66.499  1.00  0.00    -0.225 OA 
HETATM   39  H   UNL     1     -11.277  17.278  63.935  1.00  0.00     0.000 HD 
HETATM   40  O   UNL     1      -9.946  17.658  65.990  1.00  0.00    -0.469 OA 
HETATM   41  C   UNL     1      -9.343  15.344  65.755  1.00  0.00    -0.229 C  
HETATM   42  H   UNL     1      -9.149  17.827  66.477  1.00  0.00     0.000 HD 
BRANCH  33  43
HETATM   43  C   UNL     1     -13.393  14.217  64.872  1.00  0.00     0.792 C  
HETATM   44  O   UNL     1     -13.490  12.834  64.665  1.00  0.00    -0.471 OA 
HETATM   45  H   UNL     1     -14.296  12.608  64.215  1.00  0.00     0.000 HD 
ENDBRANCH  33  43
ENDBRANCH  30  31
ENDBRANCH  29  30
BRANCH  29  46
HETATM   46  C   UNL     1     -10.199  10.985  65.691  1.00  0.00    -0.260 C  
HETATM   47  O   UNL     1     -10.396  10.020  66.698  1.00  0.00    -0.234 OA 
HETATM   48  H   UNL     1     -11.223   9.570  66.580  1.00  0.00     0.000 HD 
BRANCH  46  49
HETATM   49  C   UNL     1     -10.434  10.409  64.275  1.00  0.00     0.200 C  
HETATM   50  H   UNL     1     -11.331  10.945  62.623  1.00  0.00     0.000 HD 
HETATM   51  O   UNL     1     -11.186  11.299  63.493  1.00  0.00    -0.344 OA 
ENDBRANCH  46  49
ENDBRANCH  29  46
ENDBRANCH  26  29
ENDBRANCH  23  26
ENDBRANCH  21  23
ENDBRANCH  20  21
ENDBRANCH  19  20
ENDBRANCH  18  19
ENDBRANCH  16  18
ENDBRANCH  13  16
ENDBRANCH  10  13
ENDBRANCH   7  10
ENDBRANCH   4   7
ENDBRANCH   2   4
TORSDOF 17
ENDMDL
MODEL      397
REMARK 921   NORMALIZED FREE ENERGY PREDICTED BY IDOCK:   -2.48 KCAL/MOL
REMARK 922        TOTAL FREE ENERGY PREDICTED BY IDOCK:   -8.39 KCAL/MOL
REMARK 923 INTER-LIGAND FREE ENERGY PREDICTED BY IDOCK:   -8.32 KCAL/MOL
REMARK 924 INTRA-LIGAND FREE ENERGY PREDICTED BY IDOCK:   -0.07 KCAL/MOL
REMARK 927      BINDING AFFINITY PREDICTED BY RF-SCORE:    0.00 PKD
ROOT
HETATM    1  O   UNL     1     -11.829  16.520  71.851  1.00  0.00    -0.658 OA 
HETATM    2  C   UNL     1     -11.729  15.122  71.823  1.00  0.00    -0.413 C  
HETATM    3  H   UNL     1     -11.326  16.862  72.581  1.00  0.00     0.000 HD 
ENDROOT
BRANCH   2   4
HETATM    4  C   UNL     1     -12.543  14.568  70.642  1.00  0.00    -0.352 C  
HETATM    5  O   UNL     1     -13.481  15.532  70.232  1.00  0.00    -0.752 OA 
HETATM    6  H   UNL     1     -13.984  15.190  69.502  1.00  0.00     0.000 HD 
BRANCH   4   7
HETATM    7  C   UNL     1     -11.629  14.194  69.445  1.00  0.00    -0.304 C  
HETATM    8  H   UNL     1     -11.205  12.595  68.423  1.00  0.00     0.000 HD 
HETATM    9  O   UNL     1     -11.765  12.824  69.156  1.00  0.00    -0.290 OA 
BRANCH   7  10
HETATM   10  C   UNL     1     -11.973  15.015  68.174  1.00  0.00    -0.165 C  
HETATM   11  H   UNL     1     -12.307  14.629  66.311  1.00  0.00     0.000 HD 
HETATM   12  O   UNL     1     -12.096  14.126  67.089  1.00  0.00    -0.426 OA 
BRANCH  10  13
HETATM   13  C   UNL     1     -10.907  16.090  67.824  1.00  0.00    -0.324 C  
HETATM   14  H   UNL     1     -10.097  17.626  68.694  1.00  0.00     0.000 HD 
HETATM   15  O   UNL     1     -10.749  16.969  68.908  1.00  0.00    -0.335 OA 
BRANCH  13  16
HETATM   16  C   UNL     1      -9.551  15.507  67.499  1.00  0.00    -0.212 C  
HETATM   17  O   UNL     1      -8.677  15.496  68.351  1.00  0.00    -0.165 OA 
BRANCH  16  18
HETATM   18  O   UNL     1      -9.284  15.007  66.276  1.00  0.00    -0.289 OA 
BRANCH  18  19
HETATM   19 CA   UNL     1      -8.208  12.847  66.095  1.00  0.00    -0.380 Ca 
BRANCH  19  20
HETATM   20  O   UNL     1      -7.133  10.687  65.915  1.00  0.00    -0.133 OA 
BRANCH  20  21
HETATM   21  C   UNL     1      -6.343  10.507  66.987  1.00  0.00    -0.074 C  
HETATM   22  O   UNL     1      -5.161  10.783  66.878  1.00  0.00    -0.041 OA 
BRANCH  21  23
HETATM   23  C   UNL     1      -6.843   9.822  68.239  1.00  0.00    -0.068 C  
HETATM   24  H   UNL     1      -6.876  10.220  70.128  1.00  0.00     0.000 HD 
HETATM   25  O   UNL     1      -6.562  10.650  69.342  1.00  0.00    -0.055 OA 
BRANCH  23  26
HETATM   26  C   UNL     1      -6.235   8.410  68.496  1.00  0.00    -0.053 C  
HETATM   27  H   UNL     1      -5.166   7.557  69.871  1.00  0.00     0.000 HD 
HETATM   28  O   UNL     1      -5.537   8.418  69.714  1.00  0.00    -0.029 OA 
BRANCH  26  29
HETATM   29  C   UNL     1      -7.215   7.186  68.459  1.00  0.00    -0.094 C  
BRANCH  29  30
HETATM   30  O   UNL     1      -8.518   7.721  68.273  1.00  0.00    -0.124 OA 
BRANCH  30  31
HETATM   31  C   UNL     1      -9.047   8.446  69.364  1.00  0.00    -0.154 C  
HETATM   32  O   UNL     1      -8.489   7.975  70.579  1.00  0.00    -0.121 OA 
HETATM   33  C   UNL     1      -9.001   8.705  71.684  1.00  0.00    -0.235 C  
HETATM   34  H   UNL     1     -12.097   8.514  68.151  1.00  0.00     0.000 HD 
HETATM   35  C   UNL     1     -10.517   8.427  71.850  1.00  0.00    -0.296 C  
HETATM   36  O   UNL     1     -10.748   7.054  72.053  1.00  0.00    -0.211 OA 
HETATM   37  C   UNL     1     -11.238   8.893  70.568  1.00  0.00    -0.252 C  
HETATM   38  O   UNL     1     -11.158   8.657  68.155  1.00  0.00     0.090 OA 
HETATM   39  H   UNL     1     -11.677   6.884  72.154  1.00  0.00     0.000 HD 
HETATM   40  O   UNL     1     -12.607   8.570  70.595  1.00  0.00    -0.482 OA 
HETATM   41  C   UNL     1     -10.579   8.211  69.357  1.00  0.00    -0.200 C  
HETATM   42  H   UNL     1     -13.051   8.857  69.806  1.00  0.00     0.000 HD 
BRANCH  33  43
HETATM   43  C   UNL     1      -8.197   8.304  72.930  1.00  0.00    -0.165 C  
HETATM   44  O   UNL     1      -9.027   7.741  73.912  1.00  0.00    -0.253 OA 
HETATM   45  H   UNL     1      -8.530   7.492  74.682  1.00  0.00     0.000 HD 
ENDBRANCH  33  43
ENDBRANCH  30  31
ENDBRANCH  29  30
BRANCH  29  46
HETATM   46  C   UNL     1      -7.146   6.215  69.690  1.00  0.00    -0.073 C  
HETATM   47  O   UNL     1      -5.839   5.723  69.873  1.00  0.00    -0.021 OA 
HETATM   48  H   UNL     1      -5.797   5.136  70.617  1.00  0.00     0.000 HD 
BRANCH  46  49
HETATM   49  C   UNL     1      -8.202   5.085  69.691  1.00  0.00    -0.088 C  
HETATM   50  H   UNL     1      -9.511   4.326  70.928  1.00  0.00     0.000 HD 
HETATM   51  O   UNL     1      -8.862   5.021  70.927  1.00  0.00    -0.127 OA 
ENDBRANCH  46  49
ENDBRANCH  29  46
ENDBRANCH  26  29
ENDBRANCH  23  26
ENDBRANCH  21  23
ENDBRANCH  20  21
ENDBRANCH  19  20
ENDBRANCH  18  19
ENDBRANCH  16  18
ENDBRANCH  13  16
ENDBRANCH  10  13
ENDBRANCH   7  10
ENDBRANCH   4   7
ENDBRANCH   2   4
TORSDOF 17
ENDMDL
MODEL      398
REMARK 921   NORMALIZED FREE ENERGY PREDICTED BY IDOCK:   -2.47 KCAL/MOL
REMARK 922        TOTAL FREE ENERGY PREDICTED BY IDOCK:   -8.37 KCAL/MOL
REMARK 923 INTER-LIGAND FREE ENERGY PREDICTED BY IDOCK:   -9.52 KCAL/MOL
REMARK 924 INTRA-LIGAND FREE ENERGY PREDICTED BY IDOCK:    1.15 KCAL/MOL
REMARK 927      BINDING AFFINITY PREDICTED BY RF-SCORE:    0.00 PKD
ROOT
HETATM    1  O   UNL     1     -13.734  16.251  73.977  1.00  0.00    -0.764 OA 
HETATM    2  C   UNL     1     -12.435  16.668  73.652  1.00  0.00    -0.245 C  
HETATM    3  H   UNL     1     -14.181  16.940  74.454  1.00  0.00     0.000 HD 
ENDROOT
BRANCH   2   4
HETATM    4  C   UNL     1     -11.711  15.552  72.880  1.00  0.00    -0.413 C  
HETATM    5  O   UNL     1     -12.225  14.305  73.275  1.00  0.00    -0.053 OA 
HETATM    6  H   UNL     1     -11.778  13.616  72.797  1.00  0.00     0.000 HD 
BRANCH   4   7
HETATM    7  C   UNL     1     -11.880  15.719  71.346  1.00  0.00    -0.442 C  
HETATM    8  H   UNL     1     -10.830  15.356  69.751  1.00  0.00     0.000 HD 
HETATM    9  O   UNL     1     -10.726  15.254  70.690  1.00  0.00    -0.280 OA 
BRANCH   7  10
HETATM   10  C   UNL     1     -13.113  14.944  70.811  1.00  0.00    -0.348 C  
HETATM   11  H   UNL     1     -14.614  14.004  71.582  1.00  0.00     0.000 HD 
HETATM   12  O   UNL     1     -13.859  14.479  71.910  1.00  0.00    -0.381 OA 
BRANCH  10  13
HETATM   13  C   UNL     1     -12.741  13.735  69.908  1.00  0.00     0.061 C  
HETATM   14  H   UNL     1     -11.343  13.288  68.637  1.00  0.00     0.000 HD 
HETATM   15  O   UNL     1     -11.571  14.027  69.189  1.00  0.00    -0.269 OA 
BRANCH  13  16
HETATM   16  C   UNL     1     -12.505  12.459  70.682  1.00  0.00    -0.234 C  
HETATM   17  O   UNL     1     -13.232  12.177  71.621  1.00  0.00    -0.406 OA 
BRANCH  16  18
HETATM   18  O   UNL     1     -11.494  11.627  70.360  1.00  0.00    -0.182 OA 
BRANCH  18  19
HETATM   19 CA   UNL     1      -9.329  12.559  69.809  1.00  0.00    -0.060 Ca 
BRANCH  19  20
HETATM   20  O   UNL     1      -7.166  13.492  69.257  1.00  0.00    -0.036 OA 
BRANCH  20  21
HETATM   21  C   UNL     1      -7.346  14.700  68.698  1.00  0.00    -0.125 C  
HETATM   22  O   UNL     1      -7.461  15.661  69.440  1.00  0.00    -0.203 OA 
BRANCH  21  23
HETATM   23  C   UNL     1      -7.579  14.865  67.213  1.00  0.00    -0.181 C  
HETATM   24  H   UNL     1      -6.740  15.832  65.768  1.00  0.00     0.000 HD 
HETATM   25  O   UNL     1      -6.594  15.729  66.701  1.00  0.00    -0.136 OA 
BRANCH  23  26
HETATM   26  C   UNL     1      -8.987  15.417  66.832  1.00  0.00    -0.247 C  
HETATM   27  H   UNL     1      -9.698  16.825  65.704  1.00  0.00     0.000 HD 
HETATM   28  O   UNL     1      -8.840  16.488  65.936  1.00  0.00    -0.464 OA 
BRANCH  26  29
HETATM   29  C   UNL     1     -10.031  14.395  66.264  1.00  0.00    -0.306 C  
BRANCH  29  30
HETATM   30  O   UNL     1      -9.297  13.240  65.882  1.00  0.00    -0.092 OA 
BRANCH  30  31
HETATM   31  C   UNL     1      -9.189  12.228  66.863  1.00  0.00    -0.209 C  
HETATM   32  O   UNL     1      -7.910  11.620  66.797  1.00  0.00    -0.160 OA 
HETATM   33  C   UNL     1      -7.782  10.611  67.788  1.00  0.00    -0.100 C  
HETATM   34  H   UNL     1     -12.246  11.123  66.405  1.00  0.00     0.000 HD 
HETATM   35  C   UNL     1      -8.755   9.442  67.486  1.00  0.00    -0.122 C  
HETATM   36  O   UNL     1      -8.485   8.889  66.221  1.00  0.00    -0.116 OA 
HETATM   37  C   UNL     1     -10.196   9.991  67.518  1.00  0.00    -0.212 C  
HETATM   38  O   UNL     1     -11.571  11.763  66.596  1.00  0.00    -0.490 OA 
HETATM   39  H   UNL     1      -9.081   8.173  66.036  1.00  0.00     0.000 HD 
HETATM   40  O   UNL     1     -11.133   9.012  67.141  1.00  0.00    -0.306 OA 
HETATM   41  C   UNL     1     -10.290  11.184  66.551  1.00  0.00    -0.243 C  
HETATM   42  H   UNL     1     -12.021   9.350  67.161  1.00  0.00     0.000 HD 
BRANCH  33  43
HETATM   43  C   UNL     1      -6.315  10.154  67.812  1.00  0.00    -0.058 C  
HETATM   44  O   UNL     1      -5.897   9.718  66.546  1.00  0.00    -0.052 OA 
HETATM   45  H   UNL     1      -4.991   9.436  66.561  1.00  0.00     0.000 HD 
ENDBRANCH  33  43
ENDBRANCH  30  31
ENDBRANCH  29  30
BRANCH  29  46
HETATM   46  C   UNL     1     -10.945  14.922  65.102  1.00  0.00    -0.399 C  
HETATM   47  O   UNL     1     -11.345  16.252  65.338  1.00  0.00    -0.009 OA 
HETATM   48  H   UNL     1     -11.898  16.572  64.636  1.00  0.00     0.000 HD 
BRANCH  46  49
HETATM   49  C   UNL     1     -12.139  14.008  64.743  1.00  0.00    -0.437 C  
HETATM   50  H   UNL     1     -13.192  13.555  63.159  1.00  0.00     0.000 HD 
HETATM   51  O   UNL     1     -12.458  14.117  63.380  1.00  0.00    -0.797 OA 
ENDBRANCH  46  49
ENDBRANCH  29  46
ENDBRANCH  26  29
ENDBRANCH  23  26
ENDBRANCH  21  23
ENDBRANCH  20  21
ENDBRANCH  19  20
ENDBRANCH  18  19
ENDBRANCH  16  18
ENDBRANCH  13  16
ENDBRANCH  10  13
ENDBRANCH   7  10
ENDBRANCH   4   7
ENDBRANCH   2   4
TORSDOF 17
ENDMDL
MODEL      399
REMARK 921   NORMALIZED FREE ENERGY PREDICTED BY IDOCK:   -2.38 KCAL/MOL
REMARK 922        TOTAL FREE ENERGY PREDICTED BY IDOCK:   -8.19 KCAL/MOL
REMARK 923 INTER-LIGAND FREE ENERGY PREDICTED BY IDOCK:   -7.25 KCAL/MOL
REMARK 924 INTRA-LIGAND FREE ENERGY PREDICTED BY IDOCK:   -0.94 KCAL/MOL
REMARK 927      BINDING AFFINITY PREDICTED BY RF-SCORE:    0.00 PKD
ROOT
HETATM    1  O   UNL     1     -10.344   5.530  69.701  1.00  0.00    -0.237 OA 
HETATM    2  C   UNL     1      -9.810   4.236  69.638  1.00  0.00    -0.174 C  
HETATM    3  H   UNL     1     -11.142   5.522  70.215  1.00  0.00     0.000 HD 
ENDROOT
BRANCH   2   4
HETATM    4  C   UNL     1      -8.517   4.249  68.804  1.00  0.00    -0.083 C  
HETATM    5  O   UNL     1      -7.438   4.616  69.627  1.00  0.00    -0.051 OA 
HETATM    6  H   UNL     1      -6.639   4.624  69.112  1.00  0.00     0.000 HD 
BRANCH   4   7
HETATM    7  C   UNL     1      -8.234   2.862  68.169  1.00  0.00    -0.072 C  
HETATM    8  H   UNL     1      -9.275   1.400  67.420  1.00  0.00     0.000 HD 
HETATM    9  O   UNL     1      -9.448   2.250  67.809  1.00  0.00    -0.188 OA 
BRANCH   7  10
HETATM   10  C   UNL     1      -7.332   2.973  66.912  1.00  0.00    -0.070 C  
HETATM   11  H   UNL     1      -5.920   4.144  66.305  1.00  0.00     0.000 HD 
HETATM   12  O   UNL     1      -6.473   4.076  67.076  1.00  0.00    -0.039 OA 
BRANCH  10  13
HETATM   13  C   UNL     1      -8.130   3.150  65.591  1.00  0.00    -0.086 C  
HETATM   14  H   UNL     1      -9.599   2.257  64.686  1.00  0.00     0.000 HD 
HETATM   15  O   UNL     1      -9.111   2.149  65.494  1.00  0.00    -0.130 OA 
BRANCH  13  16
HETATM   16  C   UNL     1      -8.821   4.489  65.482  1.00  0.00    -0.130 C  
HETATM   17  O   UNL     1     -10.040   4.547  65.533  1.00  0.00    -0.208 OA 
BRANCH  16  18
HETATM   18  O   UNL     1      -8.116   5.625  65.317  1.00  0.00    -0.111 OA 
BRANCH  18  19
HETATM   19 CA   UNL     1      -7.465   6.902  67.267  1.00  0.00    -0.075 Ca 
BRANCH  19  20
HETATM   20  O   UNL     1      -6.814   8.179  69.217  1.00  0.00    -0.049 OA 
BRANCH  20  21
HETATM   21  C   UNL     1      -7.902   8.387  69.979  1.00  0.00    -0.103 C  
HETATM   22  O   UNL     1      -8.489   7.411  70.413  1.00  0.00    -0.138 OA 
BRANCH  21  23
HETATM   23  C   UNL     1      -8.496   9.765  70.161  1.00  0.00    -0.174 C  
HETATM   24  H   UNL     1     -10.144  10.493  70.854  1.00  0.00     0.000 HD 
HETATM   25  O   UNL     1      -9.771   9.627  70.740  1.00  0.00    -0.250 OA 
BRANCH  23  26
HETATM   26  C   UNL     1      -8.622  10.598  68.849  1.00  0.00    -0.158 C  
HETATM   27  H   UNL     1      -7.555  11.905  67.893  1.00  0.00     0.000 HD 
HETATM   28  O   UNL     1      -7.478  11.398  68.693  1.00  0.00    -0.104 OA 
BRANCH  26  29
HETATM   29  C   UNL     1      -8.898   9.810  67.521  1.00  0.00    -0.125 C  
BRANCH  29  30
HETATM   30  O   UNL     1      -8.212  10.508  66.491  1.00  0.00    -0.124 OA 
BRANCH  30  31
HETATM   31  C   UNL     1      -8.832  11.692  66.032  1.00  0.00    -0.105 C  
HETATM   32  O   UNL     1      -9.757  12.165  66.997  1.00  0.00    -0.197 OA 
HETATM   33  C   UNL     1     -10.376  13.363  66.555  1.00  0.00    -0.284 C  
HETATM   34  H   UNL     1      -9.135  10.623  62.943  1.00  0.00     0.000 HD 
HETATM   35  C   UNL     1     -11.262  13.079  65.314  1.00  0.00    -0.289 C  
HETATM   36  O   UNL     1     -12.253  12.129  65.622  1.00  0.00    -0.571 OA 
HETATM   37  C   UNL     1     -10.357  12.541  64.186  1.00  0.00    -0.390 C  
HETATM   38  O   UNL     1      -8.681  10.844  63.747  1.00  0.00    -0.125 OA 
HETATM   39  H   UNL     1     -12.795  11.955  64.862  1.00  0.00     0.000 HD 
HETATM   40  O   UNL     1     -11.105  12.152  63.061  1.00  0.00    -0.680 OA 
HETATM   41  C   UNL     1      -9.573  11.330  64.720  1.00  0.00    -0.235 C  
HETATM   42  H   UNL     1     -10.548  11.821  62.367  1.00  0.00     0.000 HD 
BRANCH  33  43
HETATM   43  C   UNL     1     -11.187  13.937  67.727  1.00  0.00    -0.293 C  
HETATM   44  O   UNL     1     -12.021  12.964  68.296  1.00  0.00    -0.332 OA 
HETATM   45  H   UNL     1     -12.521  13.318  69.020  1.00  0.00     0.000 HD 
ENDBRANCH  33  43
ENDBRANCH  30  31
ENDBRANCH  29  30
BRANCH  29  46
HETATM   46  C   UNL     1     -10.408   9.570  67.167  1.00  0.00    -0.253 C  
HETATM   47  O   UNL     1     -11.248  10.025  68.202  1.00  0.00    -0.459 OA 
HETATM   48  H   UNL     1     -12.161   9.880  67.987  1.00  0.00     0.000 HD 
BRANCH  46  49
HETATM   49  C   UNL     1     -10.755   8.130  66.722  1.00  0.00     0.000 C  
HETATM   50  H   UNL     1     -10.287   6.303  67.237  1.00  0.00     0.000 HD 
HETATM   51  O   UNL     1     -10.075   7.188  67.510  1.00  0.00    -0.159 OA 
ENDBRANCH  46  49
ENDBRANCH  29  46
ENDBRANCH  26  29
ENDBRANCH  23  26
ENDBRANCH  21  23
ENDBRANCH  20  21
ENDBRANCH  19  20
ENDBRANCH  18  19
ENDBRANCH  16  18
ENDBRANCH  13  16
ENDBRANCH  10  13
ENDBRANCH   7  10
ENDBRANCH   4   7
ENDBRANCH   2   4
TORSDOF 17
ENDMDL
MODEL      400
REMARK 921   NORMALIZED FREE ENERGY PREDICTED BY IDOCK:   -2.34 KCAL/MOL
REMARK 922        TOTAL FREE ENERGY PREDICTED BY IDOCK:   -8.10 KCAL/MOL
REMARK 923 INTER-LIGAND FREE ENERGY PREDICTED BY IDOCK:   -6.68 KCAL/MOL
REMARK 924 INTRA-LIGAND FREE ENERGY PREDICTED BY IDOCK:   -1.42 KCAL/MOL
REMARK 927      BINDING AFFINITY PREDICTED BY RF-SCORE:    0.00 PKD
ROOT
HETATM    1  O   UNL     1      -9.852  16.332  68.891  1.00  0.00    -0.224 OA 
HETATM    2  C   UNL     1      -9.488  16.575  67.559  1.00  0.00    -0.224 C  
HETATM    3  H   UNL     1      -9.109  16.495  69.460  1.00  0.00     0.000 HD 
ENDROOT
BRANCH   2   4
HETATM    4  C   UNL     1     -10.691  16.312  66.637  1.00  0.00    -0.197 C  
HETATM    5  O   UNL     1     -10.366  16.700  65.326  1.00  0.00    -0.609 OA 
HETATM    6  H   UNL     1     -11.109  16.538  64.757  1.00  0.00     0.000 HD 
BRANCH   4   7
HETATM    7  C   UNL     1     -11.100  14.815  66.647  1.00  0.00    -0.333 C  
HETATM    8  H   UNL     1     -11.874  13.558  67.912  1.00  0.00     0.000 HD 
HETATM    9  O   UNL     1     -11.624  14.475  67.907  1.00  0.00    -0.311 OA 
BRANCH   7  10
HETATM   10  C   UNL     1     -12.157  14.496  65.556  1.00  0.00    -0.299 C  
HETATM   11  H   UNL     1     -13.825  13.525  65.471  1.00  0.00     0.000 HD 
HETATM   12  O   UNL     1     -13.177  13.720  66.139  1.00  0.00    -0.093 OA 
BRANCH  10  13
HETATM   13  C   UNL     1     -11.576  13.728  64.337  1.00  0.00    -0.395 C  
HETATM   14  H   UNL     1      -9.840  13.069  63.767  1.00  0.00     0.000 HD 
HETATM   15  O   UNL     1     -10.195  13.538  64.512  1.00  0.00    -0.396 OA 
BRANCH  13  16
HETATM   16  C   UNL     1     -12.207  12.372  64.125  1.00  0.00    -0.468 C  
HETATM   17  O   UNL     1     -13.248  12.281  63.493  1.00  0.00    -0.716 OA 
BRANCH  16  18
HETATM   18  O   UNL     1     -11.647  11.256  64.632  1.00  0.00    -0.039 OA 
BRANCH  18  19
HETATM   19 CA   UNL     1      -9.575  10.441  63.684  1.00  0.00    -0.192 Ca 
BRANCH  19  20
HETATM   20  O   UNL     1      -7.504   9.626  62.735  1.00  0.00    -0.110 OA 
BRANCH  20  21
HETATM   21  C   UNL     1      -7.341   8.341  63.095  1.00  0.00    -0.105 C  
HETATM   22  O   UNL     1      -7.873   7.484  62.409  1.00  0.00    -0.111 OA 
BRANCH  21  23
HETATM   23  C   UNL     1      -6.674   7.956  64.397  1.00  0.00    -0.056 C  
HETATM   24  H   UNL     1      -4.965   7.232  64.927  1.00  0.00     0.000 HD 
HETATM   25  O   UNL     1      -5.384   7.474  64.110  1.00  0.00    -0.029 OA 
BRANCH  23  26
HETATM   26  C   UNL     1      -7.443   6.885  65.229  1.00  0.00    -0.089 C  
HETATM   27  H   UNL     1      -7.023   5.216  66.122  1.00  0.00     0.000 HD 
HETATM   28  O   UNL     1      -6.554   5.868  65.615  1.00  0.00    -0.042 OA 
BRANCH  26  29
HETATM   29  C   UNL     1      -8.245   7.385  66.480  1.00  0.00    -0.120 C  
BRANCH  29  30
HETATM   30  O   UNL     1      -9.152   6.346  66.817  1.00  0.00    -0.130 OA 
BRANCH  30  31
HETATM   31  C   UNL     1      -8.798   5.561  67.938  1.00  0.00    -0.105 C  
HETATM   32  O   UNL     1      -7.539   5.973  68.444  1.00  0.00    -0.088 OA 
HETATM   33  C   UNL     1      -7.179   5.202  69.580  1.00  0.00    -0.056 C  
HETATM   34  H   UNL     1      -9.905   2.761  66.629  1.00  0.00     0.000 HD 
HETATM   35  C   UNL     1      -6.938   3.726  69.169  1.00  0.00    -0.046 C  
HETATM   36  O   UNL     1      -5.916   3.642  68.206  1.00  0.00    -0.025 OA 
HETATM   37  C   UNL     1      -8.252   3.166  68.585  1.00  0.00    -0.064 C  
HETATM   38  O   UNL     1      -9.953   3.661  66.928  1.00  0.00    -0.055 OA 
HETATM   39  H   UNL     1      -5.770   2.738  67.954  1.00  0.00     0.000 HD 
HETATM   40  O   UNL     1      -8.084   1.863  68.083  1.00  0.00    -0.057 OA 
HETATM   41  C   UNL     1      -8.719   4.092  67.450  1.00  0.00    -0.107 C  
HETATM   42  H   UNL     1      -8.893   1.519  67.723  1.00  0.00     0.000 HD 
BRANCH  33  43
HETATM   43  C   UNL     1      -5.929   5.839  70.208  1.00  0.00    -0.025 C  
HETATM   44  O   UNL     1      -6.034   7.237  70.244  1.00  0.00    -0.024 OA 
HETATM   45  H   UNL     1      -5.263   7.631  70.633  1.00  0.00     0.000 HD 
ENDBRANCH  33  43
ENDBRANCH  30  31
ENDBRANCH  29  30
BRANCH  29  46
HETATM   46  C   UNL     1      -8.967   8.770  66.323  1.00  0.00    -0.173 C  
HETATM   47  O   UNL     1     -10.004   8.695  65.373  1.00  0.00    -0.258 OA 
HETATM   48  H   UNL     1     -10.441   9.532  65.278  1.00  0.00     0.000 HD 
BRANCH  46  49
HETATM   49  C   UNL     1      -8.028   9.973  66.071  1.00  0.00    -0.118 C  
HETATM   50  H   UNL     1      -8.191  11.867  65.615  1.00  0.00     0.000 HD 
HETATM   51  O   UNL     1      -8.767  11.128  65.770  1.00  0.00    -0.190 OA 
ENDBRANCH  46  49
ENDBRANCH  29  46
ENDBRANCH  26  29
ENDBRANCH  23  26
ENDBRANCH  21  23
ENDBRANCH  20  21
ENDBRANCH  19  20
ENDBRANCH  18  19
ENDBRANCH  16  18
ENDBRANCH  13  16
ENDBRANCH  10  13
ENDBRANCH   7  10
ENDBRANCH   4   7
ENDBRANCH   2   4
TORSDOF 17
ENDMDL
MODEL      401
REMARK 921   NORMALIZED FREE ENERGY PREDICTED BY IDOCK:   -2.32 KCAL/MOL
REMARK 922        TOTAL FREE ENERGY PREDICTED BY IDOCK:   -8.07 KCAL/MOL
REMARK 923 INTER-LIGAND FREE ENERGY PREDICTED BY IDOCK:   -8.23 KCAL/MOL
REMARK 924 INTRA-LIGAND FREE ENERGY PREDICTED BY IDOCK:    0.16 KCAL/MOL
REMARK 927      BINDING AFFINITY PREDICTED BY RF-SCORE:    0.00 PKD
ROOT
HETATM    1  O   UNL     1     -12.109   7.909  70.826  1.00  0.00    -0.466 OA 
HETATM    2  C   UNL     1     -11.754   6.581  71.101  1.00  0.00    -0.335 C  
HETATM    3  H   UNL     1     -12.991   7.938  70.474  1.00  0.00     0.000 HD 
ENDROOT
BRANCH   2   4
HETATM    4  C   UNL     1     -10.326   6.534  71.670  1.00  0.00    -0.207 C  
HETATM    5  O   UNL     1      -9.875   7.845  71.903  1.00  0.00    -0.164 OA 
HETATM    6  H   UNL     1      -8.993   7.816  72.254  1.00  0.00     0.000 HD 
BRANCH   4   7
HETATM    7  C   UNL     1     -10.265   5.724  72.992  1.00  0.00    -0.187 C  
HETATM    8  H   UNL     1     -11.128   4.149  73.738  1.00  0.00     0.000 HD 
HETATM    9  O   UNL     1     -11.165   4.645  72.928  1.00  0.00    -0.218 OA 
BRANCH   7  10
HETATM   10  C   UNL     1      -8.840   5.178  73.273  1.00  0.00    -0.118 C  
HETATM   11  H   UNL     1      -7.032   5.712  72.852  1.00  0.00     0.000 HD 
HETATM   12  O   UNL     1      -7.905   6.046  72.680  1.00  0.00    -0.103 OA 
BRANCH  10  13
HETATM   13  C   UNL     1      -8.609   3.742  72.728  1.00  0.00    -0.094 C  
HETATM   14  H   UNL     1      -9.333   1.967  73.043  1.00  0.00     0.000 HD 
HETATM   15  O   UNL     1      -9.474   2.846  73.377  1.00  0.00    -0.091 OA 
BRANCH  13  16
HETATM   16  C   UNL     1      -8.845   3.619  71.241  1.00  0.00    -0.088 C  
HETATM   17  O   UNL     1      -9.707   2.861  70.825  1.00  0.00    -0.150 OA 
BRANCH  16  18
HETATM   18  O   UNL     1      -8.110   4.326  70.359  1.00  0.00    -0.058 OA 
BRANCH  18  19
HETATM   19 CA   UNL     1      -8.596   6.674  70.034  1.00  0.00    -0.121 Ca 
BRANCH  19  20
HETATM   20  O   UNL     1      -9.081   9.022  69.708  1.00  0.00    -0.146 OA 
BRANCH  20  21
HETATM   21  C   UNL     1     -10.130   9.135  68.875  1.00  0.00    -0.197 C  
HETATM   22  O   UNL     1     -10.444   8.157  68.217  1.00  0.00    -0.204 OA 
BRANCH  21  23
HETATM   23  C   UNL     1     -10.802  10.464  68.614  1.00  0.00    -0.232 C  
HETATM   24  H   UNL     1     -12.312  11.085  67.584  1.00  0.00     0.000 HD 
HETATM   25  O   UNL     1     -11.890  10.250  67.748  1.00  0.00    -0.096 OA 
BRANCH  23  26
HETATM   26  C   UNL     1      -9.871  11.554  68.002  1.00  0.00    -0.188 C  
HETATM   27  H   UNL     1      -8.261  12.499  68.527  1.00  0.00     0.000 HD 
HETATM   28  O   UNL     1      -8.829  11.835  68.900  1.00  0.00    -0.031 OA 
BRANCH  26  29
HETATM   29  C   UNL     1      -9.278  11.277  66.577  1.00  0.00    -0.188 C  
BRANCH  29  30
HETATM   30  O   UNL     1      -8.952  12.544  66.025  1.00  0.00    -0.021 OA 
BRANCH  30  31
HETATM   31  C   UNL     1      -9.794  13.615  66.401  1.00  0.00    -0.296 C  
HETATM   32  O   UNL     1     -10.885  13.717  65.502  1.00  0.00    -0.284 OA 
HETATM   33  C   UNL     1     -11.748  14.779  65.878  1.00  0.00    -0.248 C  
HETATM   34  H   UNL     1      -7.309  15.613  67.179  1.00  0.00     0.000 HD 
HETATM   35  C   UNL     1     -11.020  16.139  65.719  1.00  0.00    -0.102 C  
HETATM   36  O   UNL     1     -10.606  16.325  64.387  1.00  0.00    -0.719 OA 
HETATM   37  C   UNL     1      -9.791  16.142  66.652  1.00  0.00    -0.249 C  
HETATM   38  O   UNL     1      -7.835  14.824  67.216  1.00  0.00    -0.188 OA 
HETATM   39  H   UNL     1     -10.159  17.158  64.291  1.00  0.00     0.000 HD 
HETATM   40  O   UNL     1      -9.012  17.300  66.481  1.00  0.00    -0.248 OA 
HETATM   41  C   UNL     1      -8.935  14.903  66.342  1.00  0.00    -0.219 C  
HETATM   42  H   UNL     1      -8.256  17.302  67.056  1.00  0.00     0.000 HD 
BRANCH  33  43
HETATM   43  C   UNL     1     -13.012  14.694  65.008  1.00  0.00     0.248 C  
HETATM   44  O   UNL     1     -12.688  14.560  63.650  1.00  0.00    -0.900 OA 
HETATM   45  H   UNL     1     -13.469  14.506  63.113  1.00  0.00     0.000 HD 
ENDBRANCH  33  43
ENDBRANCH  30  31
ENDBRANCH  29  30
BRANCH  29  46
HETATM   46  C   UNL     1     -10.178  10.426  65.613  1.00  0.00    -0.238 C  
HETATM   47  O   UNL     1      -9.913   9.050  65.758  1.00  0.00    -0.451 OA 
HETATM   48  H   UNL     1     -10.457   8.536  65.174  1.00  0.00     0.000 HD 
BRANCH  46  49
HETATM   49  C   UNL     1     -10.156  10.874  64.133  1.00  0.00    -0.355 C  
HETATM   50  H   UNL     1      -9.292  10.327  62.467  1.00  0.00     0.000 HD 
HETATM   51  O   UNL     1      -9.306  10.052  63.376  1.00  0.00    -0.279 OA 
ENDBRANCH  46  49
ENDBRANCH  29  46
ENDBRANCH  26  29
ENDBRANCH  23  26
ENDBRANCH  21  23
ENDBRANCH  20  21
ENDBRANCH  19  20
ENDBRANCH  18  19
ENDBRANCH  16  18
ENDBRANCH  13  16
ENDBRANCH  10  13
ENDBRANCH   7  10
ENDBRANCH   4   7
ENDBRANCH   2   4
TORSDOF 17
ENDMDL
MODEL      402
REMARK 921   NORMALIZED FREE ENERGY PREDICTED BY IDOCK:   -2.19 KCAL/MOL
REMARK 922        TOTAL FREE ENERGY PREDICTED BY IDOCK:   -7.81 KCAL/MOL
REMARK 923 INTER-LIGAND FREE ENERGY PREDICTED BY IDOCK:   -6.32 KCAL/MOL
REMARK 924 INTRA-LIGAND FREE ENERGY PREDICTED BY IDOCK:   -1.48 KCAL/MOL
REMARK 927      BINDING AFFINITY PREDICTED BY RF-SCORE:    0.00 PKD
ROOT
HETATM    1  O   UNL     1      -9.820  16.297  68.909  1.00  0.00    -0.224 OA 
HETATM    2  C   UNL     1      -9.446  16.458  67.567  1.00  0.00    -0.224 C  
HETATM    3  H   UNL     1      -9.143  16.650  69.474  1.00  0.00     0.000 HD 
ENDROOT
BRANCH   2   4
HETATM    4  C   UNL     1     -10.542  15.886  66.652  1.00  0.00    -0.305 C  
HETATM    5  O   UNL     1     -10.266  16.239  65.320  1.00  0.00    -0.548 OA 
HETATM    6  H   UNL     1     -10.943  15.886  64.755  1.00  0.00     0.000 HD 
BRANCH   4   7
HETATM    7  C   UNL     1     -10.633  14.342  66.769  1.00  0.00    -0.278 C  
HETATM    8  H   UNL     1     -11.245  13.048  68.085  1.00  0.00     0.000 HD 
HETATM    9  O   UNL     1     -11.189  13.993  68.014  1.00  0.00    -0.259 OA 
BRANCH   7  10
HETATM   10  C   UNL     1     -11.499  13.725  65.639  1.00  0.00    -0.310 C  
HETATM   11  H   UNL     1     -12.909  12.410  65.520  1.00  0.00     0.000 HD 
HETATM   12  O   UNL     1     -12.379  12.788  66.212  1.00  0.00    -0.521 OA 
BRANCH  10  13
HETATM   13  C   UNL     1     -10.664  13.019  64.535  1.00  0.00    -0.385 C  
HETATM   14  H   UNL     1      -8.785  12.710  64.152  1.00  0.00     0.000 HD 
HETATM   15  O   UNL     1      -9.296  13.141  64.828  1.00  0.00     0.423 OA 
BRANCH  13  16
HETATM   16  C   UNL     1     -10.979  11.549  64.391  1.00  0.00    -0.324 C  
HETATM   17  O   UNL     1     -11.979  11.201  63.782  1.00  0.00     0.209 OA 
BRANCH  16  18
HETATM   18  O   UNL     1     -10.180  10.609  64.934  1.00  0.00    -0.317 OA 
BRANCH  18  19
HETATM   19 CA   UNL     1      -8.759  11.206  66.801  1.00  0.00    -0.132 Ca 
BRANCH  19  20
HETATM   20  O   UNL     1      -7.338  11.801  68.666  1.00  0.00    -0.103 OA 
BRANCH  20  21
HETATM   21  C   UNL     1      -6.671  10.706  69.068  1.00  0.00    -0.066 C  
HETATM   22  O   UNL     1      -5.797  10.270  68.338  1.00  0.00    -0.041 OA 
BRANCH  21  23
HETATM   23  C   UNL     1      -7.090   9.922  70.292  1.00  0.00    -0.151 C  
HETATM   24  H   UNL     1      -6.617   9.902  72.163  1.00  0.00     0.000 HD 
HETATM   25  O   UNL     1      -6.354  10.394  71.395  1.00  0.00    -0.303 OA 
BRANCH  23  26
HETATM   26  C   UNL     1      -6.896   8.380  70.174  1.00  0.00    -0.042 C  
HETATM   27  H   UNL     1      -6.153   6.958  71.265  1.00  0.00     0.000 HD 
HETATM   28  O   UNL     1      -6.271   7.898  71.337  1.00  0.00    -0.035 OA 
BRANCH  26  29
HETATM   29  C   UNL     1      -8.167   7.516  69.864  1.00  0.00    -0.131 C  
BRANCH  29  30
HETATM   30  O   UNL     1      -7.712   6.182  69.684  1.00  0.00    -0.094 OA 
BRANCH  30  31
HETATM   31  C   UNL     1      -8.258   5.222  70.565  1.00  0.00    -0.108 C  
HETATM   32  O   UNL     1      -9.233   5.824  71.400  1.00  0.00    -0.142 OA 
HETATM   33  C   UNL     1      -9.801   4.866  72.280  1.00  0.00    -0.169 C  
HETATM   34  H   UNL     1      -5.376   3.758  71.141  1.00  0.00     0.000 HD 
HETATM   35  C   UNL     1      -8.729   4.359  73.280  1.00  0.00    -0.100 C  
HETATM   36  O   UNL     1      -8.209   5.430  74.030  1.00  0.00    -0.110 OA 
HETATM   37  C   UNL     1      -7.596   3.687  72.477  1.00  0.00    -0.063 C  
HETATM   38  O   UNL     1      -6.095   4.089  70.616  1.00  0.00    -0.017 OA 
HETATM   39  H   UNL     1      -7.553   5.119  74.643  1.00  0.00     0.000 HD 
HETATM   40  O   UNL     1      -6.529   3.301  73.308  1.00  0.00    -0.022 OA 
HETATM   41  C   UNL     1      -7.085   4.681  71.421  1.00  0.00    -0.051 C  
HETATM   42  H   UNL     1      -5.832   2.887  72.813  1.00  0.00     0.000 HD 
BRANCH  33  43
HETATM   43  C   UNL     1     -10.993   5.525  72.992  1.00  0.00    -0.290 C  
HETATM   44  O   UNL     1     -11.764   6.283  72.099  1.00  0.00    -0.304 OA 
HETATM   45  H   UNL     1     -12.500   6.690  72.538  1.00  0.00     0.000 HD 
ENDBRANCH  33  43
ENDBRANCH  30  31
ENDBRANCH  29  30
BRANCH  29  46
HETATM   46  C   UNL     1      -9.053   8.004  68.665  1.00  0.00    -0.140 C  
HETATM   47  O   UNL     1      -9.680   9.229  68.966  1.00  0.00    -0.157 OA 
HETATM   48  H   UNL     1     -10.216   9.525  68.241  1.00  0.00     0.000 HD 
BRANCH  46  49
HETATM   49  C   UNL     1     -10.049   6.956  68.118  1.00  0.00    -0.166 C  
HETATM   50  H   UNL     1     -11.503   6.882  66.813  1.00  0.00     0.000 HD 
HETATM   51  O   UNL     1     -10.891   7.526  67.149  1.00  0.00    -0.324 OA 
ENDBRANCH  46  49
ENDBRANCH  29  46
ENDBRANCH  26  29
ENDBRANCH  23  26
ENDBRANCH  21  23
ENDBRANCH  20  21
ENDBRANCH  19  20
ENDBRANCH  18  19
ENDBRANCH  16  18
ENDBRANCH  13  16
ENDBRANCH  10  13
ENDBRANCH   7  10
ENDBRANCH   4   7
ENDBRANCH   2   4
TORSDOF 17
ENDMDL
MODEL      403
REMARK 921   NORMALIZED FREE ENERGY PREDICTED BY IDOCK:   -2.12 KCAL/MOL
REMARK 922        TOTAL FREE ENERGY PREDICTED BY IDOCK:   -7.67 KCAL/MOL
REMARK 923 INTER-LIGAND FREE ENERGY PREDICTED BY IDOCK:   -8.00 KCAL/MOL
REMARK 924 INTRA-LIGAND FREE ENERGY PREDICTED BY IDOCK:    0.32 KCAL/MOL
REMARK 927      BINDING AFFINITY PREDICTED BY RF-SCORE:    0.00 PKD
ROOT
HETATM    1  O   UNL     1     -11.010   6.191  68.341  1.00  0.00    -0.297 OA 
HETATM    2  C   UNL     1     -10.110   5.387  67.627  1.00  0.00    -0.175 C  
HETATM    3  H   UNL     1     -11.813   6.292  67.842  1.00  0.00     0.000 HD 
ENDROOT
BRANCH   2   4
HETATM    4  C   UNL     1      -8.812   5.222  68.435  1.00  0.00    -0.101 C  
HETATM    5  O   UNL     1      -8.893   5.993  69.608  1.00  0.00    -0.130 OA 
HETATM    6  H   UNL     1      -8.091   5.891  70.107  1.00  0.00     0.000 HD 
BRANCH   4   7
HETATM    7  C   UNL     1      -8.557   3.738  68.808  1.00  0.00    -0.086 C  
HETATM    8  H   UNL     1      -7.028   2.543  68.932  1.00  0.00     0.000 HD 
HETATM    9  O   UNL     1      -7.184   3.452  68.703  1.00  0.00    -0.049 OA 
BRANCH   7  10
HETATM   10  C   UNL     1      -9.032   3.412  70.249  1.00  0.00    -0.108 C  
HETATM   11  H   UNL     1     -10.407   4.054  71.444  1.00  0.00     0.000 HD 
HETATM   12  O   UNL     1     -10.116   4.254  70.562  1.00  0.00    -0.191 OA 
BRANCH  10  13
HETATM   13  C   UNL     1      -7.925   3.599  71.323  1.00  0.00    -0.060 C  
HETATM   14  H   UNL     1      -6.295   4.637  71.519  1.00  0.00     0.000 HD 
HETATM   15  O   UNL     1      -6.972   4.522  70.862  1.00  0.00    -0.035 OA 
BRANCH  13  16
HETATM   16  C   UNL     1      -8.452   4.098  72.648  1.00  0.00    -0.101 C  
HETATM   17  O   UNL     1      -8.685   3.303  73.545  1.00  0.00    -0.077 OA 
BRANCH  16  18
HETATM   18  O   UNL     1      -8.681   5.410  72.857  1.00  0.00    -0.119 OA 
BRANCH  18  19
HETATM   19 CA   UNL     1      -7.806   7.026  71.282  1.00  0.00    -0.086 Ca 
BRANCH  19  20
HETATM   20  O   UNL     1      -6.930   8.640  69.707  1.00  0.00    -0.045 OA 
BRANCH  20  21
HETATM   21  C   UNL     1      -7.816   9.642  69.578  1.00  0.00    -0.117 C  
HETATM   22  O   UNL     1      -7.477  10.755  69.945  1.00  0.00    -0.098 OA 
BRANCH  21  23
HETATM   23  C   UNL     1      -9.248   9.392  69.161  1.00  0.00    -0.155 C  
HETATM   24  H   UNL     1     -10.138   8.460  67.723  1.00  0.00     0.000 HD 
HETATM   25  O   UNL     1      -9.239   8.618  67.986  1.00  0.00    -0.139 OA 
BRANCH  23  26
HETATM   26  C   UNL     1     -10.089  10.681  68.914  1.00  0.00    -0.202 C  
HETATM   27  H   UNL     1     -10.302  11.982  67.492  1.00  0.00     0.000 HD 
HETATM   28  O   UNL     1      -9.790  11.196  67.642  1.00  0.00    -0.171 OA 
BRANCH  26  29
HETATM   29  C   UNL     1     -11.643  10.570  69.084  1.00  0.00    -0.224 C  
BRANCH  29  30
HETATM   30  O   UNL     1     -12.186  11.802  68.632  1.00  0.00    -0.405 OA 
BRANCH  30  31
HETATM   31  C   UNL     1     -11.403  12.950  68.889  1.00  0.00    -0.288 C  
HETATM   32  O   UNL     1     -11.861  13.601  70.062  1.00  0.00    -0.303 OA 
HETATM   33  C   UNL     1     -11.073  14.748  70.340  1.00  0.00    -0.118 C  
HETATM   34  H   UNL     1     -11.230  13.834  65.732  1.00  0.00     0.000 HD 
HETATM   35  C   UNL     1     -11.274  15.815  69.233  1.00  0.00    -0.324 C  
HETATM   36  O   UNL     1     -12.628  16.189  69.148  1.00  0.00    -0.313 OA 
HETATM   37  C   UNL     1     -10.816  15.210  67.889  1.00  0.00    -0.291 C  
HETATM   38  O   UNL     1     -11.131  13.261  66.482  1.00  0.00    -0.287 OA 
HETATM   39  H   UNL     1     -12.751  16.842  68.470  1.00  0.00     0.000 HD 
HETATM   40  O   UNL     1     -11.074  16.079  66.814  1.00  0.00    -0.190 OA 
HETATM   41  C   UNL     1     -11.566  13.886  67.665  1.00  0.00    -0.348 C  
HETATM   42  H   UNL     1     -10.791  15.707  65.987  1.00  0.00     0.000 HD 
BRANCH  33  43
HETATM   43  C   UNL     1     -11.472  15.271  71.729  1.00  0.00    -0.421 C  
HETATM   44  O   UNL     1     -11.730  16.650  71.699  1.00  0.00    -0.644 OA 
HETATM   45  H   UNL     1     -11.978  16.973  72.557  1.00  0.00     0.000 HD 
ENDBRANCH  33  43
ENDBRANCH  30  31
ENDBRANCH  29  30
BRANCH  29  46
HETATM   46  C   UNL     1     -12.151  10.193  70.521  1.00  0.00    -0.291 C  
HETATM   47  O   UNL     1     -12.585  11.337  71.219  1.00  0.00    -0.387 OA 
HETATM   48  H   UNL     1     -12.892  11.110  72.088  1.00  0.00     0.000 HD 
BRANCH  46  49
HETATM   49  C   UNL     1     -11.174   9.333  71.356  1.00  0.00    -0.362 C  
HETATM   50  H   UNL     1     -10.922   7.447  71.801  1.00  0.00     0.000 HD 
HETATM   51  O   UNL     1     -11.522   7.975  71.287  1.00  0.00    -0.259 OA 
ENDBRANCH  46  49
ENDBRANCH  29  46
ENDBRANCH  26  29
ENDBRANCH  23  26
ENDBRANCH  21  23
ENDBRANCH  20  21
ENDBRANCH  19  20
ENDBRANCH  18  19
ENDBRANCH  16  18
ENDBRANCH  13  16
ENDBRANCH  10  13
ENDBRANCH   7  10
ENDBRANCH   4   7
ENDBRANCH   2   4
TORSDOF 17
ENDMDL
MODEL      404
REMARK 921   NORMALIZED FREE ENERGY PREDICTED BY IDOCK:   -2.04 KCAL/MOL
REMARK 922        TOTAL FREE ENERGY PREDICTED BY IDOCK:   -7.52 KCAL/MOL
REMARK 923 INTER-LIGAND FREE ENERGY PREDICTED BY IDOCK:   -6.68 KCAL/MOL
REMARK 924 INTRA-LIGAND FREE ENERGY PREDICTED BY IDOCK:   -0.84 KCAL/MOL
REMARK 927      BINDING AFFINITY PREDICTED BY RF-SCORE:    0.00 PKD
ROOT
HETATM    1  O   UNL     1      -9.892   4.749  68.811  1.00  0.00    -0.165 OA 
HETATM    2  C   UNL     1      -9.876   4.713  67.410  1.00  0.00    -0.165 C  
HETATM    3  H   UNL     1     -10.593   4.197  69.137  1.00  0.00     0.000 HD 
ENDROOT
BRANCH   2   4
HETATM    4  C   UNL     1      -8.741   5.606  66.882  1.00  0.00    -0.113 C  
HETATM    5  O   UNL     1      -8.013   6.123  67.969  1.00  0.00    -0.108 OA 
HETATM    6  H   UNL     1      -7.312   6.675  67.643  1.00  0.00     0.000 HD 
BRANCH   4   7
HETATM    7  C   UNL     1      -7.784   4.820  65.947  1.00  0.00    -0.091 C  
HETATM    8  H   UNL     1      -5.962   5.003  65.294  1.00  0.00     0.000 HD 
HETATM    9  O   UNL     1      -6.547   5.485  65.867  1.00  0.00    -0.042 OA 
BRANCH   7  10
HETATM   10  C   UNL     1      -7.547   3.370  66.447  1.00  0.00    -0.077 C  
HETATM   11  H   UNL     1      -8.605   1.996  67.297  1.00  0.00     0.000 HD 
HETATM   12  O   UNL     1      -8.750   2.884  66.992  1.00  0.00    -0.106 OA 
BRANCH  10  13
HETATM   13  C   UNL     1      -6.429   3.260  67.520  1.00  0.00    -0.037 C  
HETATM   14  H   UNL     1      -5.088   4.428  68.301  1.00  0.00     0.000 HD 
HETATM   15  O   UNL     1      -5.772   4.495  67.645  1.00  0.00    -0.020 OA 
BRANCH  13  16
HETATM   16  C   UNL     1      -6.943   2.867  68.885  1.00  0.00    -0.044 C  
HETATM   17  O   UNL     1      -7.010   1.687  69.190  1.00  0.00    -0.035 OA 
BRANCH  16  18
HETATM   18  O   UNL     1      -7.343   3.799  69.773  1.00  0.00    -0.042 OA 
BRANCH  18  19
HETATM   19 CA   UNL     1      -6.355   6.007  69.691  1.00  0.00    -0.025 Ca 
BRANCH  19  20
HETATM   20  O   UNL     1      -5.366   8.214  69.608  1.00  0.00    -0.026 OA 
BRANCH  20  21
HETATM   21  C   UNL     1      -6.183   9.077  70.236  1.00  0.00    -0.043 C  
HETATM   22  O   UNL     1      -5.822   9.526  71.310  1.00  0.00    -0.068 OA 
BRANCH  21  23
HETATM   23  C   UNL     1      -7.581   9.360  69.734  1.00  0.00    -0.095 C  
HETATM   24  H   UNL     1      -8.635  10.932  69.354  1.00  0.00     0.000 HD 
HETATM   25  O   UNL     1      -7.757  10.754  69.670  1.00  0.00    -0.120 OA 
BRANCH  23  26
HETATM   26  C   UNL     1      -8.721   8.743  70.600  1.00  0.00    -0.180 C  
HETATM   27  H   UNL     1      -9.524   9.082  72.332  1.00  0.00     0.000 HD 
HETATM   28  O   UNL     1      -8.829   9.458  71.804  1.00  0.00    -0.203 OA 
BRANCH  26  29
HETATM   29  C   UNL     1     -10.136   8.609  69.939  1.00  0.00    -0.194 C  
BRANCH  29  30
HETATM   30  O   UNL     1     -10.780   9.863  70.111  1.00  0.00    -0.263 OA 
BRANCH  30  31
HETATM   31  C   UNL     1     -11.269  10.471  68.933  1.00  0.00    -0.266 C  
HETATM   32  O   UNL     1     -10.414  10.175  67.841  1.00  0.00    -0.191 OA 
HETATM   33  C   UNL     1     -10.902  10.767  66.646  1.00  0.00    -0.164 C  
HETATM   34  H   UNL     1     -12.133  13.256  70.439  1.00  0.00     0.000 HD 
HETATM   35  C   UNL     1     -10.833  12.313  66.751  1.00  0.00    -0.253 C  
HETATM   36  O   UNL     1      -9.510  12.734  66.973  1.00  0.00    -0.218 OA 
HETATM   37  C   UNL     1     -11.726  12.758  67.928  1.00  0.00    -0.357 C  
HETATM   38  O   UNL     1     -12.120  12.321  70.280  1.00  0.00    -0.341 OA 
HETATM   39  H   UNL     1      -9.468  13.681  67.037  1.00  0.00     0.000 HD 
HETATM   40  O   UNL     1     -11.628  14.142  68.160  1.00  0.00    -0.293 OA 
HETATM   41  C   UNL     1     -11.289  11.998  69.192  1.00  0.00    -0.281 C  
HETATM   42  H   UNL     1     -12.178  14.416  68.884  1.00  0.00     0.000 HD 
BRANCH  33  43
HETATM   43  C   UNL     1     -10.066  10.228  65.475  1.00  0.00    -0.281 C  
HETATM   44  O   UNL     1      -9.541   8.960  65.764  1.00  0.00    -0.364 OA 
HETATM   45  H   UNL     1      -9.025   8.626  65.040  1.00  0.00     0.000 HD 
ENDBRANCH  33  43
ENDBRANCH  30  31
ENDBRANCH  29  30
BRANCH  29  46
HETATM   46  C   UNL     1     -11.021   7.416  70.446  1.00  0.00    -0.251 C  
HETATM   47  O   UNL     1     -11.844   6.924  69.415  1.00  0.00    -0.569 OA 
HETATM   48  H   UNL     1     -12.379   6.202  69.722  1.00  0.00     0.000 HD 
BRANCH  46  49
HETATM   49  C   UNL     1     -11.813   7.696  71.745  1.00  0.00    -0.290 C  
HETATM   50  H   UNL     1     -13.567   8.395  72.249  1.00  0.00     0.000 HD 
HETATM   51  O   UNL     1     -13.080   8.223  71.451  1.00  0.00    -0.297 OA 
ENDBRANCH  46  49
ENDBRANCH  29  46
ENDBRANCH  26  29
ENDBRANCH  23  26
ENDBRANCH  21  23
ENDBRANCH  20  21
ENDBRANCH  19  20
ENDBRANCH  18  19
ENDBRANCH  16  18
ENDBRANCH  13  16
ENDBRANCH  10  13
ENDBRANCH   7  10
ENDBRANCH   4   7
ENDBRANCH   2   4
TORSDOF 17
ENDMDL
MODEL      405
REMARK 921   NORMALIZED FREE ENERGY PREDICTED BY IDOCK:   -2.01 KCAL/MOL
REMARK 922        TOTAL FREE ENERGY PREDICTED BY IDOCK:   -7.45 KCAL/MOL
REMARK 923 INTER-LIGAND FREE ENERGY PREDICTED BY IDOCK:   -7.01 KCAL/MOL
REMARK 924 INTRA-LIGAND FREE ENERGY PREDICTED BY IDOCK:   -0.44 KCAL/MOL
REMARK 927      BINDING AFFINITY PREDICTED BY RF-SCORE:    0.00 PKD
ROOT
HETATM    1  O   UNL     1     -10.957   5.347  67.568  1.00  0.00    -0.201 OA 
HETATM    2  C   UNL     1     -10.718   6.270  66.540  1.00  0.00    -0.107 C  
HETATM    3  H   UNL     1     -11.886   5.154  67.614  1.00  0.00     0.000 HD 
ENDROOT
BRANCH   2   4
HETATM    4  C   UNL     1      -9.214   6.583  66.464  1.00  0.00    -0.157 C  
HETATM    5  O   UNL     1      -8.619   6.306  67.707  1.00  0.00    -0.116 OA 
HETATM    6  H   UNL     1      -7.690   6.499  67.661  1.00  0.00     0.000 HD 
BRANCH   4   7
HETATM    7  C   UNL     1      -8.513   5.749  65.359  1.00  0.00    -0.151 C  
HETATM    8  H   UNL     1      -6.810   5.772  64.423  1.00  0.00     0.000 HD 
HETATM    9  O   UNL     1      -7.238   6.283  65.100  1.00  0.00    -0.065 OA 
BRANCH   7  10
HETATM   10  C   UNL     1      -8.364   4.258  65.763  1.00  0.00    -0.109 C  
HETATM   11  H   UNL     1      -9.413   2.966  66.743  1.00  0.00     0.000 HD 
HETATM   12  O   UNL     1      -9.505   3.879  66.495  1.00  0.00    -0.175 OA 
BRANCH  10  13
HETATM   13  C   UNL     1      -7.099   3.973  66.620  1.00  0.00    -0.060 C  
HETATM   14  H   UNL     1      -5.591   4.983  67.308  1.00  0.00     0.000 HD 
HETATM   15  O   UNL     1      -6.364   5.158  66.784  1.00  0.00    -0.037 OA 
BRANCH  13  16
HETATM   16  C   UNL     1      -7.415   3.427  67.992  1.00  0.00    -0.054 C  
HETATM   17  O   UNL     1      -7.564   2.225  68.146  1.00  0.00    -0.054 OA 
BRANCH  16  18
HETATM   18  O   UNL     1      -7.546   4.247  69.055  1.00  0.00    -0.055 OA 
BRANCH  18  19
HETATM   19 CA   UNL     1      -6.385   6.371  69.054  1.00  0.00    -0.025 Ca 
BRANCH  19  20
HETATM   20  O   UNL     1      -5.225   8.494  69.054  1.00  0.00    -0.031 OA 
BRANCH  20  21
HETATM   21  C   UNL     1      -6.131   9.482  68.953  1.00  0.00    -0.042 C  
HETATM   22  O   UNL     1      -5.953  10.490  69.615  1.00  0.00    -0.043 OA 
BRANCH  21  23
HETATM   23  C   UNL     1      -7.424   9.302  68.189  1.00  0.00    -0.083 C  
HETATM   24  H   UNL     1      -8.071   9.732  66.422  1.00  0.00     0.000 HD 
HETATM   25  O   UNL     1      -7.259   9.845  66.902  1.00  0.00    -0.089 OA 
BRANCH  23  26
HETATM   26  C   UNL     1      -8.672   9.952  68.860  1.00  0.00    -0.140 C  
HETATM   27  H   UNL     1      -9.192  11.718  69.469  1.00  0.00     0.000 HD 
HETATM   28  O   UNL     1      -8.432  11.322  69.061  1.00  0.00    -0.106 OA 
BRANCH  26  29
HETATM   29  C   UNL     1     -10.055   9.760  68.146  1.00  0.00    -0.165 C  
BRANCH  29  30
HETATM   30  O   UNL     1     -10.400  11.022  67.594  1.00  0.00    -0.179 OA 
BRANCH  30  31
HETATM   31  C   UNL     1     -10.923  10.997  66.282  1.00  0.00    -0.117 C  
HETATM   32  O   UNL     1      -9.893  10.707  65.352  1.00  0.00    -0.230 OA 
HETATM   33  C   UNL     1     -10.408  10.663  64.030  1.00  0.00    -0.191 C  
HETATM   34  H   UNL     1     -12.882  13.589  66.753  1.00  0.00     0.000 HD 
HETATM   35  C   UNL     1     -10.896  12.071  63.601  1.00  0.00    -0.446 C  
HETATM   36  O   UNL     1      -9.840  12.999  63.659  1.00  0.00    -0.694 OA 
HETATM   37  C   UNL     1     -12.024  12.505  64.560  1.00  0.00    -0.404 C  
HETATM   38  O   UNL     1     -12.524  12.727  66.923  1.00  0.00    -0.307 OA 
HETATM   39  H   UNL     1     -10.140  13.861  63.396  1.00  0.00     0.000 HD 
HETATM   40  O   UNL     1     -12.444  13.823  64.306  1.00  0.00    -0.629 OA 
HETATM   41  C   UNL     1     -11.507  12.406  66.005  1.00  0.00    -0.382 C  
HETATM   42  H   UNL     1     -13.139  14.090  64.896  1.00  0.00     0.000 HD 
BRANCH  33  43
HETATM   43  C   UNL     1      -9.301  10.128  63.108  1.00  0.00    -0.298 C  
HETATM   44  O   UNL     1      -8.030  10.502  63.568  1.00  0.00    -0.276 OA 
HETATM   45  H   UNL     1      -7.346  10.171  62.999  1.00  0.00     0.000 HD 
ENDBRANCH  33  43
ENDBRANCH  30  31
ENDBRANCH  29  30
BRANCH  29  46
HETATM   46  C   UNL     1     -11.207   9.168  69.032  1.00  0.00     0.216 C  
HETATM   47  O   UNL     1     -12.011  10.194  69.566  1.00  0.00    -0.478 OA 
HETATM   48  H   UNL     1     -12.709   9.836  70.102  1.00  0.00     0.000 HD 
BRANCH  46  49
HETATM   49  C   UNL     1     -10.751   8.159  70.111  1.00  0.00    -0.243 C  
HETATM   50  H   UNL     1     -11.273   6.388  70.752  1.00  0.00     0.000 HD 
HETATM   51  O   UNL     1     -11.553   7.007  70.088  1.00  0.00    -0.282 OA 
ENDBRANCH  46  49
ENDBRANCH  29  46
ENDBRANCH  26  29
ENDBRANCH  23  26
ENDBRANCH  21  23
ENDBRANCH  20  21
ENDBRANCH  19  20
ENDBRANCH  18  19
ENDBRANCH  16  18
ENDBRANCH  13  16
ENDBRANCH  10  13
ENDBRANCH   7  10
ENDBRANCH   4   7
ENDBRANCH   2   4
TORSDOF 17
ENDMDL
MODEL      406
REMARK 921   NORMALIZED FREE ENERGY PREDICTED BY IDOCK:   -1.93 KCAL/MOL
REMARK 922        TOTAL FREE ENERGY PREDICTED BY IDOCK:   -7.30 KCAL/MOL
REMARK 923 INTER-LIGAND FREE ENERGY PREDICTED BY IDOCK:   -7.00 KCAL/MOL
REMARK 924 INTRA-LIGAND FREE ENERGY PREDICTED BY IDOCK:   -0.30 KCAL/MOL
REMARK 927      BINDING AFFINITY PREDICTED BY RF-SCORE:    0.00 PKD
ROOT
HETATM    1  O   UNL     1     -10.849   5.096  67.620  1.00  0.00    -0.031 OA 
HETATM    2  C   UNL     1     -10.793   6.255  66.834  1.00  0.00    -0.354 C  
HETATM    3  H   UNL     1     -11.693   4.674  67.509  1.00  0.00     0.000 HD 
ENDROOT
BRANCH   2   4
HETATM    4  C   UNL     1      -9.426   6.937  67.014  1.00  0.00    -0.151 C  
HETATM    5  O   UNL     1      -8.712   6.284  68.033  1.00  0.00    -0.116 OA 
HETATM    6  H   UNL     1      -7.868   6.706  68.145  1.00  0.00     0.000 HD 
BRANCH   4   7
HETATM    7  C   UNL     1      -8.598   6.911  65.703  1.00  0.00    -0.110 C  
HETATM    8  H   UNL     1      -7.014   7.794  65.001  1.00  0.00     0.000 HD 
HETATM    9  O   UNL     1      -7.521   7.811  65.805  1.00  0.00    -0.074 OA 
BRANCH   7  10
HETATM   10  C   UNL     1      -8.045   5.494  65.395  1.00  0.00    -0.123 C  
HETATM   11  H   UNL     1      -8.609   3.675  65.715  1.00  0.00     0.000 HD 
HETATM   12  O   UNL     1      -8.948   4.543  65.904  1.00  0.00    -0.118 OA 
BRANCH  10  13
HETATM   13  C   UNL     1      -6.640   5.232  66.006  1.00  0.00    -0.048 C  
HETATM   14  H   UNL     1      -5.340   6.219  67.058  1.00  0.00     0.000 HD 
HETATM   15  O   UNL     1      -6.199   6.379  66.684  1.00  0.00    -0.037 OA 
BRANCH  13  16
HETATM   16  C   UNL     1      -6.616   4.078  66.981  1.00  0.00    -0.046 C  
HETATM   17  O   UNL     1      -6.509   2.935  66.564  1.00  0.00    -0.031 OA 
BRANCH  16  18
HETATM   18  O   UNL     1      -6.723   4.286  68.308  1.00  0.00    -0.045 OA 
BRANCH  18  19
HETATM   19 CA   UNL     1      -6.090   6.437  69.220  1.00  0.00    -0.017 Ca 
BRANCH  19  20
HETATM   20  O   UNL     1      -5.456   8.587  70.130  1.00  0.00    -0.022 OA 
BRANCH  20  21
HETATM   21  C   UNL     1      -6.547   9.172  70.655  1.00  0.00    -0.071 C  
HETATM   22  O   UNL     1      -6.440   9.702  71.748  1.00  0.00    -0.302 OA 
BRANCH  21  23
HETATM   23  C   UNL     1      -7.910   9.038  70.013  1.00  0.00    -0.088 C  
HETATM   24  H   UNL     1      -9.186  10.229  69.189  1.00  0.00     0.000 HD 
HETATM   25  O   UNL     1      -8.330  10.313  69.592  1.00  0.00    -0.169 OA 
BRANCH  23  26
HETATM   26  C   UNL     1      -9.005   8.421  70.935  1.00  0.00    -0.160 C  
HETATM   27  H   UNL     1      -9.605   8.643  72.765  1.00  0.00     0.000 HD 
HETATM   28  O   UNL     1      -8.938   9.020  72.204  1.00  0.00    -0.378 OA 
BRANCH  26  29
HETATM   29  C   UNL     1     -10.484   8.452  70.416  1.00  0.00    -0.214 C  
BRANCH  29  30
HETATM   30  O   UNL     1     -11.186   9.354  71.259  1.00  0.00    -0.309 OA 
BRANCH  30  31
HETATM   31  C   UNL     1     -11.929  10.360  70.601  1.00  0.00    -0.351 C  
HETATM   32  O   UNL     1     -11.076  11.131  69.770  1.00  0.00    -0.251 OA 
HETATM   33  C   UNL     1     -11.813  12.136  69.090  1.00  0.00    -0.305 C  
HETATM   34  H   UNL     1     -13.765  11.063  73.229  1.00  0.00     0.000 HD 
HETATM   35  C   UNL     1     -12.362  13.172  70.104  1.00  0.00    -0.213 C  
HETATM   36  O   UNL     1     -11.309  13.770  70.819  1.00  0.00    -0.441 OA 
HETATM   37  C   UNL     1     -13.305  12.440  71.081  1.00  0.00     0.305 C  
HETATM   38  O   UNL     1     -13.387  10.514  72.553  1.00  0.00    -0.136 OA 
HETATM   39  H   UNL     1     -11.646  14.405  71.441  1.00  0.00     0.000 HD 
HETATM   40  O   UNL     1     -13.757  13.292  72.104  1.00  0.00    -0.507 OA 
HETATM   41  C   UNL     1     -12.546  11.256  71.704  1.00  0.00    -0.251 C  
HETATM   42  H   UNL     1     -14.338  12.841  72.705  1.00  0.00     0.000 HD 
BRANCH  33  43
HETATM   43  C   UNL     1     -10.884  12.780  68.048  1.00  0.00    -0.233 C  
HETATM   44  O   UNL     1      -9.818  11.931  67.721  1.00  0.00    -0.177 OA 
HETATM   45  H   UNL     1      -9.244  12.328  67.078  1.00  0.00     0.000 HD 
ENDBRANCH  33  43
ENDBRANCH  30  31
ENDBRANCH  29  30
BRANCH  29  46
HETATM   46  C   UNL     1     -11.204   7.062  70.310  1.00  0.00    -0.298 C  
HETATM   47  O   UNL     1     -12.583   7.186  70.570  1.00  0.00    -0.614 OA 
HETATM   48  H   UNL     1     -13.019   6.346  70.506  1.00  0.00     0.000 HD 
BRANCH  46  49
HETATM   49  C   UNL     1     -10.554   5.924  71.131  1.00  0.00    -0.246 C  
HETATM   50  H   UNL     1     -10.801   5.071  72.873  1.00  0.00     0.000 HD 
HETATM   51  O   UNL     1     -11.201   5.770  72.368  1.00  0.00    -0.264 OA 
ENDBRANCH  46  49
ENDBRANCH  29  46
ENDBRANCH  26  29
ENDBRANCH  23  26
ENDBRANCH  21  23
ENDBRANCH  20  21
ENDBRANCH  19  20
ENDBRANCH  18  19
ENDBRANCH  16  18
ENDBRANCH  13  16
ENDBRANCH  10  13
ENDBRANCH   7  10
ENDBRANCH   4   7
ENDBRANCH   2   4
TORSDOF 17
ENDMDL
MODEL      407
REMARK 921   NORMALIZED FREE ENERGY PREDICTED BY IDOCK:   -1.93 KCAL/MOL
REMARK 922        TOTAL FREE ENERGY PREDICTED BY IDOCK:   -7.28 KCAL/MOL
REMARK 923 INTER-LIGAND FREE ENERGY PREDICTED BY IDOCK:   -6.33 KCAL/MOL
REMARK 924 INTRA-LIGAND FREE ENERGY PREDICTED BY IDOCK:   -0.96 KCAL/MOL
REMARK 927      BINDING AFFINITY PREDICTED BY RF-SCORE:    0.00 PKD
ROOT
HETATM    1  O   UNL     1      -9.207  14.304  69.250  1.00  0.00    -0.394 OA 
HETATM    2  C   UNL     1      -8.390  13.939  68.171  1.00  0.00    -0.163 C  
HETATM    3  H   UNL     1      -9.860  14.930  68.959  1.00  0.00     0.000 HD 
ENDROOT
BRANCH   2   4
HETATM    4  C   UNL     1      -7.333  12.926  68.641  1.00  0.00    -0.099 C  
HETATM    5  O   UNL     1      -6.880  13.288  69.922  1.00  0.00    -0.343 OA 
HETATM    6  H   UNL     1      -6.227  12.662  70.212  1.00  0.00     0.000 HD 
BRANCH   4   7
HETATM    7  C   UNL     1      -7.905  11.484  68.684  1.00  0.00    -0.137 C  
HETATM    8  H   UNL     1      -9.643  10.648  68.931  1.00  0.00     0.000 HD 
HETATM    9  O   UNL     1      -9.293  11.531  68.905  1.00  0.00    -0.121 OA 
BRANCH   7  10
HETATM   10  C   UNL     1      -7.629  10.711  67.367  1.00  0.00    -0.095 C  
HETATM   11  H   UNL     1      -6.718  11.071  65.702  1.00  0.00     0.000 HD 
HETATM   12  O   UNL     1      -6.887  11.544  66.509  1.00  0.00    -0.111 OA 
BRANCH  10  13
HETATM   13  C   UNL     1      -8.921  10.257  66.634  1.00  0.00    -0.140 C  
HETATM   14  H   UNL     1      -9.791  10.611  64.933  1.00  0.00     0.000 HD 
HETATM   15  O   UNL     1      -9.001  10.889  65.382  1.00  0.00    -0.193 OA 
BRANCH  13  16
HETATM   16  C   UNL     1      -8.989   8.766  66.406  1.00  0.00    -0.158 C  
HETATM   17  O   UNL     1     -10.075   8.206  66.379  1.00  0.00    -0.241 OA 
BRANCH  16  18
HETATM   18  O   UNL     1      -7.869   8.034  66.242  1.00  0.00    -0.095 OA 
BRANCH  18  19
HETATM   19 CA   UNL     1      -8.028   5.619  66.233  1.00  0.00    -0.090 Ca 
BRANCH  19  20
HETATM   20  O   UNL     1      -8.186   3.205  66.224  1.00  0.00    -0.087 OA 
BRANCH  20  21
HETATM   21  C   UNL     1      -7.719   2.737  67.394  1.00  0.00    -0.069 C  
HETATM   22  O   UNL     1      -7.901   1.559  67.652  1.00  0.00    -0.058 OA 
BRANCH  21  23
HETATM   23  C   UNL     1      -7.140   3.657  68.446  1.00  0.00    -0.051 C  
HETATM   24  H   UNL     1      -5.964   3.472  69.966  1.00  0.00     0.000 HD 
HETATM   25  O   UNL     1      -6.328   2.894  69.305  1.00  0.00    -0.028 OA 
BRANCH  23  26
HETATM   26  C   UNL     1      -8.200   4.422  69.296  1.00  0.00    -0.067 C  
HETATM   27  H   UNL     1      -9.490   5.841  69.007  1.00  0.00     0.000 HD 
HETATM   28  O   UNL     1      -8.844   5.375  68.489  1.00  0.00    -0.101 OA 
BRANCH  26  29
HETATM   29  C   UNL     1      -9.272   3.563  70.052  1.00  0.00    -0.156 C  
BRANCH  29  30
HETATM   30  O   UNL     1     -10.196   4.481  70.618  1.00  0.00    -0.198 OA 
BRANCH  30  31
HETATM   31  C   UNL     1      -9.769   5.827  70.674  1.00  0.00    -0.178 C  
HETATM   32  O   UNL     1      -9.229   6.115  71.953  1.00  0.00    -0.148 OA 
HETATM   33  C   UNL     1      -8.782   7.460  72.019  1.00  0.00    -0.110 C  
HETATM   34  H   UNL     1     -12.352   6.969  69.000  1.00  0.00     0.000 HD 
HETATM   35  C   UNL     1      -9.988   8.429  71.909  1.00  0.00    -0.261 C  
HETATM   36  O   UNL     1     -10.907   8.192  72.948  1.00  0.00    -0.357 OA 
HETATM   37  C   UNL     1     -10.672   8.197  70.546  1.00  0.00    -0.225 C  
HETATM   38  O   UNL     1     -11.586   6.431  69.158  1.00  0.00    -0.318 OA 
HETATM   39  H   UNL     1     -11.646   8.786  72.881  1.00  0.00     0.000 HD 
HETATM   40  O   UNL     1     -11.847   8.961  70.418  1.00  0.00    -0.469 OA 
HETATM   41  C   UNL     1     -11.020   6.705  70.417  1.00  0.00    -0.290 C  
HETATM   42  H   UNL     1     -12.267   8.819  69.578  1.00  0.00     0.000 HD 
BRANCH  33  43
HETATM   43  C   UNL     1      -8.012   7.640  73.337  1.00  0.00    -0.133 C  
HETATM   44  O   UNL     1      -8.095   8.961  73.800  1.00  0.00    -0.321 OA 
HETATM   45  H   UNL     1      -7.620   9.072  74.614  1.00  0.00     0.000 HD 
ENDBRANCH  33  43
ENDBRANCH  30  31
ENDBRANCH  29  30
BRANCH  29  46
HETATM   46  C   UNL     1      -8.715   2.554  71.118  1.00  0.00    -0.066 C  
HETATM   47  O   UNL     1      -9.671   1.566  71.426  1.00  0.00    -0.119 OA 
HETATM   48  H   UNL     1      -9.335   0.956  72.070  1.00  0.00     0.000 HD 
BRANCH  46  49
HETATM   49  C   UNL     1      -8.118   3.205  72.387  1.00  0.00    -0.063 C  
HETATM   50  H   UNL     1      -8.488   3.245  74.306  1.00  0.00     0.000 HD 
HETATM   51  O   UNL     1      -8.854   2.845  73.526  1.00  0.00    -0.076 OA 
ENDBRANCH  46  49
ENDBRANCH  29  46
ENDBRANCH  26  29
ENDBRANCH  23  26
ENDBRANCH  21  23
ENDBRANCH  20  21
ENDBRANCH  19  20
ENDBRANCH  18  19
ENDBRANCH  16  18
ENDBRANCH  13  16
ENDBRANCH  10  13
ENDBRANCH   7  10
ENDBRANCH   4   7
ENDBRANCH   2   4
TORSDOF 17
ENDMDL
MODEL      408
REMARK 921   NORMALIZED FREE ENERGY PREDICTED BY IDOCK:   -1.92 KCAL/MOL
REMARK 922        TOTAL FREE ENERGY PREDICTED BY IDOCK:   -7.27 KCAL/MOL
REMARK 923 INTER-LIGAND FREE ENERGY PREDICTED BY IDOCK:   -5.25 KCAL/MOL
REMARK 924 INTRA-LIGAND FREE ENERGY PREDICTED BY IDOCK:   -2.02 KCAL/MOL
REMARK 927      BINDING AFFINITY PREDICTED BY RF-SCORE:    0.00 PKD
ROOT
HETATM    1  O   UNL     1      -8.844  15.994  67.380  1.00  0.00    -0.179 OA 
HETATM    2  C   UNL     1      -9.357  16.472  66.166  1.00  0.00    -0.304 C  
HETATM    3  H   UNL     1      -8.041  16.456  67.592  1.00  0.00     0.000 HD 
ENDROOT
BRANCH   2   4
HETATM    4  C   UNL     1     -10.657  15.724  65.824  1.00  0.00    -0.355 C  
HETATM    5  O   UNL     1     -11.587  16.631  65.288  1.00  0.00     0.343 OA 
HETATM    6  H   UNL     1     -12.390  16.169  65.076  1.00  0.00     0.000 HD 
BRANCH   4   7
HETATM    7  C   UNL     1     -10.405  14.580  64.807  1.00  0.00    -0.287 C  
HETATM    8  H   UNL     1      -9.769  12.743  64.859  1.00  0.00     0.000 HD 
HETATM    9  O   UNL     1      -9.923  13.444  65.482  1.00  0.00    -0.275 OA 
BRANCH   7  10
HETATM   10  C   UNL     1     -11.695  14.197  64.033  1.00  0.00    -0.207 C  
HETATM   11  H   UNL     1     -13.528  13.793  64.488  1.00  0.00     0.000 HD 
HETATM   12  O   UNL     1     -12.738  14.027  64.962  1.00  0.00    -0.632 OA 
BRANCH  10  13
HETATM   13  C   UNL     1     -11.552  12.897  63.195  1.00  0.00    -0.055 C  
HETATM   14  H   UNL     1     -10.107  11.756  62.577  1.00  0.00     0.000 HD 
HETATM   15  O   UNL     1     -10.195  12.551  63.089  1.00  0.00    -0.292 OA 
BRANCH  13  16
HETATM   16  C   UNL     1     -12.287  11.718  63.786  1.00  0.00    -0.337 C  
HETATM   17  O   UNL     1     -13.505  11.664  63.710  1.00  0.00    -0.298 OA 
BRANCH  16  18
HETATM   18  O   UNL     1     -11.623  10.724  64.408  1.00  0.00     0.654 OA 
BRANCH  18  19
HETATM   19 CA   UNL     1      -9.208  10.649  64.265  1.00  0.00    -0.163 Ca 
BRANCH  19  20
HETATM   20  O   UNL     1      -6.794  10.573  64.123  1.00  0.00    -0.031 OA 
BRANCH  20  21
HETATM   21  C   UNL     1      -6.439   9.525  63.359  1.00  0.00    -0.102 C  
HETATM   22  O   UNL     1      -5.754   9.743  62.374  1.00  0.00    -0.088 OA 
BRANCH  21  23
HETATM   23  C   UNL     1      -7.003   8.142  63.592  1.00  0.00    -0.077 C  
HETATM   24  H   UNL     1      -8.679   7.244  63.258  1.00  0.00     0.000 HD 
HETATM   25  O   UNL     1      -8.325   8.113  63.111  1.00  0.00    -0.127 OA 
BRANCH  23  26
HETATM   26  C   UNL     1      -6.993   7.678  65.080  1.00  0.00    -0.055 C  
HETATM   27  H   UNL     1      -5.956   8.056  66.675  1.00  0.00     0.000 HD 
HETATM   28  O   UNL     1      -5.962   8.339  65.768  1.00  0.00    -0.040 OA 
BRANCH  26  29
HETATM   29  C   UNL     1      -8.332   7.813  65.885  1.00  0.00    -0.134 C  
BRANCH  29  30
HETATM   30  O   UNL     1      -8.613   9.202  65.967  1.00  0.00    -0.134 OA 
BRANCH  30  31
HETATM   31  C   UNL     1      -8.871   9.702  67.264  1.00  0.00    -0.132 C  
HETATM   32  O   UNL     1     -10.170  10.267  67.319  1.00  0.00    -0.195 OA 
HETATM   33  C   UNL     1     -10.449  10.760  68.621  1.00  0.00    -0.192 C  
HETATM   34  H   UNL     1      -5.851  10.931  67.653  1.00  0.00     0.000 HD 
HETATM   35  C   UNL     1      -9.519  11.957  68.948  1.00  0.00     0.110 C  
HETATM   36  O   UNL     1      -9.698  12.991  68.010  1.00  0.00    -0.211 OA 
HETATM   37  C   UNL     1      -8.058  11.462  68.905  1.00  0.00    -0.067 C  
HETATM   38  O   UNL     1      -6.504  10.263  67.481  1.00  0.00    -0.064 OA 
HETATM   39  H   UNL     1      -9.129  13.724  68.211  1.00  0.00     0.000 HD 
HETATM   40  O   UNL     1      -7.147  12.519  69.080  1.00  0.00    -0.175 OA 
HETATM   41  C   UNL     1      -7.806  10.793  67.544  1.00  0.00    -0.109 C  
HETATM   42  H   UNL     1      -6.248  12.214  69.054  1.00  0.00     0.000 HD 
BRANCH  33  43
HETATM   43  C   UNL     1     -11.934  11.148  68.672  1.00  0.00    -0.219 C  
HETATM   44  O   UNL     1     -12.153  12.406  68.093  1.00  0.00    -0.362 OA 
HETATM   45  H   UNL     1     -13.071  12.646  68.124  1.00  0.00     0.000 HD 
ENDBRANCH  33  43
ENDBRANCH  30  31
ENDBRANCH  29  30
BRANCH  29  46
HETATM   46  C   UNL     1      -8.359   7.121  67.293  1.00  0.00    -0.119 C  
HETATM   47  O   UNL     1      -7.109   6.546  67.598  1.00  0.00    -0.079 OA 
HETATM   48  H   UNL     1      -7.126   6.128  68.450  1.00  0.00     0.000 HD 
BRANCH  46  49
HETATM   49  C   UNL     1      -9.527   6.132  67.515  1.00  0.00    -0.112 C  
HETATM   50  H   UNL     1     -10.777   5.663  68.942  1.00  0.00     0.000 HD 
HETATM   51  O   UNL     1     -10.060   6.271  68.806  1.00  0.00    -0.145 OA 
ENDBRANCH  46  49
ENDBRANCH  29  46
ENDBRANCH  26  29
ENDBRANCH  23  26
ENDBRANCH  21  23
ENDBRANCH  20  21
ENDBRANCH  19  20
ENDBRANCH  18  19
ENDBRANCH  16  18
ENDBRANCH  13  16
ENDBRANCH  10  13
ENDBRANCH   7  10
ENDBRANCH   4   7
ENDBRANCH   2   4
TORSDOF 17
ENDMDL
MODEL      409
REMARK 921   NORMALIZED FREE ENERGY PREDICTED BY IDOCK:   -1.69 KCAL/MOL
REMARK 922        TOTAL FREE ENERGY PREDICTED BY IDOCK:   -6.81 KCAL/MOL
REMARK 923 INTER-LIGAND FREE ENERGY PREDICTED BY IDOCK:   -5.59 KCAL/MOL
REMARK 924 INTRA-LIGAND FREE ENERGY PREDICTED BY IDOCK:   -1.22 KCAL/MOL
REMARK 927      BINDING AFFINITY PREDICTED BY RF-SCORE:    0.00 PKD
ROOT
HETATM    1  O   UNL     1      -9.379  14.077  64.553  1.00  0.00     0.224 OA 
HETATM    2  C   UNL     1     -10.736  13.744  64.448  1.00  0.00    -0.316 C  
HETATM    3  H   UNL     1      -8.971  14.031  63.696  1.00  0.00     0.000 HD 
ENDROOT
BRANCH   2   4
HETATM    4  C   UNL     1     -11.396  13.818  65.836  1.00  0.00    -0.307 C  
HETATM    5  O   UNL     1     -12.422  12.859  65.914  1.00  0.00    -0.527 OA 
HETATM    6  H   UNL     1     -12.829  12.905  66.771  1.00  0.00     0.000 HD 
BRANCH   4   7
HETATM    7  C   UNL     1     -10.368  13.568  66.970  1.00  0.00    -0.252 C  
HETATM    8  H   UNL     1     -10.213  13.971  68.866  1.00  0.00     0.000 HD 
HETATM    9  O   UNL     1     -10.844  14.124  68.172  1.00  0.00    -0.239 OA 
BRANCH   7  10
HETATM   10  C   UNL     1     -10.098  12.055  67.186  1.00  0.00    -0.201 C  
HETATM   11  H   UNL     1     -10.904  10.624  68.201  1.00  0.00     0.000 HD 
HETATM   12  O   UNL     1     -11.070  11.551  68.069  1.00  0.00    -0.218 OA 
BRANCH  10  13
HETATM   13  C   UNL     1      -8.688  11.755  67.765  1.00  0.00    -0.155 C  
HETATM   14  H   UNL     1      -7.363  12.685  68.839  1.00  0.00     0.000 HD 
HETATM   15  O   UNL     1      -8.225  12.869  68.484  1.00  0.00    -0.139 OA 
BRANCH  13  16
HETATM   16  C   UNL     1      -8.661  10.561  68.691  1.00  0.00    -0.139 C  
HETATM   17  O   UNL     1      -7.874  10.537  69.624  1.00  0.00    -0.149 OA 
BRANCH  16  18
HETATM   18  O   UNL     1      -9.485   9.512  68.498  1.00  0.00    -0.140 OA 
BRANCH  18  19
HETATM   19 CA   UNL     1     -10.276   8.267  70.417  1.00  0.00    -0.185 Ca 
BRANCH  19  20
HETATM   20  O   UNL     1     -11.067   7.021  72.334  1.00  0.00    -0.239 OA 
BRANCH  20  21
HETATM   21  C   UNL     1     -10.006   6.533  73.000  1.00  0.00    -0.172 C  
HETATM   22  O   UNL     1      -9.041   7.262  73.149  1.00  0.00    -0.135 OA 
BRANCH  21  23
HETATM   23  C   UNL     1      -9.920   5.078  73.404  1.00  0.00    -0.157 C  
HETATM   24  H   UNL     1      -8.934   4.049  74.705  1.00  0.00     0.000 HD 
HETATM   25  O   UNL     1      -8.988   4.962  74.451  1.00  0.00    -0.111 OA 
BRANCH  23  26
HETATM   26  C   UNL     1      -9.516   4.106  72.254  1.00  0.00    -0.133 C  
HETATM   27  H   UNL     1     -10.427   2.987  70.959  1.00  0.00     0.000 HD 
HETATM   28  O   UNL     1     -10.674   3.579  71.660  1.00  0.00     0.414 OA 
BRANCH  26  29
HETATM   29  C   UNL     1      -8.562   4.665  71.142  1.00  0.00    -0.112 C  
BRANCH  29  30
HETATM   30  O   UNL     1      -9.386   4.982  70.029  1.00  0.00    -0.132 OA 
BRANCH  30  31
HETATM   31  C   UNL     1      -8.789   4.825  68.757  1.00  0.00    -0.098 C  
HETATM   32  O   UNL     1      -8.790   6.061  68.063  1.00  0.00    -0.112 OA 
HETATM   33  C   UNL     1      -8.179   5.922  66.789  1.00  0.00    -0.105 C  
HETATM   34  H   UNL     1     -10.187   1.910  68.192  1.00  0.00     0.000 HD 
HETATM   35  C   UNL     1      -9.035   4.998  65.885  1.00  0.00    -0.141 C  
HETATM   36  O   UNL     1     -10.330   5.525  65.725  1.00  0.00    -0.418 OA 
HETATM   37  C   UNL     1      -9.117   3.609  66.552  1.00  0.00    -0.159 C  
HETATM   38  O   UNL     1      -9.667   2.549  68.663  1.00  0.00    -0.095 OA 
HETATM   39  H   UNL     1     -10.854   4.958  65.172  1.00  0.00     0.000 HD 
HETATM   40  O   UNL     1      -9.973   2.744  65.848  1.00  0.00    -0.238 OA 
HETATM   41  C   UNL     1      -9.639   3.783  67.988  1.00  0.00    -0.119 C  
HETATM   42  H   UNL     1     -10.023   1.889  66.259  1.00  0.00     0.000 HD 
BRANCH  33  43
HETATM   43  C   UNL     1      -8.011   7.326  66.188  1.00  0.00    -0.112 C  
HETATM   44  O   UNL     1      -8.985   7.583  65.212  1.00  0.00    -0.377 OA 
HETATM   45  H   UNL     1      -8.881   8.450  64.841  1.00  0.00     0.000 HD 
ENDBRANCH  33  43
ENDBRANCH  30  31
ENDBRANCH  29  30
BRANCH  29  46
HETATM   46  C   UNL     1      -7.359   3.740  70.741  1.00  0.00    -0.037 C  
HETATM   47  O   UNL     1      -7.390   2.530  71.461  1.00  0.00    -0.038 OA 
HETATM   48  H   UNL     1      -6.663   1.970  71.219  1.00  0.00     0.000 HD 
BRANCH  46  49
HETATM   49  C   UNL     1      -5.969   4.415  70.792  1.00  0.00    -0.014 C  
HETATM   50  H   UNL     1      -4.395   4.581  69.644  1.00  0.00     0.000 HD 
HETATM   51  O   UNL     1      -5.250   4.166  69.613  1.00  0.00    -0.007 OA 
ENDBRANCH  46  49
ENDBRANCH  29  46
ENDBRANCH  26  29
ENDBRANCH  23  26
ENDBRANCH  21  23
ENDBRANCH  20  21
ENDBRANCH  19  20
ENDBRANCH  18  19
ENDBRANCH  16  18
ENDBRANCH  13  16
ENDBRANCH  10  13
ENDBRANCH   7  10
ENDBRANCH   4   7
ENDBRANCH   2   4
TORSDOF 17
ENDMDL
MODEL      410
REMARK 921   NORMALIZED FREE ENERGY PREDICTED BY IDOCK:   -1.64 KCAL/MOL
REMARK 922        TOTAL FREE ENERGY PREDICTED BY IDOCK:   -6.71 KCAL/MOL
REMARK 923 INTER-LIGAND FREE ENERGY PREDICTED BY IDOCK:   -5.60 KCAL/MOL
REMARK 924 INTRA-LIGAND FREE ENERGY PREDICTED BY IDOCK:   -1.11 KCAL/MOL
REMARK 927      BINDING AFFINITY PREDICTED BY RF-SCORE:    0.00 PKD
ROOT
HETATM    1  O   UNL     1     -10.263  15.451  70.064  1.00  0.00    -0.355 OA 
HETATM    2  C   UNL     1     -10.023  15.957  68.779  1.00  0.00    -0.220 C  
HETATM    3  H   UNL     1      -9.521  15.640  70.626  1.00  0.00     0.000 HD 
ENDROOT
BRANCH   2   4
HETATM    4  C   UNL     1     -11.224  15.650  67.869  1.00  0.00    -0.328 C  
HETATM    5  O   UNL     1     -11.059  16.316  66.642  1.00  0.00    -0.097 OA 
HETATM    6  H   UNL     1     -11.802  16.126  66.080  1.00  0.00     0.000 HD 
BRANCH   4   7
HETATM    7  C   UNL     1     -11.373  14.126  67.615  1.00  0.00    -0.319 C  
HETATM    8  H   UNL     1     -12.351  12.641  68.400  1.00  0.00     0.000 HD 
HETATM    9  O   UNL     1     -12.261  13.574  68.556  1.00  0.00    -0.320 OA 
BRANCH   7  10
HETATM   10  C   UNL     1     -11.899  13.825  66.187  1.00  0.00    -0.398 C  
HETATM   11  H   UNL     1     -13.099  12.544  65.383  1.00  0.00     0.000 HD 
HETATM   12  O   UNL     1     -12.777  12.728  66.257  1.00  0.00    -0.222 OA 
BRANCH  10  13
HETATM   13  C   UNL     1     -10.771  13.502  65.168  1.00  0.00    -0.341 C  
HETATM   14  H   UNL     1      -8.889  13.029  65.232  1.00  0.00     0.000 HD 
HETATM   15  O   UNL     1      -9.578  13.227  65.855  1.00  0.00    -0.218 OA 
BRANCH  13  16
HETATM   16  C   UNL     1     -11.083  12.316  64.285  1.00  0.00    -0.348 C  
HETATM   17  O   UNL     1     -11.819  12.456  63.321  1.00  0.00    -0.466 OA 
BRANCH  16  18
HETATM   18  O   UNL     1     -10.569  11.098  64.548  1.00  0.00    -0.329 OA 
BRANCH  18  19
HETATM   19 CA   UNL     1      -9.019  10.845  66.390  1.00  0.00    -0.147 Ca 
BRANCH  19  20
HETATM   20  O   UNL     1      -7.469  10.591  68.230  1.00  0.00    -0.086 OA 
BRANCH  20  21
HETATM   21  C   UNL     1      -7.344   9.283  68.512  1.00  0.00    -0.076 C  
HETATM   22  O   UNL     1      -6.646   8.605  67.777  1.00  0.00    -0.060 OA 
BRANCH  21  23
HETATM   23  C   UNL     1      -8.168   8.618  69.591  1.00  0.00    -0.114 C  
HETATM   24  H   UNL     1      -8.226   8.650  71.520  1.00  0.00     0.000 HD 
HETATM   25  O   UNL     1      -7.708   9.067  70.842  1.00  0.00    -0.105 OA 
BRANCH  23  26
HETATM   26  C   UNL     1      -8.136   7.060  69.567  1.00  0.00    -0.130 C  
HETATM   27  H   UNL     1      -7.893   5.628  70.853  1.00  0.00     0.000 HD 
HETATM   28  O   UNL     1      -7.913   6.578  70.868  1.00  0.00    -0.108 OA 
BRANCH  26  29
HETATM   29  C   UNL     1      -9.369   6.323  68.938  1.00  0.00    -0.128 C  
BRANCH  29  30
HETATM   30  O   UNL     1      -9.411   6.708  67.572  1.00  0.00    -0.125 OA 
BRANCH  30  31
HETATM   31  C   UNL     1      -8.745   5.848  66.670  1.00  0.00    -0.121 C  
HETATM   32  O   UNL     1      -7.852   5.001  67.373  1.00  0.00    -0.094 OA 
HETATM   33  C   UNL     1      -7.186   4.120  66.480  1.00  0.00    -0.075 C  
HETATM   34  H   UNL     1      -8.338   8.166  64.382  1.00  0.00     0.000 HD 
HETATM   35  C   UNL     1      -6.256   4.923  65.534  1.00  0.00    -0.034 C  
HETATM   36  O   UNL     1      -5.301   5.643  66.275  1.00  0.00    -0.011 OA 
HETATM   37  C   UNL     1      -7.125   5.900  64.715  1.00  0.00    -0.060 C  
HETATM   38  O   UNL     1      -8.820   7.613  64.984  1.00  0.00     0.074 OA 
HETATM   39  H   UNL     1      -4.732   6.135  65.695  1.00  0.00     0.000 HD 
HETATM   40  O   UNL     1      -6.339   6.746  63.912  1.00  0.00    -0.034 OA 
HETATM   41  C   UNL     1      -7.958   6.751  65.687  1.00  0.00    -0.116 C  
HETATM   42  H   UNL     1      -6.874   7.347  63.408  1.00  0.00     0.000 HD 
BRANCH  33  43
HETATM   43  C   UNL     1      -6.412   3.091  67.319  1.00  0.00    -0.037 C  
HETATM   44  O   UNL     1      -6.977   1.812  67.204  1.00  0.00    -0.038 OA 
HETATM   45  H   UNL     1      -6.498   1.177  67.722  1.00  0.00     0.000 HD 
ENDBRANCH  33  43
ENDBRANCH  30  31
ENDBRANCH  29  30
BRANCH  29  46
HETATM   46  C   UNL     1     -10.745   6.551  69.658  1.00  0.00    -0.269 C  
HETATM   47  O   UNL     1     -11.182   7.881  69.503  1.00  0.00    -0.446 OA 
HETATM   48  H   UNL     1     -12.014   8.019  69.938  1.00  0.00     0.000 HD 
BRANCH  46  49
HETATM   49  C   UNL     1     -10.797   6.086  71.132  1.00  0.00    -0.277 C  
HETATM   50  H   UNL     1     -11.849   4.855  72.227  1.00  0.00     0.000 HD 
HETATM   51  O   UNL     1     -11.816   5.141  71.321  1.00  0.00     0.975 OA 
ENDBRANCH  46  49
ENDBRANCH  29  46
ENDBRANCH  26  29
ENDBRANCH  23  26
ENDBRANCH  21  23
ENDBRANCH  20  21
ENDBRANCH  19  20
ENDBRANCH  18  19
ENDBRANCH  16  18
ENDBRANCH  13  16
ENDBRANCH  10  13
ENDBRANCH   7  10
ENDBRANCH   4   7
ENDBRANCH   2   4
TORSDOF 17
ENDMDL
MODEL      411
REMARK 921   NORMALIZED FREE ENERGY PREDICTED BY IDOCK:   -1.43 KCAL/MOL
REMARK 922        TOTAL FREE ENERGY PREDICTED BY IDOCK:   -6.30 KCAL/MOL
REMARK 923 INTER-LIGAND FREE ENERGY PREDICTED BY IDOCK:   -6.00 KCAL/MOL
REMARK 924 INTRA-LIGAND FREE ENERGY PREDICTED BY IDOCK:   -0.29 KCAL/MOL
REMARK 927      BINDING AFFINITY PREDICTED BY RF-SCORE:    0.00 PKD
ROOT
HETATM    1  O   UNL     1     -12.843   9.484  71.752  1.00  0.00    -0.346 OA 
HETATM    2  C   UNL     1     -11.996   8.767  70.895  1.00  0.00    -0.201 C  
HETATM    3  H   UNL     1     -13.008   8.975  72.537  1.00  0.00     0.000 HD 
ENDROOT
BRANCH   2   4
HETATM    4  C   UNL     1     -11.730   9.591  69.624  1.00  0.00     0.246 C  
HETATM    5  O   UNL     1     -11.760  10.960  69.942  1.00  0.00    -0.277 OA 
HETATM    6  H   UNL     1     -11.595  11.468  69.157  1.00  0.00     0.000 HD 
BRANCH   4   7
HETATM    7  C   UNL     1     -10.357   9.237  68.992  1.00  0.00    -0.214 C  
HETATM    8  H   UNL     1      -8.709  10.170  68.552  1.00  0.00     0.000 HD 
HETATM    9  O   UNL     1      -9.549  10.387  68.939  1.00  0.00    -0.173 OA 
BRANCH   7  10
HETATM   10  C   UNL     1      -9.616   8.136  69.796  1.00  0.00    -0.171 C  
HETATM   11  H   UNL     1     -10.121   6.611  70.868  1.00  0.00     0.000 HD 
HETATM   12  O   UNL     1     -10.575   7.285  70.376  1.00  0.00    -0.217 OA 
BRANCH  10  13
HETATM   13  C   UNL     1      -8.700   8.699  70.918  1.00  0.00    -0.181 C  
HETATM   14  H   UNL     1      -8.756   8.861  72.853  1.00  0.00     0.000 HD 
HETATM   15  O   UNL     1      -9.317   8.517  72.167  1.00  0.00    -0.239 OA 
BRANCH  13  16
HETATM   16  C   UNL     1      -7.342   8.041  70.970  1.00  0.00    -0.059 C  
HETATM   17  O   UNL     1      -7.017   7.401  71.958  1.00  0.00    -0.061 OA 
BRANCH  16  18
HETATM   18  O   UNL     1      -6.472   8.157  69.947  1.00  0.00    -0.038 OA 
BRANCH  18  19
HETATM   19 CA   UNL     1      -7.108   7.340  67.760  1.00  0.00    -0.064 Ca 
BRANCH  19  20
HETATM   20  O   UNL     1      -7.745   6.524  65.573  1.00  0.00    -0.086 OA 
BRANCH  20  21
HETATM   21  C   UNL     1      -6.660   6.526  64.779  1.00  0.00    -0.038 C  
HETATM   22  O   UNL     1      -5.763   5.742  65.037  1.00  0.00    -0.022 OA 
BRANCH  21  23
HETATM   23  C   UNL     1      -6.460   7.572  63.705  1.00  0.00    -0.053 C  
HETATM   24  H   UNL     1      -5.004   8.684  63.096  1.00  0.00     0.000 HD 
HETATM   25  O   UNL     1      -5.130   8.027  63.770  1.00  0.00    -0.040 OA 
BRANCH  23  26
HETATM   26  C   UNL     1      -7.421   8.796  63.802  1.00  0.00    -0.111 C  
HETATM   27  H   UNL     1      -9.306   9.143  63.508  1.00  0.00     0.000 HD 
HETATM   28  O   UNL     1      -8.720   8.397  63.448  1.00  0.00     0.026 OA 
BRANCH  26  29
HETATM   29  C   UNL     1      -7.461   9.573  65.163  1.00  0.00    -0.109 C  
BRANCH  29  30
HETATM   30  O   UNL     1      -8.821   9.914  65.391  1.00  0.00    -0.149 OA 
BRANCH  30  31
HETATM   31  C   UNL     1      -9.107  11.297  65.449  1.00  0.00    -0.147 C  
HETATM   32  O   UNL     1      -8.886  11.786  66.762  1.00  0.00    -0.180 OA 
HETATM   33  C   UNL     1      -9.155  13.178  66.831  1.00  0.00    -0.229 C  
HETATM   34  H   UNL     1     -11.765  11.075  63.536  1.00  0.00     0.000 HD 
HETATM   35  C   UNL     1     -10.665  13.441  66.597  1.00  0.00    -0.282 C  
HETATM   36  O   UNL     1     -11.439  12.769  67.560  1.00  0.00    -0.294 OA 
HETATM   37  C   UNL     1     -11.031  12.934  65.187  1.00  0.00    -0.289 C  
HETATM   38  O   UNL     1     -10.851  10.973  63.771  1.00  0.00    -0.339 OA 
HETATM   39  H   UNL     1     -12.364  12.931  67.416  1.00  0.00     0.000 HD 
HETATM   40  O   UNL     1     -12.413  13.034  64.941  1.00  0.00    -0.447 OA 
HETATM   41  C   UNL     1     -10.599  11.463  65.066  1.00  0.00    -0.299 C  
HETATM   42  H   UNL     1     -12.638  12.722  64.073  1.00  0.00     0.000 HD 
BRANCH  33  43
HETATM   43  C   UNL     1      -8.684  13.683  68.204  1.00  0.00    -0.177 C  
HETATM   44  O   UNL     1      -8.035  12.670  68.925  1.00  0.00    -0.322 OA 
HETATM   45  H   UNL     1      -7.744  12.982  69.773  1.00  0.00     0.000 HD 
ENDBRANCH  33  43
ENDBRANCH  30  31
ENDBRANCH  29  30
BRANCH  29  46
HETATM   46  C   UNL     1      -6.514  10.820  65.271  1.00  0.00     0.072 C  
HETATM   47  O   UNL     1      -5.891  11.088  64.036  1.00  0.00    -0.346 OA 
HETATM   48  H   UNL     1      -5.318  11.842  64.101  1.00  0.00     0.000 HD 
BRANCH  46  49
HETATM   49  C   UNL     1      -5.503  10.776  66.440  1.00  0.00    -0.091 C  
HETATM   50  H   UNL     1      -5.530  10.449  68.367  1.00  0.00     0.000 HD 
HETATM   51  O   UNL     1      -6.151  10.476  67.648  1.00  0.00    -0.051 OA 
ENDBRANCH  46  49
ENDBRANCH  29  46
ENDBRANCH  26  29
ENDBRANCH  23  26
ENDBRANCH  21  23
ENDBRANCH  20  21
ENDBRANCH  19  20
ENDBRANCH  18  19
ENDBRANCH  16  18
ENDBRANCH  13  16
ENDBRANCH  10  13
ENDBRANCH   7  10
ENDBRANCH   4   7
ENDBRANCH   2   4
TORSDOF 17
ENDMDL
MODEL      412
REMARK 921   NORMALIZED FREE ENERGY PREDICTED BY IDOCK:   -1.37 KCAL/MOL
REMARK 922        TOTAL FREE ENERGY PREDICTED BY IDOCK:   -6.18 KCAL/MOL
REMARK 923 INTER-LIGAND FREE ENERGY PREDICTED BY IDOCK:   -6.86 KCAL/MOL
REMARK 924 INTRA-LIGAND FREE ENERGY PREDICTED BY IDOCK:    0.68 KCAL/MOL
REMARK 927      BINDING AFFINITY PREDICTED BY RF-SCORE:    0.00 PKD
ROOT
HETATM    1  O   UNL     1      -8.928  14.342  69.177  1.00  0.00    -0.380 OA 
HETATM    2  C   UNL     1      -7.635  14.435  68.643  1.00  0.00    -0.132 C  
HETATM    3  H   UNL     1      -9.447  13.741  68.655  1.00  0.00     0.000 HD 
ENDROOT
BRANCH   2   4
HETATM    4  C   UNL     1      -6.795  15.408  69.488  1.00  0.00    -0.181 C  
HETATM    5  O   UNL     1      -5.649  14.744  69.959  1.00  0.00    -0.103 OA 
HETATM    6  H   UNL     1      -5.130  15.345  70.481  1.00  0.00     0.000 HD 
BRANCH   4   7
HETATM    7  C   UNL     1      -6.371  16.655  68.669  1.00  0.00    -0.148 C  
HETATM    8  H   UNL     1      -4.895  17.162  67.509  1.00  0.00     0.000 HD 
HETATM    9  O   UNL     1      -5.155  16.398  68.011  1.00  0.00    -0.098 OA 
BRANCH   7  10
HETATM   10  C   UNL     1      -7.441  17.049  67.616  1.00  0.00    -0.164 C  
HETATM   11  H   UNL     1      -7.489  18.114  66.006  1.00  0.00     0.000 HD 
HETATM   12  O   UNL     1      -6.834  17.873  66.650  1.00  0.00    -0.174 OA 
BRANCH  10  13
HETATM   13  C   UNL     1      -8.659  17.799  68.223  1.00  0.00    -0.277 C  
HETATM   14  H   UNL     1      -9.319  19.625  68.282  1.00  0.00     0.000 HD 
HETATM   15  O   UNL     1      -8.574  19.166  67.912  1.00  0.00    -0.290 OA 
BRANCH  13  16
HETATM   16  C   UNL     1      -9.989  17.290  67.720  1.00  0.00    -0.301 C  
HETATM   17  O   UNL     1     -10.887  18.081  67.475  1.00  0.00    -0.379 OA 
BRANCH  16  18
HETATM   18  O   UNL     1     -10.209  15.972  67.545  1.00  0.00    -0.262 OA 
BRANCH  18  19
HETATM   19 CA   UNL     1     -11.337  15.220  65.540  1.00  0.00    -0.317 Ca 
BRANCH  19  20
HETATM   20  O   UNL     1     -12.465  14.468  63.536  1.00  0.00    -0.727 OA 
BRANCH  20  21
HETATM   21  C   UNL     1     -12.381  13.128  63.470  1.00  0.00    -0.398 C  
HETATM   22  O   UNL     1     -12.930  12.567  62.537  1.00  0.00     0.643 OA 
BRANCH  21  23
HETATM   23  C   UNL     1     -11.785  12.311  64.594  1.00  0.00    -0.356 C  
HETATM   24  H   UNL     1     -12.159  10.613  65.434  1.00  0.00     0.000 HD 
HETATM   25  O   UNL     1     -12.533  11.127  64.728  1.00  0.00     0.799 OA 
BRANCH  23  26
HETATM   26  C   UNL     1     -11.735  13.039  65.972  1.00  0.00    -0.393 C  
HETATM   27  H   UNL     1     -12.951  14.073  67.072  1.00  0.00     0.000 HD 
HETATM   28  O   UNL     1     -12.982  13.629  66.233  1.00  0.00    -0.143 OA 
BRANCH  26  29
HETATM   29  C   UNL     1     -11.281  12.197  67.215  1.00  0.00    -0.306 C  
BRANCH  29  30
HETATM   30  O   UNL     1     -11.320  10.835  66.813  1.00  0.00    -0.248 OA 
BRANCH  30  31
HETATM   31  C   UNL     1     -10.067  10.192  66.694  1.00  0.00    -0.223 C  
HETATM   32  O   UNL     1      -9.899   9.256  67.745  1.00  0.00    -0.158 OA 
HETATM   33  C   UNL     1      -8.650   8.591  67.630  1.00  0.00    -0.133 C  
HETATM   34  H   UNL     1      -8.475  12.928  65.824  1.00  0.00     0.000 HD 
HETATM   35  C   UNL     1      -7.489   9.595  67.850  1.00  0.00    -0.083 C  
HETATM   36  O   UNL     1      -7.584  10.189  69.122  1.00  0.00    -0.084 OA 
HETATM   37  C   UNL     1      -7.576  10.683  66.760  1.00  0.00    -0.120 C  
HETATM   38  O   UNL     1      -9.137  12.251  65.766  1.00  0.00    -0.057 OA 
HETATM   39  H   UNL     1      -6.873  10.804  69.257  1.00  0.00     0.000 HD 
HETATM   40  O   UNL     1      -6.622  11.697  66.960  1.00  0.00    -0.123 OA 
HETATM   41  C   UNL     1      -8.986  11.298  66.790  1.00  0.00    -0.171 C  
HETATM   42  H   UNL     1      -6.676  12.367  66.288  1.00  0.00     0.000 HD 
BRANCH  33  43
HETATM   43  C   UNL     1      -8.627   7.445  68.653  1.00  0.00    -0.129 C  
HETATM   44  O   UNL     1      -9.912   7.174  69.144  1.00  0.00    -0.162 OA 
HETATM   45  H   UNL     1      -9.898   6.466  69.776  1.00  0.00     0.000 HD 
ENDBRANCH  33  43
ENDBRANCH  30  31
ENDBRANCH  29  30
BRANCH  29  46
HETATM   46  C   UNL     1     -12.084  12.444  68.541  1.00  0.00    -0.075 C  
HETATM   47  O   UNL     1     -12.090  13.811  68.880  1.00  0.00    -0.349 OA 
HETATM   48  H   UNL     1     -12.575  13.961  69.682  1.00  0.00     0.000 HD 
BRANCH  46  49
HETATM   49  C   UNL     1     -11.671  11.548  69.731  1.00  0.00    -0.353 C  
HETATM   50  H   UNL     1     -12.473  10.151  70.839  1.00  0.00     0.000 HD 
HETATM   51  O   UNL     1     -12.726  10.701  70.107  1.00  0.00    -0.308 OA 
ENDBRANCH  46  49
ENDBRANCH  29  46
ENDBRANCH  26  29
ENDBRANCH  23  26
ENDBRANCH  21  23
ENDBRANCH  20  21
ENDBRANCH  19  20
ENDBRANCH  18  19
ENDBRANCH  16  18
ENDBRANCH  13  16
ENDBRANCH  10  13
ENDBRANCH   7  10
ENDBRANCH   4   7
ENDBRANCH   2   4
TORSDOF 17
ENDMDL
MODEL      413
REMARK 921   NORMALIZED FREE ENERGY PREDICTED BY IDOCK:   -1.36 KCAL/MOL
REMARK 922        TOTAL FREE ENERGY PREDICTED BY IDOCK:   -6.16 KCAL/MOL
REMARK 923 INTER-LIGAND FREE ENERGY PREDICTED BY IDOCK:   -6.96 KCAL/MOL
REMARK 924 INTRA-LIGAND FREE ENERGY PREDICTED BY IDOCK:    0.80 KCAL/MOL
REMARK 927      BINDING AFFINITY PREDICTED BY RF-SCORE:    0.00 PKD
ROOT
HETATM    1  O   UNL     1      -8.561   8.147  62.948  1.00  0.00    -0.408 OA 
HETATM    2  C   UNL     1      -7.451   7.918  63.773  1.00  0.00    -0.114 C  
HETATM    3  H   UNL     1      -8.945   7.317  62.690  1.00  0.00     0.000 HD 
ENDROOT
BRANCH   2   4
HETATM    4  C   UNL     1      -6.830   9.262  64.190  1.00  0.00    -0.091 C  
HETATM    5  O   UNL     1      -7.725  10.302  63.886  1.00  0.00    -0.181 OA 
HETATM    6  H   UNL     1      -7.341  11.132  64.144  1.00  0.00     0.000 HD 
BRANCH   4   7
HETATM    7  C   UNL     1      -6.500   9.291  65.706  1.00  0.00    -0.068 C  
HETATM    8  H   UNL     1      -5.590  10.484  66.942  1.00  0.00     0.000 HD 
HETATM    9  O   UNL     1      -5.792  10.467  66.014  1.00  0.00    -0.072 OA 
BRANCH   7  10
HETATM   10  C   UNL     1      -7.781   9.229  66.580  1.00  0.00    -0.093 C  
HETATM   11  H   UNL     1      -8.860  10.491  67.567  1.00  0.00     0.000 HD 
HETATM   12  O   UNL     1      -8.075  10.529  67.032  1.00  0.00    -0.115 OA 
BRANCH  10  13
HETATM   13  C   UNL     1      -7.647   8.287  67.809  1.00  0.00    -0.102 C  
HETATM   14  H   UNL     1      -8.071   8.352  69.703  1.00  0.00     0.000 HD 
HETATM   15  O   UNL     1      -8.153   8.928  68.952  1.00  0.00    -0.109 OA 
BRANCH  13  16
HETATM   16  C   UNL     1      -8.384   6.979  67.645  1.00  0.00    -0.117 C  
HETATM   17  O   UNL     1      -7.794   6.003  67.208  1.00  0.00    -0.100 OA 
BRANCH  16  18
HETATM   18  O   UNL     1      -9.689   6.870  67.964  1.00  0.00    -0.129 OA 
BRANCH  18  19
HETATM   19 CA   UNL     1     -10.864   8.814  68.801  1.00  0.00    -0.212 Ca 
BRANCH  19  20
HETATM   20  O   UNL     1     -12.039  10.756  69.639  1.00  0.00    -0.308 OA 
BRANCH  20  21
HETATM   21  C   UNL     1     -11.866  11.771  68.774  1.00  0.00    -0.320 C  
HETATM   22  O   UNL     1     -12.266  11.622  67.632  1.00  0.00    -0.544 OA 
BRANCH  21  23
HETATM   23  C   UNL     1     -11.051  12.994  69.133  1.00  0.00    -0.192 C  
HETATM   24  H   UNL     1     -11.419  14.845  69.535  1.00  0.00     0.000 HD 
HETATM   25  O   UNL     1     -11.931  14.077  69.309  1.00  0.00    -0.317 OA 
BRANCH  23  26
HETATM   26  C   UNL     1      -9.968  13.384  68.083  1.00  0.00    -0.237 C  
HETATM   27  H   UNL     1      -9.912  14.325  66.388  1.00  0.00     0.000 HD 
HETATM   28  O   UNL     1     -10.573  14.087  67.028  1.00  0.00    -0.276 OA 
BRANCH  26  29
HETATM   29  C   UNL     1      -8.720  14.181  68.599  1.00  0.00    -0.126 C  
BRANCH  29  30
HETATM   30  O   UNL     1      -9.212  15.152  69.511  1.00  0.00    -0.212 OA 
BRANCH  30  31
HETATM   31  C   UNL     1      -9.394  16.452  68.987  1.00  0.00    -0.248 C  
HETATM   32  O   UNL     1     -10.129  16.391  67.776  1.00  0.00    -0.250 OA 
HETATM   33  C   UNL     1     -10.332  17.693  67.247  1.00  0.00    -0.354 C  
HETATM   34  H   UNL     1      -6.358  17.443  69.746  1.00  0.00     0.000 HD 
HETATM   35  C   UNL     1      -8.976  18.312  66.818  1.00  0.00    -0.284 C  
HETATM   36  O   UNL     1      -8.351  17.507  65.848  1.00  0.00    -0.538 OA 
HETATM   37  C   UNL     1      -8.076  18.417  68.067  1.00  0.00    -0.274 C  
HETATM   38  O   UNL     1      -7.224  17.089  69.908  1.00  0.00     0.281 OA 
HETATM   39  H   UNL     1      -7.521  17.887  65.586  1.00  0.00     0.000 HD 
HETATM   40  O   UNL     1      -6.784  18.866  67.738  1.00  0.00    -0.207 OA 
HETATM   41  C   UNL     1      -7.981  17.030  68.723  1.00  0.00    -0.248 C  
HETATM   42  H   UNL     1      -6.230  18.931  68.507  1.00  0.00     0.000 HD 
BRANCH  33  43
HETATM   43  C   UNL     1     -11.315  17.578  66.071  1.00  0.00     1.112 C  
HETATM   44  O   UNL     1     -10.656  17.200  64.892  1.00  0.00    -0.620 OA 
HETATM   45  H   UNL     1     -11.263  17.129  64.166  1.00  0.00     0.000 HD 
ENDBRANCH  33  43
ENDBRANCH  30  31
ENDBRANCH  29  30
BRANCH  29  46
HETATM   46  C   UNL     1      -7.808  14.820  67.492  1.00  0.00    -0.188 C  
HETATM   47  O   UNL     1      -8.414  14.728  66.224  1.00  0.00    -0.392 OA 
HETATM   48  H   UNL     1      -7.862  15.115  65.555  1.00  0.00     0.000 HD 
BRANCH  46  49
HETATM   49  C   UNL     1      -6.345  14.320  67.480  1.00  0.00    -0.006 C  
HETATM   50  H   UNL     1      -4.572  15.037  67.077  1.00  0.00     0.000 HD 
HETATM   51  O   UNL     1      -5.471  15.344  67.085  1.00  0.00    -0.303 OA 
ENDBRANCH  46  49
ENDBRANCH  29  46
ENDBRANCH  26  29
ENDBRANCH  23  26
ENDBRANCH  21  23
ENDBRANCH  20  21
ENDBRANCH  19  20
ENDBRANCH  18  19
ENDBRANCH  16  18
ENDBRANCH  13  16
ENDBRANCH  10  13
ENDBRANCH   7  10
ENDBRANCH   4   7
ENDBRANCH   2   4
TORSDOF 17
ENDMDL
MODEL      414
REMARK 921   NORMALIZED FREE ENERGY PREDICTED BY IDOCK:   -0.99 KCAL/MOL
REMARK 922        TOTAL FREE ENERGY PREDICTED BY IDOCK:   -5.41 KCAL/MOL
REMARK 923 INTER-LIGAND FREE ENERGY PREDICTED BY IDOCK:   -3.97 KCAL/MOL
REMARK 924 INTRA-LIGAND FREE ENERGY PREDICTED BY IDOCK:   -1.43 KCAL/MOL
REMARK 927      BINDING AFFINITY PREDICTED BY RF-SCORE:    0.00 PKD
ROOT
HETATM    1  O   UNL     1      -8.893  14.974  65.432  1.00  0.00     0.147 OA 
HETATM    2  C   UNL     1     -10.203  14.567  65.723  1.00  0.00    -0.335 C  
HETATM    3  H   UNL     1      -8.729  14.882  64.501  1.00  0.00     0.000 HD 
ENDROOT
BRANCH   2   4
HETATM    4  C   UNL     1     -10.469  14.716  67.230  1.00  0.00    -0.266 C  
HETATM    5  O   UNL     1     -11.384  13.730  67.640  1.00  0.00    -0.279 OA 
HETATM    6  H   UNL     1     -11.548  13.822  68.571  1.00  0.00     0.000 HD 
BRANCH   4   7
HETATM    7  C   UNL     1      -9.162  14.583  68.055  1.00  0.00    -0.190 C  
HETATM    8  H   UNL     1      -8.500  15.186  69.781  1.00  0.00     0.000 HD 
HETATM    9  O   UNL     1      -9.301  15.267  69.277  1.00  0.00    -0.223 OA 
BRANCH   7  10
HETATM   10  C   UNL     1      -8.807  13.100  68.345  1.00  0.00    -0.117 C  
HETATM   11  H   UNL     1      -9.362  11.754  69.615  1.00  0.00     0.000 HD 
HETATM   12  O   UNL     1      -9.579  12.662  69.438  1.00  0.00     0.663 OA 
BRANCH  10  13
HETATM   13  C   UNL     1      -7.304  12.875  68.670  1.00  0.00    -0.099 C  
HETATM   14  H   UNL     1      -5.888  13.836  69.588  1.00  0.00     0.000 HD 
HETATM   15  O   UNL     1      -6.807  13.973  69.390  1.00  0.00    -0.117 OA 
BRANCH  13  16
HETATM   16  C   UNL     1      -7.046  11.630  69.485  1.00  0.00     0.056 C  
HETATM   17  O   UNL     1      -6.046  11.560  70.183  1.00  0.00    -0.141 OA 
BRANCH  16  18
HETATM   18  O   UNL     1      -7.895  10.584  69.447  1.00  0.00    -0.145 OA 
BRANCH  18  19
HETATM   19 CA   UNL     1      -8.003   9.084  71.343  1.00  0.00    -0.096 Ca 
BRANCH  19  20
HETATM   20  O   UNL     1      -8.111   7.584  73.238  1.00  0.00    -0.104 OA 
BRANCH  20  21
HETATM   21  C   UNL     1      -6.995   6.835  73.261  1.00  0.00    -0.075 C  
HETATM   22  O   UNL     1      -5.933   7.387  73.025  1.00  0.00    -0.048 OA 
BRANCH  21  23
HETATM   23  C   UNL     1      -7.048   5.330  73.397  1.00  0.00    -0.085 C  
HETATM   24  H   UNL     1      -5.817   3.932  73.904  1.00  0.00     0.000 HD 
HETATM   25  O   UNL     1      -5.784   4.877  73.818  1.00  0.00    -0.017 OA 
BRANCH  23  26
HETATM   26  C   UNL     1      -7.450   4.573  72.095  1.00  0.00    -0.080 C  
HETATM   27  H   UNL     1      -9.078   3.865  71.314  1.00  0.00     0.000 HD 
HETATM   28  O   UNL     1      -8.833   4.326  72.108  1.00  0.00    -0.109 OA 
BRANCH  26  29
HETATM   29  C   UNL     1      -7.046   5.226  70.728  1.00  0.00    -0.064 C  
BRANCH  29  30
HETATM   30  O   UNL     1      -8.180   5.954  70.280  1.00  0.00    -0.110 OA 
BRANCH  30  31
HETATM   31  C   UNL     1      -8.279   6.140  68.882  1.00  0.00    -0.112 C  
HETATM   32  O   UNL     1      -7.948   7.477  68.544  1.00  0.00    -0.119 OA 
HETATM   33  C   UNL     1      -8.029   7.674  67.140  1.00  0.00    -0.117 C  
HETATM   34  H   UNL     1     -11.009   4.341  68.592  1.00  0.00     0.000 HD 
HETATM   35  C   UNL     1      -9.498   7.533  66.665  1.00  0.00    -0.191 C  
HETATM   36  O   UNL     1     -10.319   8.472  67.315  1.00  0.00    -0.253 OA 
HETATM   37  C   UNL     1      -9.978   6.104  66.996  1.00  0.00    -0.162 C  
HETATM   38  O   UNL     1     -10.109   4.524  68.831  1.00  0.00    -0.117 OA 
HETATM   39  H   UNL     1     -11.219   8.385  67.024  1.00  0.00     0.000 HD 
HETATM   40  O   UNL     1     -11.342   5.933  66.697  1.00  0.00    -0.649 OA 
HETATM   41  C   UNL     1      -9.749   5.842  68.493  1.00  0.00    -0.131 C  
HETATM   42  H   UNL     1     -11.637   5.053  66.900  1.00  0.00     0.000 HD 
BRANCH  33  43
HETATM   43  C   UNL     1      -7.448   9.061  66.823  1.00  0.00    -0.086 C  
HETATM   44  O   UNL     1      -8.464  10.000  66.599  1.00  0.00    -0.124 OA 
HETATM   45  H   UNL     1      -8.105  10.857  66.403  1.00  0.00     0.000 HD 
ENDBRANCH  33  43
ENDBRANCH  30  31
ENDBRANCH  29  30
BRANCH  29  46
HETATM   46  C   UNL     1      -6.504   4.244  69.631  1.00  0.00    -0.033 C  
HETATM   47  O   UNL     1      -6.417   2.929  70.129  1.00  0.00    -0.027 OA 
HETATM   48  H   UNL     1      -6.090   2.334  69.466  1.00  0.00     0.000 HD 
BRANCH  46  49
HETATM   49  C   UNL     1      -5.198   4.694  68.936  1.00  0.00    -0.004 C  
HETATM   50  H   UNL     1      -4.509   4.859  67.114  1.00  0.00     0.000 HD 
HETATM   51  O   UNL     1      -5.312   4.582  67.541  1.00  0.00    -0.011 OA 
ENDBRANCH  46  49
ENDBRANCH  29  46
ENDBRANCH  26  29
ENDBRANCH  23  26
ENDBRANCH  21  23
ENDBRANCH  20  21
ENDBRANCH  19  20
ENDBRANCH  18  19
ENDBRANCH  16  18
ENDBRANCH  13  16
ENDBRANCH  10  13
ENDBRANCH   7  10
ENDBRANCH   4   7
ENDBRANCH   2   4
TORSDOF 17
ENDMDL
MODEL      415
REMARK 921   NORMALIZED FREE ENERGY PREDICTED BY IDOCK:   -0.90 KCAL/MOL
REMARK 922        TOTAL FREE ENERGY PREDICTED BY IDOCK:   -5.23 KCAL/MOL
REMARK 923 INTER-LIGAND FREE ENERGY PREDICTED BY IDOCK:   -5.35 KCAL/MOL
REMARK 924 INTRA-LIGAND FREE ENERGY PREDICTED BY IDOCK:    0.12 KCAL/MOL
REMARK 927      BINDING AFFINITY PREDICTED BY RF-SCORE:    0.00 PKD
ROOT
HETATM    1  O   UNL     1      -9.894   3.767  68.927  1.00  0.00    -0.088 OA 
HETATM    2  C   UNL     1      -9.229   3.693  67.695  1.00  0.00    -0.185 C  
HETATM    3  H   UNL     1     -10.489   3.031  69.014  1.00  0.00     0.000 HD 
ENDROOT
BRANCH   2   4
HETATM    4  C   UNL     1      -8.266   4.884  67.555  1.00  0.00    -0.105 C  
HETATM    5  O   UNL     1      -8.119   5.512  68.804  1.00  0.00    -0.097 OA 
HETATM    6  H   UNL     1      -7.524   6.248  68.717  1.00  0.00     0.000 HD 
BRANCH   4   7
HETATM    7  C   UNL     1      -6.874   4.434  67.036  1.00  0.00    -0.052 C  
HETATM    8  H   UNL     1      -5.058   5.127  67.049  1.00  0.00     0.000 HD 
HETATM    9  O   UNL     1      -5.910   5.403  67.367  1.00  0.00    -0.016 OA 
BRANCH   7  10
HETATM   10  C   UNL     1      -6.446   3.068  67.636  1.00  0.00    -0.037 C  
HETATM   11  H   UNL     1      -7.280   1.353  67.940  1.00  0.00     0.000 HD 
HETATM   12  O   UNL     1      -7.543   2.189  67.573  1.00  0.00    -0.059 OA 
BRANCH  10  13
HETATM   13  C   UNL     1      -5.963   3.164  69.110  1.00  0.00    -0.024 C  
HETATM   14  H   UNL     1      -5.319   4.550  70.308  1.00  0.00     0.000 HD 
HETATM   15  O   UNL     1      -5.614   4.492  69.407  1.00  0.00    -0.014 OA 
BRANCH  13  16
HETATM   16  C   UNL     1      -7.003   2.722  70.112  1.00  0.00    -0.034 C  
HETATM   17  O   UNL     1      -7.322   1.545  70.173  1.00  0.00    -0.033 OA 
BRANCH  16  18
HETATM   18  O   UNL     1      -7.596   3.608  70.937  1.00  0.00    -0.040 OA 
BRANCH  18  19
HETATM   19 CA   UNL     1      -6.370   5.574  71.634  1.00  0.00    -0.027 Ca 
BRANCH  19  20
HETATM   20  O   UNL     1      -5.143   7.540  72.330  1.00  0.00    -0.036 OA 
BRANCH  20  21
HETATM   21  C   UNL     1      -5.990   8.583  72.380  1.00  0.00    -0.069 C  
HETATM   22  O   UNL     1      -6.078   9.196  73.430  1.00  0.00    -0.295 OA 
BRANCH  21  23
HETATM   23  C   UNL     1      -6.939   8.893  71.244  1.00  0.00    -0.091 C  
HETATM   24  H   UNL     1      -7.604  10.486  70.379  1.00  0.00     0.000 HD 
HETATM   25  O   UNL     1      -7.008  10.290  71.092  1.00  0.00    -0.210 OA 
BRANCH  23  26
HETATM   26  C   UNL     1      -8.380   8.330  71.428  1.00  0.00    -0.133 C  
HETATM   27  H   UNL     1      -9.870   8.620  72.635  1.00  0.00     0.000 HD 
HETATM   28  O   UNL     1      -8.992   8.963  72.523  1.00  0.00    -0.367 OA 
BRANCH  26  29
HETATM   29  C   UNL     1      -9.338   8.383  70.188  1.00  0.00    -0.163 C  
BRANCH  29  30
HETATM   30  O   UNL     1      -9.123   9.643  69.568  1.00  0.00    -0.170 OA 
BRANCH  30  31
HETATM   31  C   UNL     1      -8.933   9.616  68.168  1.00  0.00    -0.123 C  
HETATM   32  O   UNL     1      -7.655  10.134  67.839  1.00  0.00    -0.088 OA 
HETATM   33  C   UNL     1      -7.444  10.099  66.436  1.00  0.00    -0.108 C  
HETATM   34  H   UNL     1     -12.002  10.564  67.490  1.00  0.00     0.000 HD 
HETATM   35  C   UNL     1      -8.423  11.070  65.725  1.00  0.00    -0.119 C  
HETATM   36  O   UNL     1      -8.238  12.385  66.191  1.00  0.00    -0.295 OA 
HETATM   37  C   UNL     1      -9.864  10.609  66.024  1.00  0.00    -0.228 C  
HETATM   38  O   UNL     1     -11.323  10.020  67.871  1.00  0.00    -0.204 OA 
HETATM   39  H   UNL     1      -8.838  12.979  65.755  1.00  0.00     0.000 HD 
HETATM   40  O   UNL     1     -10.815  11.508  65.507  1.00  0.00    -0.282 OA 
HETATM   41  C   UNL     1     -10.041  10.504  67.548  1.00  0.00    -0.189 C  
HETATM   42  H   UNL     1     -11.702  11.223  65.691  1.00  0.00     0.000 HD 
BRANCH  33  43
HETATM   43  C   UNL     1      -5.974  10.458  66.168  1.00  0.00    -0.090 C  
HETATM   44  O   UNL     1      -5.517  11.436  67.064  1.00  0.00    -0.069 OA 
HETATM   45  H   UNL     1      -4.609  11.657  66.899  1.00  0.00     0.000 HD 
ENDBRANCH  33  43
ENDBRANCH  30  31
ENDBRANCH  29  30
BRANCH  29  46
HETATM   46  C   UNL     1     -10.857   8.122  70.482  1.00  0.00    -0.240 C  
HETATM   47  O   UNL     1     -11.332   8.986  71.488  1.00  0.00    -0.292 OA 
HETATM   48  H   UNL     1     -12.251   8.828  71.666  1.00  0.00     0.000 HD 
BRANCH  46  49
HETATM   49  C   UNL     1     -11.227   6.646  70.755  1.00  0.00    -0.315 C  
HETATM   50  H   UNL     1     -11.636   5.039  69.719  1.00  0.00     0.000 HD 
HETATM   51  O   UNL     1     -11.409   5.947  69.552  1.00  0.00    -0.361 OA 
ENDBRANCH  46  49
ENDBRANCH  29  46
ENDBRANCH  26  29
ENDBRANCH  23  26
ENDBRANCH  21  23
ENDBRANCH  20  21
ENDBRANCH  19  20
ENDBRANCH  18  19
ENDBRANCH  16  18
ENDBRANCH  13  16
ENDBRANCH  10  13
ENDBRANCH   7  10
ENDBRANCH   4   7
ENDBRANCH   2   4
TORSDOF 17
ENDMDL
MODEL      416
REMARK 921   NORMALIZED FREE ENERGY PREDICTED BY IDOCK:   -0.79 KCAL/MOL
REMARK 922        TOTAL FREE ENERGY PREDICTED BY IDOCK:   -5.02 KCAL/MOL
REMARK 923 INTER-LIGAND FREE ENERGY PREDICTED BY IDOCK:   -5.07 KCAL/MOL
REMARK 924 INTRA-LIGAND FREE ENERGY PREDICTED BY IDOCK:    0.05 KCAL/MOL
REMARK 927      BINDING AFFINITY PREDICTED BY RF-SCORE:    0.00 PKD
ROOT
HETATM    1  O   UNL     1     -10.881  19.090  67.525  1.00  0.00    -0.463 OA 
HETATM    2  C   UNL     1     -10.224  18.365  66.522  1.00  0.00    -0.401 C  
HETATM    3  H   UNL     1     -10.356  19.843  67.771  1.00  0.00     0.000 HD 
ENDROOT
BRANCH   2   4
HETATM    4  C   UNL     1     -11.072  17.145  66.124  1.00  0.00     0.405 C  
HETATM    5  O   UNL     1     -11.015  16.974  64.730  1.00  0.00    -0.835 OA 
HETATM    6  H   UNL     1     -11.539  16.220  64.485  1.00  0.00     0.000 HD 
BRANCH   4   7
HETATM    7  C   UNL     1     -10.577  15.853  66.825  1.00  0.00    -0.309 C  
HETATM    8  H   UNL     1     -11.192  14.679  68.248  1.00  0.00     0.000 HD 
HETATM    9  O   UNL     1     -11.496  15.470  67.819  1.00  0.00    -0.322 OA 
BRANCH   7  10
HETATM   10  C   UNL     1     -10.399  14.681  65.823  1.00  0.00    -0.332 C  
HETATM   11  H   UNL     1      -9.915  14.497  63.962  1.00  0.00     0.000 HD 
HETATM   12  O   UNL     1     -10.024  15.214  64.576  1.00  0.00     0.013 OA 
BRANCH  10  13
HETATM   13  C   UNL     1     -11.682  13.825  65.638  1.00  0.00    -0.347 C  
HETATM   14  H   UNL     1     -13.149  13.716  64.370  1.00  0.00     0.000 HD 
HETATM   15  O   UNL     1     -12.364  14.240  64.483  1.00  0.00    -0.539 OA 
BRANCH  13  16
HETATM   16  C   UNL     1     -11.404  12.346  65.507  1.00  0.00    -0.346 C  
HETATM   17  O   UNL     1     -11.947  11.558  66.265  1.00  0.00    -0.294 OA 
BRANCH  16  18
HETATM   18  O   UNL     1     -10.553  11.878  64.571  1.00  0.00    -0.277 OA 
BRANCH  18  19
HETATM   19 CA   UNL     1      -8.542  10.731  65.275  1.00  0.00    -0.152 Ca 
BRANCH  19  20
HETATM   20  O   UNL     1      -6.531   9.584  65.978  1.00  0.00    -0.070 OA 
BRANCH  20  21
HETATM   21  C   UNL     1      -6.499   8.373  65.396  1.00  0.00    -0.055 C  
HETATM   22  O   UNL     1      -5.478   8.047  64.814  1.00  0.00    -0.039 OA 
BRANCH  21  23
HETATM   23  C   UNL     1      -7.730   7.500  65.303  1.00  0.00    -0.112 C  
HETATM   24  H   UNL     1      -9.328   7.228  66.350  1.00  0.00     0.000 HD 
HETATM   25  O   UNL     1      -8.555   7.775  66.409  1.00  0.00    -0.130 OA 
BRANCH  23  26
HETATM   26  C   UNL     1      -7.441   5.969  65.253  1.00  0.00    -0.083 C  
HETATM   27  H   UNL     1      -5.924   4.804  65.571  1.00  0.00     0.000 HD 
HETATM   28  O   UNL     1      -6.100   5.737  65.601  1.00  0.00    -0.030 OA 
BRANCH  26  29
HETATM   29  C   UNL     1      -8.373   5.033  66.096  1.00  0.00    -0.113 C  
BRANCH  29  30
HETATM   30  O   UNL     1      -7.592   4.565  67.186  1.00  0.00    -0.084 OA 
BRANCH  30  31
HETATM   31  C   UNL     1      -7.973   5.036  68.463  1.00  0.00    -0.086 C  
HETATM   32  O   UNL     1      -7.101   6.074  68.879  1.00  0.00    -0.075 OA 
HETATM   33  C   UNL     1      -7.481   6.567  70.155  1.00  0.00    -0.094 C  
HETATM   34  H   UNL     1      -8.651   2.045  69.632  1.00  0.00     0.000 HD 
HETATM   35  C   UNL     1      -7.280   5.471  71.233  1.00  0.00    -0.072 C  
HETATM   36  O   UNL     1      -5.935   5.060  71.275  1.00  0.00    -0.016 OA 
HETATM   37  C   UNL     1      -8.180   4.270  70.875  1.00  0.00    -0.079 C  
HETATM   38  O   UNL     1      -8.715   2.781  69.037  1.00  0.00    -0.069 OA 
HETATM   39  H   UNL     1      -5.812   4.389  71.935  1.00  0.00     0.000 HD 
HETATM   40  O   UNL     1      -7.969   3.186  71.746  1.00  0.00    -0.056 OA 
HETATM   41  C   UNL     1      -7.869   3.833  69.434  1.00  0.00    -0.051 C  
HETATM   42  H   UNL     1      -8.524   2.447  71.526  1.00  0.00     0.000 HD 
BRANCH  33  43
HETATM   43  C   UNL     1      -6.646   7.825  70.444  1.00  0.00    -0.038 C  
HETATM   44  O   UNL     1      -7.207   8.581  71.484  1.00  0.00    -0.080 OA 
HETATM   45  H   UNL     1      -6.691   9.357  71.663  1.00  0.00     0.000 HD 
ENDBRANCH  33  43
ENDBRANCH  30  31
ENDBRANCH  29  30
BRANCH  29  46
HETATM   46  C   UNL     1      -9.056   3.857  65.312  1.00  0.00    -0.142 C  
HETATM   47  O   UNL     1      -8.110   3.139  64.554  1.00  0.00    -0.082 OA 
HETATM   48  H   UNL     1      -8.522   2.428  64.080  1.00  0.00     0.000 HD 
BRANCH  46  49
HETATM   49  C   UNL     1     -10.292   4.260  64.475  1.00  0.00    -0.084 C  
HETATM   50  H   UNL     1     -10.729   5.528  63.054  1.00  0.00     0.000 HD 
HETATM   51  O   UNL     1      -9.969   5.281  63.568  1.00  0.00     0.870 OA 
ENDBRANCH  46  49
ENDBRANCH  29  46
ENDBRANCH  26  29
ENDBRANCH  23  26
ENDBRANCH  21  23
ENDBRANCH  20  21
ENDBRANCH  19  20
ENDBRANCH  18  19
ENDBRANCH  16  18
ENDBRANCH  13  16
ENDBRANCH  10  13
ENDBRANCH   7  10
ENDBRANCH   4   7
ENDBRANCH   2   4
TORSDOF 17
ENDMDL
MODEL      417
REMARK 921   NORMALIZED FREE ENERGY PREDICTED BY IDOCK:   -0.74 KCAL/MOL
REMARK 922        TOTAL FREE ENERGY PREDICTED BY IDOCK:   -4.91 KCAL/MOL
REMARK 923 INTER-LIGAND FREE ENERGY PREDICTED BY IDOCK:   -5.78 KCAL/MOL
REMARK 924 INTRA-LIGAND FREE ENERGY PREDICTED BY IDOCK:    0.86 KCAL/MOL
REMARK 927      BINDING AFFINITY PREDICTED BY RF-SCORE:    0.00 PKD
ROOT
HETATM    1  O   UNL     1      -8.014  14.363  70.178  1.00  0.00    -0.052 OA 
HETATM    2  C   UNL     1      -6.667  14.732  70.054  1.00  0.00    -0.148 C  
HETATM    3  H   UNL     1      -8.568  15.111  69.987  1.00  0.00     0.000 HD 
ENDROOT
BRANCH   2   4
HETATM    4  C   UNL     1      -5.769  13.521  70.363  1.00  0.00    -0.160 C  
HETATM    5  O   UNL     1      -6.002  13.095  71.682  1.00  0.00    -0.522 OA 
HETATM    6  H   UNL     1      -5.447  12.348  71.873  1.00  0.00     0.000 HD 
BRANCH   4   7
HETATM    7  C   UNL     1      -6.038  12.347  69.385  1.00  0.00    -0.108 C  
HETATM    8  H   UNL     1      -7.282  10.858  69.257  1.00  0.00     0.000 HD 
HETATM    9  O   UNL     1      -7.117  11.577  69.856  1.00  0.00     0.041 OA 
BRANCH   7  10
HETATM   10  C   UNL     1      -6.362  12.848  67.952  1.00  0.00    -0.125 C  
HETATM   11  H   UNL     1      -6.217  14.517  66.991  1.00  0.00     0.000 HD 
HETATM   12  O   UNL     1      -6.018  14.210  67.868  1.00  0.00    -0.134 OA 
BRANCH  10  13
HETATM   13  C   UNL     1      -7.857  12.682  67.562  1.00  0.00    -0.175 C  
HETATM   14  H   UNL     1      -9.320  13.835  67.011  1.00  0.00     0.000 HD 
HETATM   15  O   UNL     1      -8.406  13.936  67.251  1.00  0.00    -0.187 OA 
BRANCH  13  16
HETATM   16  C   UNL     1      -8.069  11.774  66.373  1.00  0.00     0.032 C  
HETATM   17  O   UNL     1      -9.162  11.734  65.830  1.00  0.00    -0.223 OA 
BRANCH  16  18
HETATM   18  O   UNL     1      -7.073  10.996  65.905  1.00  0.00    -0.078 OA 
BRANCH  18  19
HETATM   19 CA   UNL     1      -7.556   8.704  65.294  1.00  0.00    -0.076 Ca 
BRANCH  19  20
HETATM   20  O   UNL     1      -8.037   6.413  64.683  1.00  0.00    -0.121 OA 
BRANCH  20  21
HETATM   21  C   UNL     1      -7.902   5.638  65.773  1.00  0.00    -0.101 C  
HETATM   22  O   UNL     1      -8.058   4.436  65.642  1.00  0.00    -0.103 OA 
BRANCH  21  23
HETATM   23  C   UNL     1      -7.736   6.229  67.155  1.00  0.00    -0.097 C  
HETATM   24  H   UNL     1      -6.414   6.141  68.559  1.00  0.00     0.000 HD 
HETATM   25  O   UNL     1      -6.518   5.770  67.691  1.00  0.00    -0.043 OA 
BRANCH  23  26
HETATM   26  C   UNL     1      -8.888   5.891  68.150  1.00  0.00    -0.110 C  
HETATM   27  H   UNL     1     -10.802   5.594  68.051  1.00  0.00     0.000 HD 
HETATM   28  O   UNL     1     -10.099   5.800  67.445  1.00  0.00    -0.143 OA 
BRANCH  26  29
HETATM   29  C   UNL     1      -8.709   4.624  69.055  1.00  0.00    -0.085 C  
BRANCH  29  30
HETATM   30  O   UNL     1      -9.567   4.805  70.173  1.00  0.00    -0.157 OA 
BRANCH  30  31
HETATM   31  C   UNL     1      -9.711   6.134  70.629  1.00  0.00    -0.174 C  
HETATM   32  O   UNL     1      -8.965   6.324  71.820  1.00  0.00    -0.140 OA 
HETATM   33  C   UNL     1      -9.089   7.661  72.282  1.00  0.00    -0.140 C  
HETATM   34  H   UNL     1     -12.910   6.290  69.913  1.00  0.00     0.000 HD 
HETATM   35  C   UNL     1     -10.549   7.941  72.720  1.00  0.00    -0.353 C  
HETATM   36  O   UNL     1     -10.936   7.058  73.744  1.00  0.00    -0.526 OA 
HETATM   37  C   UNL     1     -11.467   7.751  71.494  1.00  0.00    -0.264 C  
HETATM   38  O   UNL     1     -11.986   6.156  69.743  1.00  0.00    -0.046 OA 
HETATM   39  H   UNL     1     -11.831   7.229  74.012  1.00  0.00     0.000 HD 
HETATM   40  O   UNL     1     -12.825   7.877  71.838  1.00  0.00    -0.316 OA 
HETATM   41  C   UNL     1     -11.219   6.352  70.906  1.00  0.00    -0.326 C  
HETATM   42  H   UNL     1     -13.390   7.761  71.084  1.00  0.00     0.000 HD 
BRANCH  33  43
HETATM   43  C   UNL     1      -8.090   7.859  73.433  1.00  0.00    -0.177 C  
HETATM   44  O   UNL     1      -7.340   9.031  73.262  1.00  0.00    -0.303 OA 
HETATM   45  H   UNL     1      -6.723   9.153  73.973  1.00  0.00     0.000 HD 
ENDBRANCH  33  43
ENDBRANCH  30  31
ENDBRANCH  29  30
BRANCH  29  46
HETATM   46  C   UNL     1      -7.238   4.292  69.488  1.00  0.00    -0.050 C  
HETATM   47  O   UNL     1      -6.680   3.297  68.661  1.00  0.00    -0.043 OA 
HETATM   48  H   UNL     1      -5.790   3.096  68.923  1.00  0.00     0.000 HD 
BRANCH  46  49
HETATM   49  C   UNL     1      -7.054   3.974  70.991  1.00  0.00    -0.033 C  
HETATM   50  H   UNL     1      -5.635   3.333  72.173  1.00  0.00     0.000 HD 
HETATM   51  O   UNL     1      -5.748   3.529  71.250  1.00  0.00    -0.012 OA 
ENDBRANCH  46  49
ENDBRANCH  29  46
ENDBRANCH  26  29
ENDBRANCH  23  26
ENDBRANCH  21  23
ENDBRANCH  20  21
ENDBRANCH  19  20
ENDBRANCH  18  19
ENDBRANCH  16  18
ENDBRANCH  13  16
ENDBRANCH  10  13
ENDBRANCH   7  10
ENDBRANCH   4   7
ENDBRANCH   2   4
TORSDOF 17
ENDMDL
MODEL      418
REMARK 921   NORMALIZED FREE ENERGY PREDICTED BY IDOCK:   -0.39 KCAL/MOL
REMARK 922        TOTAL FREE ENERGY PREDICTED BY IDOCK:   -4.21 KCAL/MOL
REMARK 923 INTER-LIGAND FREE ENERGY PREDICTED BY IDOCK:   -7.83 KCAL/MOL
REMARK 924 INTRA-LIGAND FREE ENERGY PREDICTED BY IDOCK:    3.62 KCAL/MOL
REMARK 927      BINDING AFFINITY PREDICTED BY RF-SCORE:    0.00 PKD
ROOT
HETATM    1  O   UNL     1      -8.867   6.773  64.813  1.00  0.00    -0.336 OA 
HETATM    2  C   UNL     1      -8.456   6.866  66.150  1.00  0.00    -0.136 C  
HETATM    3  H   UNL     1      -9.107   5.876  64.614  1.00  0.00     0.000 HD 
ENDROOT
BRANCH   2   4
HETATM    4  C   UNL     1      -8.068   8.319  66.473  1.00  0.00    -0.105 C  
HETATM    5  O   UNL     1      -8.944   8.828  67.448  1.00  0.00    -0.132 OA 
HETATM    6  H   UNL     1      -8.704   9.725  67.648  1.00  0.00     0.000 HD 
BRANCH   4   7
HETATM    7  C   UNL     1      -6.608   8.418  66.987  1.00  0.00    -0.058 C  
HETATM    8  H   UNL     1      -4.868   8.882  66.253  1.00  0.00     0.000 HD 
HETATM    9  O   UNL     1      -5.763   8.822  65.938  1.00  0.00    -0.045 OA 
BRANCH   7  10
HETATM   10  C   UNL     1      -6.473   9.425  68.160  1.00  0.00    -0.054 C  
HETATM   11  H   UNL     1      -5.107   9.903  69.440  1.00  0.00     0.000 HD 
HETATM   12  O   UNL     1      -5.190   9.286  68.721  1.00  0.00    -0.037 OA 
BRANCH  10  13
HETATM   13  C   UNL     1      -7.535   9.221  69.276  1.00  0.00    -0.075 C  
HETATM   14  H   UNL     1      -8.432   7.724  70.129  1.00  0.00     0.000 HD 
HETATM   15  O   UNL     1      -7.783   7.849  69.447  1.00  0.00    -0.100 OA 
BRANCH  13  16
HETATM   16  C   UNL     1      -7.116   9.787  70.613  1.00  0.00    -0.087 C  
HETATM   17  O   UNL     1      -6.019  10.309  70.733  1.00  0.00    -0.092 OA 
BRANCH  16  18
HETATM   18  O   UNL     1      -7.931   9.715  71.685  1.00  0.00     0.061 OA 
BRANCH  18  19
HETATM   19 CA   UNL     1     -10.284  10.209  71.412  1.00  0.00    -0.232 Ca 
BRANCH  19  20
HETATM   20  O   UNL     1     -12.637  10.702  71.139  1.00  0.00    -0.350 OA 
BRANCH  20  21
HETATM   21  C   UNL     1     -12.783  12.026  70.955  1.00  0.00    -0.199 C  
HETATM   22  O   UNL     1     -13.017  12.716  71.933  1.00  0.00    -0.353 OA 
BRANCH  21  23
HETATM   23  C   UNL     1     -12.833  12.638  69.573  1.00  0.00     0.983 C  
HETATM   24  H   UNL     1     -12.151  12.189  67.824  1.00  0.00     0.000 HD 
HETATM   25  O   UNL     1     -12.119  11.805  68.692  1.00  0.00    -0.406 OA 
BRANCH  23  26
HETATM   26  C   UNL     1     -12.259  14.084  69.481  1.00  0.00    -0.308 C  
HETATM   27  H   UNL     1     -11.387  15.341  70.673  1.00  0.00     0.000 HD 
HETATM   28  O   UNL     1     -11.737  14.459  70.730  1.00  0.00    -0.293 OA 
BRANCH  26  29
HETATM   29  C   UNL     1     -11.200  14.369  68.361  1.00  0.00    -0.273 C  
BRANCH  29  30
HETATM   30  O   UNL     1     -11.029  13.150  67.651  1.00  0.00    -0.251 OA 
BRANCH  30  31
HETATM   31  C   UNL     1     -10.771  13.275  66.267  1.00  0.00    -0.286 C  
HETATM   32  O   UNL     1     -11.679  14.194  65.683  1.00  0.00    -0.338 OA 
HETATM   33  C   UNL     1     -11.421  14.341  64.295  1.00  0.00    -0.242 C  
HETATM   34  H   UNL     1     -10.206  10.070  65.838  1.00  0.00     0.000 HD 
HETATM   35  C   UNL     1     -11.724  13.013  63.553  1.00  0.00    -0.471 C  
HETATM   36  O   UNL     1     -13.067  12.637  63.741  1.00  0.00    -0.630 OA 
HETATM   37  C   UNL     1     -10.793  11.920  64.119  1.00  0.00    -0.356 C  
HETATM   38  O   UNL     1     -10.087  10.931  66.218  1.00  0.00    -0.218 OA 
HETATM   39  H   UNL     1     -13.251  11.824  63.287  1.00  0.00     0.000 HD 
HETATM   40  O   UNL     1     -11.086  10.656  63.575  1.00  0.00    -0.196 OA 
HETATM   41  C   UNL     1     -10.967  11.869  65.647  1.00  0.00    -0.304 C  
HETATM   42  H   UNL     1     -10.513   9.984  63.924  1.00  0.00     0.000 HD 
BRANCH  33  43
HETATM   43  C   UNL     1     -12.280  15.504  63.774  1.00  0.00     0.467 C  
HETATM   44  O   UNL     1     -11.700  16.743  64.083  1.00  0.00    -1.154 OA 
HETATM   45  H   UNL     1     -12.230  17.462  63.760  1.00  0.00     0.000 HD 
ENDBRANCH  33  43
ENDBRANCH  30  31
ENDBRANCH  29  30
BRANCH  29  46
HETATM   46  C   UNL     1      -9.831  14.966  68.846  1.00  0.00    -0.230 C  
HETATM   47  O   UNL     1      -9.828  15.150  70.242  1.00  0.00    -0.491 OA 
HETATM   48  H   UNL     1      -9.000  15.511  70.536  1.00  0.00     0.000 HD 
BRANCH  46  49
HETATM   49  C   UNL     1      -9.363  16.229  68.087  1.00  0.00    -0.210 C  
HETATM   50  H   UNL     1     -10.040  17.412  66.686  1.00  0.00     0.000 HD 
HETATM   51  O   UNL     1     -10.328  16.635  67.152  1.00  0.00    -0.293 OA 
ENDBRANCH  46  49
ENDBRANCH  29  46
ENDBRANCH  26  29
ENDBRANCH  23  26
ENDBRANCH  21  23
ENDBRANCH  20  21
ENDBRANCH  19  20
ENDBRANCH  18  19
ENDBRANCH  16  18
ENDBRANCH  13  16
ENDBRANCH  10  13
ENDBRANCH   7  10
ENDBRANCH   4   7
ENDBRANCH   2   4
TORSDOF 17
ENDMDL
MODEL      419
REMARK 921   NORMALIZED FREE ENERGY PREDICTED BY IDOCK:   -0.37 KCAL/MOL
REMARK 922        TOTAL FREE ENERGY PREDICTED BY IDOCK:   -4.19 KCAL/MOL
REMARK 923 INTER-LIGAND FREE ENERGY PREDICTED BY IDOCK:   -6.85 KCAL/MOL
REMARK 924 INTRA-LIGAND FREE ENERGY PREDICTED BY IDOCK:    2.66 KCAL/MOL
REMARK 927      BINDING AFFINITY PREDICTED BY RF-SCORE:    0.00 PKD
ROOT
HETATM    1  O   UNL     1      -9.670   7.450  74.226  1.00  0.00    -0.416 OA 
HETATM    2  C   UNL     1      -8.457   6.863  73.840  1.00  0.00    -0.139 C  
HETATM    3  H   UNL     1      -9.512   8.332  74.543  1.00  0.00     0.000 HD 
ENDROOT
BRANCH   2   4
HETATM    4  C   UNL     1      -8.713   5.436  73.327  1.00  0.00    -0.116 C  
HETATM    5  O   UNL     1     -10.084   5.144  73.430  1.00  0.00    -0.163 OA 
HETATM    6  H   UNL     1     -10.242   4.263  73.113  1.00  0.00     0.000 HD 
BRANCH   4   7
HETATM    7  C   UNL     1      -8.258   5.270  71.853  1.00  0.00    -0.118 C  
HETATM    8  H   UNL     1      -7.223   3.991  70.818  1.00  0.00     0.000 HD 
HETATM    9  O   UNL     1      -7.501   4.092  71.720  1.00  0.00    -0.060 OA 
BRANCH   7  10
HETATM   10  C   UNL     1      -9.464   5.208  70.877  1.00  0.00    -0.167 C  
HETATM   11  H   UNL     1      -9.710   5.177  68.962  1.00  0.00     0.000 HD 
HETATM   12  O   UNL     1      -8.972   5.215  69.559  1.00  0.00    -0.097 OA 
BRANCH  10  13
HETATM   13  C   UNL     1     -10.460   6.388  71.049  1.00  0.00    -0.223 C  
HETATM   14  H   UNL     1     -10.358   8.316  71.263  1.00  0.00     0.000 HD 
HETATM   15  O   UNL     1      -9.749   7.594  71.159  1.00  0.00    -0.163 OA 
BRANCH  13  16
HETATM   16  C   UNL     1     -11.431   6.525  69.900  1.00  0.00    -0.403 C  
HETATM   17  O   UNL     1     -12.625   6.359  70.093  1.00  0.00     0.385 OA 
BRANCH  16  18
HETATM   18  O   UNL     1     -11.001   6.818  68.656  1.00  0.00    -0.234 OA 
BRANCH  18  19
HETATM   19 CA   UNL     1      -9.109   8.302  68.381  1.00  0.00    -0.130 Ca 
BRANCH  19  20
HETATM   20  O   UNL     1      -7.218   9.786  68.105  1.00  0.00    -0.078 OA 
BRANCH  20  21
HETATM   21  C   UNL     1      -7.381  10.486  66.970  1.00  0.00    -0.099 C  
HETATM   22  O   UNL     1      -7.575   9.865  65.939  1.00  0.00    -0.100 OA 
BRANCH  21  23
HETATM   23  C   UNL     1      -7.160  11.982  66.917  1.00  0.00    -0.033 C  
HETATM   24  H   UNL     1      -5.999  13.251  67.791  1.00  0.00     0.000 HD 
HETATM   25  O   UNL     1      -6.137  12.312  67.824  1.00  0.00    -0.075 OA 
BRANCH  23  26
HETATM   26  C   UNL     1      -8.423  12.837  67.241  1.00  0.00    -0.194 C  
HETATM   27  H   UNL     1      -8.795  14.574  68.018  1.00  0.00     0.000 HD 
HETATM   28  O   UNL     1      -8.026  14.053  67.821  1.00  0.00    -0.141 OA 
BRANCH  26  29
HETATM   29  C   UNL     1      -9.423  13.117  66.066  1.00  0.00    -0.089 C  
BRANCH  29  30
HETATM   30  O   UNL     1     -10.290  14.148  66.514  1.00  0.00    -0.275 OA 
BRANCH  30  31
HETATM   31  C   UNL     1      -9.909  14.796  67.711  1.00  0.00    -0.214 C  
HETATM   32  O   UNL     1     -10.980  14.776  68.639  1.00  0.00    -0.238 OA 
HETATM   33  C   UNL     1     -10.606  15.410  69.852  1.00  0.00    -0.303 C  
HETATM   34  H   UNL     1      -8.289  17.204  66.176  1.00  0.00     0.000 HD 
HETATM   35  C   UNL     1     -10.364  16.923  69.611  1.00  0.00    -0.111 C  
HETATM   36  O   UNL     1     -11.526  17.534  69.106  1.00  0.00     0.300 OA 
HETATM   37  C   UNL     1      -9.213  17.073  68.595  1.00  0.00    -0.266 C  
HETATM   38  O   UNL     1      -8.505  16.308  66.405  1.00  0.00    -0.275 OA 
HETATM   39  H   UNL     1     -11.378  18.461  68.958  1.00  0.00     0.000 HD 
HETATM   40  O   UNL     1      -9.009  18.418  68.236  1.00  0.00    -0.296 OA 
HETATM   41  C   UNL     1      -9.558  16.258  67.337  1.00  0.00    -0.230 C  
HETATM   42  H   UNL     1      -8.300  18.510  67.611  1.00  0.00     0.000 HD 
BRANCH  33  43
HETATM   43  C   UNL     1     -11.718  15.158  70.882  1.00  0.00    -0.332 C  
HETATM   44  O   UNL     1     -12.974  15.520  70.374  1.00  0.00    -0.631 OA 
HETATM   45  H   UNL     1     -13.662  15.364  71.010  1.00  0.00     0.000 HD 
ENDBRANCH  33  43
ENDBRANCH  30  31
ENDBRANCH  29  30
BRANCH  29  46
HETATM   46  C   UNL     1     -10.214  11.873  65.527  1.00  0.00    -0.254 C  
HETATM   47  O   UNL     1      -9.643  11.390  64.334  1.00  0.00    -0.262 OA 
HETATM   48  H   UNL     1     -10.121  10.637  64.008  1.00  0.00     0.000 HD 
BRANCH  46  49
HETATM   49  C   UNL     1     -11.743  12.073  65.405  1.00  0.00    -0.255 C  
HETATM   50  H   UNL     1     -13.300  12.098  66.586  1.00  0.00     0.000 HD 
HETATM   51  O   UNL     1     -12.360  11.975  66.661  1.00  0.00    -0.354 OA 
ENDBRANCH  46  49
ENDBRANCH  29  46
ENDBRANCH  26  29
ENDBRANCH  23  26
ENDBRANCH  21  23
ENDBRANCH  20  21
ENDBRANCH  19  20
ENDBRANCH  18  19
ENDBRANCH  16  18
ENDBRANCH  13  16
ENDBRANCH  10  13
ENDBRANCH   7  10
ENDBRANCH   4   7
ENDBRANCH   2   4
TORSDOF 17
ENDMDL
MODEL      420
REMARK 921   NORMALIZED FREE ENERGY PREDICTED BY IDOCK:   -0.08 KCAL/MOL
REMARK 922        TOTAL FREE ENERGY PREDICTED BY IDOCK:   -3.61 KCAL/MOL
REMARK 923 INTER-LIGAND FREE ENERGY PREDICTED BY IDOCK:   -5.02 KCAL/MOL
REMARK 924 INTRA-LIGAND FREE ENERGY PREDICTED BY IDOCK:    1.41 KCAL/MOL
REMARK 927      BINDING AFFINITY PREDICTED BY RF-SCORE:    0.00 PKD
ROOT
HETATM    1  O   UNL     1      -8.683  14.878  70.576  1.00  0.00     0.286 OA 
HETATM    2  C   UNL     1      -7.903  14.552  69.458  1.00  0.00     0.107 C  
HETATM    3  H   UNL     1      -8.124  14.976  71.338  1.00  0.00     0.000 HD 
ENDROOT
BRANCH   2   4
HETATM    4  C   UNL     1      -8.808  14.392  68.224  1.00  0.00    -0.182 C  
HETATM    5  O   UNL     1      -8.390  15.286  67.223  1.00  0.00    -0.170 OA 
HETATM    6  H   UNL     1      -8.949  15.187  66.461  1.00  0.00     0.000 HD 
BRANCH   4   7
HETATM    7  C   UNL     1      -8.769  12.943  67.672  1.00  0.00    -0.185 C  
HETATM    8  H   UNL     1      -9.460  11.202  68.194  1.00  0.00     0.000 HD 
HETATM    9  O   UNL     1      -9.485  12.089  68.532  1.00  0.00    -0.195 OA 
BRANCH   7  10
HETATM   10  C   UNL     1      -9.376  12.848  66.247  1.00  0.00    -0.141 C  
HETATM   11  H   UNL     1     -11.150  12.772  65.487  1.00  0.00     0.000 HD 
HETATM   12  O   UNL     1     -10.778  12.830  66.360  1.00  0.00    -0.258 OA 
BRANCH  10  13
HETATM   13  C   UNL     1      -8.918  11.588  65.462  1.00  0.00    -0.031 C  
HETATM   14  H   UNL     1      -7.474  10.294  65.566  1.00  0.00     0.000 HD 
HETATM   15  O   UNL     1      -7.753  11.065  66.046  1.00  0.00    -0.139 OA 
BRANCH  13  16
HETATM   16  C   UNL     1      -9.956  10.490  65.433  1.00  0.00    -0.289 C  
HETATM   17  O   UNL     1     -10.423  10.128  64.365  1.00  0.00     0.028 OA 
BRANCH  16  18
HETATM   18  O   UNL     1     -10.385   9.907  66.570  1.00  0.00    -0.228 OA 
BRANCH  18  19
HETATM   19 CA   UNL     1      -8.883   9.766  68.463  1.00  0.00    -0.111 Ca 
BRANCH  19  20
HETATM   20  O   UNL     1      -7.382   9.624  70.355  1.00  0.00    -0.124 OA 
BRANCH  20  21
HETATM   21  C   UNL     1      -7.119   8.329  70.601  1.00  0.00    -0.042 C  
HETATM   22  O   UNL     1      -6.139   7.835  70.068  1.00  0.00    -0.026 OA 
BRANCH  21  23
HETATM   23  C   UNL     1      -8.084   7.450  71.364  1.00  0.00    -0.097 C  
HETATM   24  H   UNL     1      -8.079   6.512  73.051  1.00  0.00     0.000 HD 
HETATM   25  O   UNL     1      -7.473   7.064  72.571  1.00  0.00    -0.087 OA 
BRANCH  23  26
HETATM   26  C   UNL     1      -8.547   6.174  70.598  1.00  0.00    -0.135 C  
HETATM   27  H   UNL     1      -7.939   4.344  70.397  1.00  0.00     0.000 HD 
HETATM   28  O   UNL     1      -7.656   5.121  70.864  1.00  0.00    -0.075 OA 
BRANCH  26  29
HETATM   29  C   UNL     1     -10.020   5.689  70.833  1.00  0.00    -0.194 C  
BRANCH  29  30
HETATM   30  O   UNL     1     -10.672   5.761  69.573  1.00  0.00    -0.291 OA 
BRANCH  30  31
HETATM   31  C   UNL     1      -9.923   5.304  68.465  1.00  0.00    -0.163 C  
HETATM   32  O   UNL     1      -8.613   4.950  68.875  1.00  0.00    -0.085 OA 
HETATM   33  C   UNL     1      -7.853   4.474  67.774  1.00  0.00    -0.085 C  
HETATM   34  H   UNL     1     -11.117   7.572  66.414  1.00  0.00     0.000 HD 
HETATM   35  C   UNL     1      -7.617   5.618  66.755  1.00  0.00    -0.092 C  
HETATM   36  O   UNL     1      -6.935   6.688  67.363  1.00  0.00    -0.073 OA 
HETATM   37  C   UNL     1      -8.990   6.100  66.242  1.00  0.00    -0.154 C  
HETATM   38  O   UNL     1     -11.153   6.856  67.036  1.00  0.00    -0.389 OA 
HETATM   39  H   UNL     1      -6.791   7.389  66.738  1.00  0.00     0.000 HD 
HETATM   40  O   UNL     1      -8.865   7.217  65.395  1.00  0.00    -0.357 OA 
HETATM   41  C   UNL     1      -9.864   6.473  67.451  1.00  0.00    -0.133 C  
HETATM   42  H   UNL     1      -9.711   7.513  65.079  1.00  0.00     0.000 HD 
BRANCH  33  43
HETATM   43  C   UNL     1      -6.535   3.902  68.320  1.00  0.00    -0.037 C  
HETATM   44  O   UNL     1      -5.821   4.869  69.042  1.00  0.00    -0.018 OA 
HETATM   45  H   UNL     1      -5.007   4.516  69.379  1.00  0.00     0.000 HD 
ENDBRANCH  33  43
ENDBRANCH  30  31
ENDBRANCH  29  30
BRANCH  29  46
HETATM   46  C   UNL     1     -10.819   6.440  71.955  1.00  0.00    -0.240 C  
HETATM   47  O   UNL     1     -10.844   7.828  71.714  1.00  0.00    -0.228 OA 
HETATM   48  H   UNL     1     -11.328   8.283  72.393  1.00  0.00     0.000 HD 
BRANCH  46  49
HETATM   49  C   UNL     1     -10.389   6.105  73.402  1.00  0.00    -0.239 C  
HETATM   50  H   UNL     1      -9.969   4.514  74.456  1.00  0.00     0.000 HD 
HETATM   51  O   UNL     1     -10.234   4.720  73.567  1.00  0.00    -0.155 OA 
ENDBRANCH  46  49
ENDBRANCH  29  46
ENDBRANCH  26  29
ENDBRANCH  23  26
ENDBRANCH  21  23
ENDBRANCH  20  21
ENDBRANCH  19  20
ENDBRANCH  18  19
ENDBRANCH  16  18
ENDBRANCH  13  16
ENDBRANCH  10  13
ENDBRANCH   7  10
ENDBRANCH   4   7
ENDBRANCH   2   4
TORSDOF 17
ENDMDL
MODEL      421
REMARK 921   NORMALIZED FREE ENERGY PREDICTED BY IDOCK:    0.27 KCAL/MOL
REMARK 922        TOTAL FREE ENERGY PREDICTED BY IDOCK:   -2.91 KCAL/MOL
REMARK 923 INTER-LIGAND FREE ENERGY PREDICTED BY IDOCK:   -7.83 KCAL/MOL
REMARK 924 INTRA-LIGAND FREE ENERGY PREDICTED BY IDOCK:    4.92 KCAL/MOL
REMARK 927      BINDING AFFINITY PREDICTED BY RF-SCORE:    0.00 PKD
ROOT
HETATM    1  O   UNL     1      -7.641  11.579  69.923  1.00  0.00    -0.185 OA 
HETATM    2  C   UNL     1      -7.054  10.634  69.070  1.00  0.00    -0.086 C  
HETATM    3  H   UNL     1      -7.343  12.450  69.688  1.00  0.00     0.000 HD 
ENDROOT
BRANCH   2   4
HETATM    4  C   UNL     1      -7.536   9.224  69.450  1.00  0.00    -0.080 C  
HETATM    5  O   UNL     1      -8.889   9.282  69.827  1.00  0.00    -0.142 OA 
HETATM    6  H   UNL     1      -9.187   8.411  70.062  1.00  0.00     0.000 HD 
BRANCH   4   7
HETATM    7  C   UNL     1      -7.370   8.228  68.271  1.00  0.00    -0.095 C  
HETATM    8  H   UNL     1      -8.534   7.233  67.074  1.00  0.00     0.000 HD 
HETATM    9  O   UNL     1      -8.637   7.842  67.795  1.00  0.00    -0.127 OA 
BRANCH   7  10
HETATM   10  C   UNL     1      -6.557   8.844  67.102  1.00  0.00    -0.062 C  
HETATM   11  H   UNL     1      -4.703   9.264  66.760  1.00  0.00     0.000 HD 
HETATM   12  O   UNL     1      -5.201   8.887  67.476  1.00  0.00    -0.033 OA 
BRANCH  10  13
HETATM   13  C   UNL     1      -7.018  10.276  66.714  1.00  0.00    -0.093 C  
HETATM   14  H   UNL     1      -6.269  12.068  66.744  1.00  0.00     0.000 HD 
HETATM   15  O   UNL     1      -5.987  11.192  66.982  1.00  0.00    -0.068 OA 
BRANCH  13  16
HETATM   16  C   UNL     1      -7.393  10.412  65.257  1.00  0.00    -0.108 C  
HETATM   17  O   UNL     1      -6.521  10.597  64.422  1.00  0.00    -0.004 OA 
BRANCH  16  18
HETATM   18  O   UNL     1      -8.680  10.344  64.860  1.00  0.00    -0.171 OA 
BRANCH  18  19
HETATM   19 CA   UNL     1     -10.339  11.686  66.002  1.00  0.00    -0.208 Ca 
BRANCH  19  20
HETATM   20  O   UNL     1     -11.996  13.029  67.144  1.00  0.00    -0.371 OA 
BRANCH  20  21
HETATM   21  C   UNL     1     -12.174  14.171  66.458  1.00  0.00    -0.433 C  
HETATM   22  O   UNL     1     -12.853  14.130  65.446  1.00  0.00    -0.637 OA 
BRANCH  21  23
HETATM   23  C   UNL     1     -11.425  15.437  66.810  1.00  0.00    -0.045 C  
HETATM   24  H   UNL     1      -9.916  16.408  66.098  1.00  0.00     0.000 HD 
HETATM   25  O   UNL     1     -10.387  15.613  65.877  1.00  0.00    -0.305 OA 
BRANCH  23  26
HETATM   26  C   UNL     1     -10.824  15.458  68.249  1.00  0.00    -0.269 C  
HETATM   27  H   UNL     1     -10.557  14.189  69.691  1.00  0.00     0.000 HD 
HETATM   28  O   UNL     1     -10.923  14.176  68.814  1.00  0.00    -0.241 OA 
BRANCH  26  29
HETATM   29  C   UNL     1      -9.358  15.991  68.409  1.00  0.00    -0.207 C  
BRANCH  29  30
HETATM   30  O   UNL     1      -9.390  17.366  68.053  1.00  0.00    -0.262 OA 
BRANCH  30  31
HETATM   31  C   UNL     1      -8.138  17.957  67.771  1.00  0.00    -0.231 C  
HETATM   32  O   UNL     1      -7.765  18.834  68.821  1.00  0.00    -0.326 OA 
HETATM   33  C   UNL     1      -6.501  19.423  68.558  1.00  0.00    -0.254 C  
HETATM   34  H   UNL     1      -8.790  18.394  64.583  1.00  0.00     0.000 HD 
HETATM   35  C   UNL     1      -6.595  20.357  67.323  1.00  0.00    -0.235 C  
HETATM   36  O   UNL     1      -7.545  21.371  67.543  1.00  0.00    -0.562 OA 
HETATM   37  C   UNL     1      -7.011  19.508  66.104  1.00  0.00    -0.245 C  
HETATM   38  O   UNL     1      -8.688  17.908  65.392  1.00  0.00     0.188 OA 
HETATM   39  H   UNL     1      -7.603  21.943  66.786  1.00  0.00     0.000 HD 
HETATM   40  O   UNL     1      -7.229  20.305  64.966  1.00  0.00    -0.367 OA 
HETATM   41  C   UNL     1      -8.304  18.751  66.451  1.00  0.00    -0.280 C  
HETATM   42  H   UNL     1      -7.484  19.781  64.216  1.00  0.00     0.000 HD 
BRANCH  33  43
HETATM   43  C   UNL     1      -6.057  20.176  69.822  1.00  0.00    -0.357 C  
HETATM   44  O   UNL     1      -7.088  20.230  70.771  1.00  0.00    -0.030 OA 
HETATM   45  H   UNL     1      -6.814  20.695  71.552  1.00  0.00     0.000 HD 
ENDBRANCH  33  43
ENDBRANCH  30  31
ENDBRANCH  29  30
BRANCH  29  46
HETATM   46  C   UNL     1      -8.251  15.203  67.623  1.00  0.00    -0.164 C  
HETATM   47  O   UNL     1      -8.671  14.919  66.309  1.00  0.00    -0.461 OA 
HETATM   48  H   UNL     1      -8.002  14.443  65.833  1.00  0.00     0.000 HD 
BRANCH  46  49
HETATM   49  C   UNL     1      -7.702  13.952  68.345  1.00  0.00    -0.139 C  
HETATM   50  H   UNL     1      -6.643  13.546  69.938  1.00  0.00     0.000 HD 
HETATM   51  O   UNL     1      -6.982  14.315  69.494  1.00  0.00    -0.131 OA 
ENDBRANCH  46  49
ENDBRANCH  29  46
ENDBRANCH  26  29
ENDBRANCH  23  26
ENDBRANCH  21  23
ENDBRANCH  20  21
ENDBRANCH  19  20
ENDBRANCH  18  19
ENDBRANCH  16  18
ENDBRANCH  13  16
ENDBRANCH  10  13
ENDBRANCH   7  10
ENDBRANCH   4   7
ENDBRANCH   2   4
TORSDOF 17
ENDMDL
MODEL      422
REMARK 921   NORMALIZED FREE ENERGY PREDICTED BY IDOCK:    0.67 KCAL/MOL
REMARK 922        TOTAL FREE ENERGY PREDICTED BY IDOCK:   -2.11 KCAL/MOL
REMARK 923 INTER-LIGAND FREE ENERGY PREDICTED BY IDOCK:   -2.74 KCAL/MOL
REMARK 924 INTRA-LIGAND FREE ENERGY PREDICTED BY IDOCK:    0.63 KCAL/MOL
REMARK 927      BINDING AFFINITY PREDICTED BY RF-SCORE:    0.00 PKD
ROOT
HETATM    1  O   UNL     1     -12.535   9.313  72.941  1.00  0.00    -0.016 OA 
HETATM    2  C   UNL     1     -11.869   8.734  71.852  1.00  0.00    -0.367 C  
HETATM    3  H   UNL     1     -12.442   8.756  73.705  1.00  0.00     0.000 HD 
ENDROOT
BRANCH   2   4
HETATM    4  C   UNL     1     -12.019   9.634  70.614  1.00  0.00    -0.229 C  
HETATM    5  O   UNL     1     -12.065  10.979  71.021  1.00  0.00    -0.340 OA 
HETATM    6  H   UNL     1     -12.158  11.536  70.257  1.00  0.00     0.000 HD 
BRANCH   4   7
HETATM    7  C   UNL     1     -10.846   9.436  69.619  1.00  0.00    -0.228 C  
HETATM    8  H   UNL     1      -9.422  10.522  68.861  1.00  0.00     0.000 HD 
HETATM    9  O   UNL     1     -10.140  10.644  69.471  1.00  0.00    -0.209 OA 
BRANCH   7  10
HETATM   10  C   UNL     1      -9.863   8.332  70.093  1.00  0.00    -0.184 C  
HETATM   11  H   UNL     1     -10.001   6.653  71.038  1.00  0.00     0.000 HD 
HETATM   12  O   UNL     1     -10.602   7.329  70.748  1.00  0.00    -0.218 OA 
BRANCH  10  13
HETATM   13  C   UNL     1      -8.762   8.855  71.056  1.00  0.00    -0.224 C  
HETATM   14  H   UNL     1      -8.441  10.451  72.115  1.00  0.00     0.000 HD 
HETATM   15  O   UNL     1      -9.114  10.131  71.526  1.00  0.00     1.377 OA 
BRANCH  13  16
HETATM   16  C   UNL     1      -8.539   7.963  72.254  1.00  0.00    -0.145 C  
HETATM   17  O   UNL     1      -8.881   8.343  73.363  1.00  0.00    -0.253 OA 
BRANCH  16  18
HETATM   18  O   UNL     1      -7.957   6.754  72.124  1.00  0.00    -0.096 OA 
BRANCH  18  19
HETATM   19 CA   UNL     1      -8.985   5.099  70.688  1.00  0.00    -0.110 Ca 
BRANCH  19  20
HETATM   20  O   UNL     1     -10.012   3.444  69.252  1.00  0.00     0.113 OA 
BRANCH  20  21
HETATM   21  C   UNL     1      -9.315   2.299  69.347  1.00  0.00    -0.098 C  
HETATM   22  O   UNL     1      -9.426   1.646  70.371  1.00  0.00    -0.100 OA 
BRANCH  21  23
HETATM   23  C   UNL     1      -8.289   1.902  68.309  1.00  0.00    -0.058 C  
HETATM   24  H   UNL     1      -6.484   1.219  68.323  1.00  0.00     0.000 HD 
HETATM   25  O   UNL     1      -7.128   1.469  68.975  1.00  0.00    -0.036 OA 
BRANCH  23  26
HETATM   26  C   UNL     1      -7.908   3.032  67.306  1.00  0.00    -0.074 C  
HETATM   27  H   UNL     1      -8.723   3.903  65.777  1.00  0.00     0.000 HD 
HETATM   28  O   UNL     1      -8.956   3.214  66.388  1.00  0.00    -0.137 OA 
BRANCH  26  29
HETATM   29  C   UNL     1      -7.490   4.418  67.908  1.00  0.00    -0.069 C  
BRANCH  29  30
HETATM   30  O   UNL     1      -8.107   5.410  67.100  1.00  0.00    -0.101 OA 
BRANCH  30  31
HETATM   31  C   UNL     1      -7.233   6.337  66.488  1.00  0.00    -0.073 C  
HETATM   32  O   UNL     1      -7.707   7.658  66.687  1.00  0.00    -0.094 OA 
HETATM   33  C   UNL     1      -6.829   8.601  66.091  1.00  0.00    -0.073 C  
HETATM   34  H   UNL     1      -6.744   4.485  63.822  1.00  0.00     0.000 HD 
HETATM   35  C   UNL     1      -6.841   8.440  64.548  1.00  0.00    -0.069 C  
HETATM   36  O   UNL     1      -8.141   8.628  64.043  1.00  0.00    -0.151 OA 
HETATM   37  C   UNL     1      -6.350   7.018  64.206  1.00  0.00    -0.036 C  
HETATM   38  O   UNL     1      -6.758   4.689  64.749  1.00  0.00    -0.043 OA 
HETATM   39  H   UNL     1      -8.148   8.530  63.098  1.00  0.00     0.000 HD 
HETATM   40  O   UNL     1      -6.441   6.755  62.828  1.00  0.00    -0.041 OA 
HETATM   41  C   UNL     1      -7.211   6.002  64.975  1.00  0.00    -0.066 C  
HETATM   42  H   UNL     1      -6.138   5.879  62.617  1.00  0.00     0.000 HD 
BRANCH  33  43
HETATM   43  C   UNL     1      -7.273  10.005  66.530  1.00  0.00    -0.101 C  
HETATM   44  O   UNL     1      -8.375   9.943  67.395  1.00  0.00    -0.117 OA 
HETATM   45  H   UNL     1      -8.649  10.811  67.667  1.00  0.00     0.000 HD 
ENDBRANCH  33  43
ENDBRANCH  30  31
ENDBRANCH  29  30
BRANCH  29  46
HETATM   46  C   UNL     1      -5.948   4.661  68.066  1.00  0.00    -0.027 C  
HETATM   47  O   UNL     1      -5.209   3.645  67.429  1.00  0.00    -0.010 OA 
HETATM   48  H   UNL     1      -4.276   3.792  67.524  1.00  0.00     0.000 HD 
BRANCH  46  49
HETATM   49  C   UNL     1      -5.469   4.913  69.514  1.00  0.00    -0.008 C  
HETATM   50  H   UNL     1      -6.149   4.659  71.329  1.00  0.00     0.000 HD 
HETATM   51  O   UNL     1      -6.443   4.504  70.439  1.00  0.00    -0.032 OA 
ENDBRANCH  46  49
ENDBRANCH  29  46
ENDBRANCH  26  29
ENDBRANCH  23  26
ENDBRANCH  21  23
ENDBRANCH  20  21
ENDBRANCH  19  20
ENDBRANCH  18  19
ENDBRANCH  16  18
ENDBRANCH  13  16
ENDBRANCH  10  13
ENDBRANCH   7  10
ENDBRANCH   4   7
ENDBRANCH   2   4
TORSDOF 17
ENDMDL
MODEL      423
REMARK 921   NORMALIZED FREE ENERGY PREDICTED BY IDOCK:    0.68 KCAL/MOL
REMARK 922        TOTAL FREE ENERGY PREDICTED BY IDOCK:   -2.08 KCAL/MOL
REMARK 923 INTER-LIGAND FREE ENERGY PREDICTED BY IDOCK:   -3.17 KCAL/MOL
REMARK 924 INTRA-LIGAND FREE ENERGY PREDICTED BY IDOCK:    1.09 KCAL/MOL
REMARK 927      BINDING AFFINITY PREDICTED BY RF-SCORE:    0.00 PKD
ROOT
HETATM    1  O   UNL     1      -8.693   3.345  66.242  1.00  0.00    -0.114 OA 
HETATM    2  C   UNL     1      -9.754   3.812  65.454  1.00  0.00    -0.157 C  
HETATM    3  H   UNL     1      -8.223   2.663  65.776  1.00  0.00     0.000 HD 
ENDROOT
BRANCH   2   4
HETATM    4  C   UNL     1     -10.513   4.916  66.209  1.00  0.00    -0.304 C  
HETATM    5  O   UNL     1     -11.835   4.977  65.736  1.00  0.00    -0.073 OA 
HETATM    6  H   UNL     1     -12.304   5.659  66.203  1.00  0.00     0.000 HD 
BRANCH   4   7
HETATM    7  C   UNL     1     -10.523   4.656  67.739  1.00  0.00     0.234 C  
HETATM    8  H   UNL     1      -9.915   3.262  68.951  1.00  0.00     0.000 HD 
HETATM    9  O   UNL     1      -9.908   3.421  68.014  1.00  0.00    -0.072 OA 
BRANCH   7  10
HETATM   10  C   UNL     1      -9.784   5.774  68.522  1.00  0.00    -0.131 C  
HETATM   11  H   UNL     1      -9.123   6.015  70.321  1.00  0.00     0.000 HD 
HETATM   12  O   UNL     1      -9.576   5.331  69.841  1.00  0.00    -0.153 OA 
BRANCH  10  13
HETATM   13  C   UNL     1     -10.561   7.119  68.560  1.00  0.00    -0.187 C  
HETATM   14  H   UNL     1     -11.887   7.964  69.700  1.00  0.00     0.000 HD 
HETATM   15  O   UNL     1     -11.413   7.141  69.676  1.00  0.00    -0.134 OA 
BRANCH  13  16
HETATM   16  C   UNL     1      -9.660   8.329  68.641  1.00  0.00    -0.149 C  
HETATM   17  O   UNL     1      -8.989   8.650  67.672  1.00  0.00    -0.134 OA 
BRANCH  16  18
HETATM   18  O   UNL     1      -9.574   9.060  69.770  1.00  0.00    -0.165 OA 
BRANCH  18  19
HETATM   19 CA   UNL     1      -8.655  11.296  69.661  1.00  0.00    -0.328 Ca 
BRANCH  19  20
HETATM   20  O   UNL     1      -7.735  13.532  69.552  1.00  0.00     0.356 OA 
BRANCH  20  21
HETATM   21  C   UNL     1      -6.477  13.504  70.024  1.00  0.00     0.025 C  
HETATM   22  O   UNL     1      -5.981  12.417  70.265  1.00  0.00    -0.161 OA 
BRANCH  21  23
HETATM   23  C   UNL     1      -5.745  14.768  70.416  1.00  0.00    -0.148 C  
HETATM   24  H   UNL     1      -4.713  15.368  71.933  1.00  0.00     0.000 HD 
HETATM   25  O   UNL     1      -5.173  14.574  71.686  1.00  0.00    -0.141 OA 
BRANCH  23  26
HETATM   26  C   UNL     1      -6.632  16.050  70.449  1.00  0.00     0.458 C  
HETATM   27  H   UNL     1      -6.691  17.706  71.456  1.00  0.00     0.000 HD 
HETATM   28  O   UNL     1      -6.150  16.925  71.436  1.00  0.00     1.128 OA 
BRANCH  26  29
HETATM   29  C   UNL     1      -6.821  16.829  69.102  1.00  0.00    -0.227 C  
BRANCH  29  30
HETATM   30  O   UNL     1      -6.532  15.907  68.061  1.00  0.00    -0.114 OA 
BRANCH  30  31
HETATM   31  C   UNL     1      -7.516  15.789  67.053  1.00  0.00    -0.207 C  
HETATM   32  O   UNL     1      -8.597  16.667  67.321  1.00  0.00    -0.184 OA 
HETATM   33  C   UNL     1      -9.586  16.569  66.308  1.00  0.00    -0.306 C  
HETATM   34  H   UNL     1      -7.252  12.523  66.841  1.00  0.00     0.000 HD 
HETATM   35  C   UNL     1     -10.244  15.165  66.338  1.00  0.00    -0.281 C  
HETATM   36  O   UNL     1     -10.836  14.924  67.591  1.00  0.00    -0.272 OA 
HETATM   37  C   UNL     1      -9.149  14.112  66.068  1.00  0.00     0.164 C  
HETATM   38  O   UNL     1      -6.951  13.424  66.827  1.00  0.00     0.319 OA 
HETATM   39  H   UNL     1     -11.238  14.064  67.609  1.00  0.00     0.000 HD 
HETATM   40  O   UNL     1      -9.647  12.802  66.192  1.00  0.00    -0.276 OA 
HETATM   41  C   UNL     1      -8.007  14.319  67.077  1.00  0.00     0.017 C  
HETATM   42  H   UNL     1      -8.973  12.154  66.025  1.00  0.00     0.000 HD 
BRANCH  33  43
HETATM   43  C   UNL     1     -10.608  17.693  66.534  1.00  0.00    -0.207 C  
HETATM   44  O   UNL     1      -9.981  18.946  66.606  1.00  0.00    -0.328 OA 
HETATM   45  H   UNL     1     -10.613  19.640  66.745  1.00  0.00     0.000 HD 
ENDBRANCH  33  43
ENDBRANCH  30  31
ENDBRANCH  29  30
BRANCH  29  46
HETATM   46  C   UNL     1      -6.000  18.159  68.957  1.00  0.00    -0.221 C  
HETATM   47  O   UNL     1      -5.147  18.348  70.062  1.00  0.00    -0.186 OA 
HETATM   48  H   UNL     1      -4.650  19.152  69.974  1.00  0.00     0.000 HD 
BRANCH  46  49
HETATM   49  C   UNL     1      -6.842  19.418  68.645  1.00  0.00    -0.305 C  
HETATM   50  H   UNL     1      -7.408  20.429  67.071  1.00  0.00     0.000 HD 
HETATM   51  O   UNL     1      -6.890  19.655  67.263  1.00  0.00    -0.200 OA 
ENDBRANCH  46  49
ENDBRANCH  29  46
ENDBRANCH  26  29
ENDBRANCH  23  26
ENDBRANCH  21  23
ENDBRANCH  20  21
ENDBRANCH  19  20
ENDBRANCH  18  19
ENDBRANCH  16  18
ENDBRANCH  13  16
ENDBRANCH  10  13
ENDBRANCH   7  10
ENDBRANCH   4   7
ENDBRANCH   2   4
TORSDOF 17
ENDMDL
MODEL      424
REMARK 921   NORMALIZED FREE ENERGY PREDICTED BY IDOCK:    0.90 KCAL/MOL
REMARK 922        TOTAL FREE ENERGY PREDICTED BY IDOCK:   -1.65 KCAL/MOL
REMARK 923 INTER-LIGAND FREE ENERGY PREDICTED BY IDOCK:   -1.60 KCAL/MOL
REMARK 924 INTRA-LIGAND FREE ENERGY PREDICTED BY IDOCK:   -0.04 KCAL/MOL
REMARK 927      BINDING AFFINITY PREDICTED BY RF-SCORE:    0.00 PKD
ROOT
HETATM    1  O   UNL     1     -12.235  16.688  72.274  1.00  0.00    -0.510 OA 
HETATM    2  C   UNL     1     -13.061  15.556  72.305  1.00  0.00    -0.430 C  
HETATM    3  H   UNL     1     -12.039  16.965  73.162  1.00  0.00     0.000 HD 
ENDROOT
BRANCH   2   4
HETATM    4  C   UNL     1     -13.379  15.108  70.868  1.00  0.00    -0.408 C  
HETATM    5  O   UNL     1     -14.064  16.138  70.201  1.00  0.00     0.818 OA 
HETATM    6  H   UNL     1     -14.261  15.862  69.314  1.00  0.00     0.000 HD 
BRANCH   4   7
HETATM    7  C   UNL     1     -12.088  14.753  70.083  1.00  0.00    -0.327 C  
HETATM    8  H   UNL     1     -10.435  15.647  69.583  1.00  0.00     0.000 HD 
HETATM    9  O   UNL     1     -11.225  15.864  70.064  1.00  0.00    -0.296 OA 
BRANCH   7  10
HETATM   10  C   UNL     1     -11.343  13.545  70.709  1.00  0.00     0.866 C  
HETATM   11  H   UNL     1      -9.751  12.527  70.308  1.00  0.00     0.000 HD 
HETATM   12  O   UNL     1     -10.208  13.267  69.924  1.00  0.00     0.966 OA 
BRANCH  10  13
HETATM   13  C   UNL     1     -12.214  12.262  70.805  1.00  0.00    -0.260 C  
HETATM   14  H   UNL     1     -14.084  11.832  71.107  1.00  0.00     0.000 HD 
HETATM   15  O   UNL     1     -13.551  12.617  71.048  1.00  0.00     0.357 OA 
BRANCH  13  16
HETATM   16  C   UNL     1     -12.179  11.418  69.553  1.00  0.00    -0.235 C  
HETATM   17  O   UNL     1     -12.958  10.485  69.430  1.00  0.00     0.015 OA 
BRANCH  16  18
HETATM   18  O   UNL     1     -11.292  11.668  68.569  1.00  0.00    -0.226 OA 
BRANCH  18  19
HETATM   19 CA   UNL     1      -9.489  10.100  68.180  1.00  0.00    -0.133 Ca 
BRANCH  19  20
HETATM   20  O   UNL     1      -7.687   8.533  67.792  1.00  0.00    -0.100 OA 
BRANCH  20  21
HETATM   21  C   UNL     1      -7.843   7.990  66.572  1.00  0.00    -0.097 C  
HETATM   22  O   UNL     1      -8.043   6.789  66.503  1.00  0.00    -0.103 OA 
BRANCH  21  23
HETATM   23  C   UNL     1      -7.607   8.787  65.309  1.00  0.00    -0.091 C  
HETATM   24  H   UNL     1      -6.147   9.040  64.071  1.00  0.00     0.000 HD 
HETATM   25  O   UNL     1      -6.295   8.540  64.865  1.00  0.00    -0.063 OA 
BRANCH  23  26
HETATM   26  C   UNL     1      -7.809  10.325  65.463  1.00  0.00    -0.152 C  
HETATM   27  H   UNL     1      -6.681  11.900  65.554  1.00  0.00     0.000 HD 
HETATM   28  O   UNL     1      -6.557  10.963  65.460  1.00  0.00    -0.049 OA 
BRANCH  26  29
HETATM   29  C   UNL     1      -8.762  11.033  64.438  1.00  0.00     0.078 C  
BRANCH  29  30
HETATM   30  O   UNL     1      -8.573  12.430  64.612  1.00  0.00     1.466 OA 
BRANCH  30  31
HETATM   31  C   UNL     1      -9.574  13.098  65.353  1.00  0.00     0.110 C  
HETATM   32  O   UNL     1     -10.275  14.005  64.519  1.00  0.00    -0.381 OA 
HETATM   33  C   UNL     1     -11.294  14.672  65.247  1.00  0.00    -0.354 C  
HETATM   34  H   UNL     1      -7.694  13.467  68.019  1.00  0.00     0.000 HD 
HETATM   35  C   UNL     1     -10.664  15.588  66.328  1.00  0.00    -0.307 C  
HETATM   36  O   UNL     1      -9.816  16.541  65.735  1.00  0.00    -0.457 OA 
HETATM   37  C   UNL     1      -9.855  14.704  67.300  1.00  0.00    -0.231 C  
HETATM   38  O   UNL     1      -8.135  12.994  67.324  1.00  0.00    -0.181 OA 
HETATM   39  H   UNL     1      -9.430  17.101  66.398  1.00  0.00     0.000 HD 
HETATM   40  O   UNL     1      -9.158  15.476  68.247  1.00  0.00    -0.181 OA 
HETATM   41  C   UNL     1      -8.852  13.869  66.487  1.00  0.00     0.004 C  
HETATM   42  H   UNL     1      -8.661  14.932  68.845  1.00  0.00     0.000 HD 
BRANCH  33  43
HETATM   43  C   UNL     1     -12.152  15.462  64.246  1.00  0.00    -0.166 C  
HETATM   44  O   UNL     1     -12.491  14.677  63.135  1.00  0.00    -0.757 OA 
HETATM   45  H   UNL     1     -13.021  15.164  62.517  1.00  0.00     0.000 HD 
ENDBRANCH  33  43
ENDBRANCH  30  31
ENDBRANCH  29  30
BRANCH  29  46
HETATM   46  C   UNL     1     -10.276  10.628  64.515  1.00  0.00    -0.329 C  
HETATM   47  O   UNL     1     -10.418   9.266  64.847  1.00  0.00     0.477 OA 
HETATM   48  H   UNL     1     -11.334   9.021  64.894  1.00  0.00     0.000 HD 
BRANCH  46  49
HETATM   49  C   UNL     1     -11.122  11.021  63.283  1.00  0.00     0.353 C  
HETATM   50  H   UNL     1     -12.894  11.763  62.918  1.00  0.00     0.000 HD 
HETATM   51  O   UNL     1     -12.373  11.522  63.676  1.00  0.00    -0.288 OA 
ENDBRANCH  46  49
ENDBRANCH  29  46
ENDBRANCH  26  29
ENDBRANCH  23  26
ENDBRANCH  21  23
ENDBRANCH  20  21
ENDBRANCH  19  20
ENDBRANCH  18  19
ENDBRANCH  16  18
ENDBRANCH  13  16
ENDBRANCH  10  13
ENDBRANCH   7  10
ENDBRANCH   4   7
ENDBRANCH   2   4
TORSDOF 17
ENDMDL
MODEL      425
REMARK 921   NORMALIZED FREE ENERGY PREDICTED BY IDOCK:    1.14 KCAL/MOL
REMARK 922        TOTAL FREE ENERGY PREDICTED BY IDOCK:   -1.16 KCAL/MOL
REMARK 923 INTER-LIGAND FREE ENERGY PREDICTED BY IDOCK:   -2.51 KCAL/MOL
REMARK 924 INTRA-LIGAND FREE ENERGY PREDICTED BY IDOCK:    1.35 KCAL/MOL
REMARK 927      BINDING AFFINITY PREDICTED BY RF-SCORE:    0.00 PKD
ROOT
HETATM    1  O   UNL     1      -7.339  14.904  72.153  1.00  0.00     1.876 OA 
HETATM    2  C   UNL     1      -5.982  15.161  72.395  1.00  0.00     0.954 C  
HETATM    3  H   UNL     1      -7.868  15.593  72.537  1.00  0.00     0.000 HD 
ENDROOT
BRANCH   2   4
HETATM    4  C   UNL     1      -5.125  14.046  71.773  1.00  0.00    -0.175 C  
HETATM    5  O   UNL     1      -5.396  12.832  72.427  1.00  0.00    -0.379 OA 
HETATM    6  H   UNL     1      -4.867  12.143  72.043  1.00  0.00     0.000 HD 
BRANCH   4   7
HETATM    7  C   UNL     1      -5.408  13.889  70.255  1.00  0.00    -0.108 C  
HETATM    8  H   UNL     1      -6.844  13.204  69.138  1.00  0.00     0.000 HD 
HETATM    9  O   UNL     1      -6.671  13.300  70.067  1.00  0.00     0.078 OA 
BRANCH   7  10
HETATM   10  C   UNL     1      -5.371  15.252  69.514  1.00  0.00    -0.094 C  
HETATM   11  H   UNL     1      -5.142  17.105  70.010  1.00  0.00     0.000 HD 
HETATM   12  O   UNL     1      -5.164  16.270  70.464  1.00  0.00    -0.172 OA 
BRANCH  10  13
HETATM   13  C   UNL     1      -6.671  15.561  68.721  1.00  0.00    -0.114 C  
HETATM   14  H   UNL     1      -7.396  17.047  67.703  1.00  0.00     0.000 HD 
HETATM   15  O   UNL     1      -6.602  16.858  68.188  1.00  0.00    -0.140 OA 
BRANCH  13  16
HETATM   16  C   UNL     1      -6.919  14.603  67.580  1.00  0.00    -0.184 C  
HETATM   17  O   UNL     1      -7.881  14.772  66.846  1.00  0.00    -0.128 OA 
BRANCH  16  18
HETATM   18  O   UNL     1      -6.103  13.552  67.363  1.00  0.00    -0.330 OA 
BRANCH  18  19
HETATM   19 CA   UNL     1      -6.711  11.914  65.688  1.00  0.00    -0.353 Ca 
BRANCH  19  20
HETATM   20  O   UNL     1      -7.318  10.276  64.013  1.00  0.00    -0.133 OA 
BRANCH  20  21
HETATM   21  C   UNL     1      -8.060   9.319  64.596  1.00  0.00    -0.136 C  
HETATM   22  O   UNL     1      -9.042   8.915  63.996  1.00  0.00     0.066 OA 
BRANCH  21  23
HETATM   23  C   UNL     1      -7.808   8.869  66.017  1.00  0.00    -0.102 C  
HETATM   24  H   UNL     1      -6.830   7.443  66.876  1.00  0.00     0.000 HD 
HETATM   25  O   UNL     1      -6.989   7.726  65.983  1.00  0.00    -0.059 OA 
BRANCH  23  26
HETATM   26  C   UNL     1      -9.096   8.547  66.835  1.00  0.00    -0.146 C  
HETATM   27  H   UNL     1     -10.913   9.215  66.936  1.00  0.00     0.000 HD 
HETATM   28  O   UNL     1     -10.129   9.411  66.438  1.00  0.00    -0.263 OA 
BRANCH  26  29
HETATM   29  C   UNL     1      -9.611   7.066  66.813  1.00  0.00    -0.171 C  
BRANCH  29  30
HETATM   30  O   UNL     1      -9.818   6.693  68.168  1.00  0.00    -0.129 OA 
BRANCH  30  31
HETATM   31  C   UNL     1      -9.200   7.517  69.135  1.00  0.00    -0.144 C  
HETATM   32  O   UNL     1      -8.070   6.859  69.685  1.00  0.00    -0.122 OA 
HETATM   33  C   UNL     1      -7.430   7.683  70.648  1.00  0.00    -0.072 C  
HETATM   34  H   UNL     1     -12.037   8.580  70.396  1.00  0.00     0.000 HD 
HETATM   35  C   UNL     1      -8.359   7.894  71.872  1.00  0.00    -0.121 C  
HETATM   36  O   UNL     1      -8.688   6.659  72.460  1.00  0.00    -0.125 OA 
HETATM   37  C   UNL     1      -9.643   8.600  71.389  1.00  0.00    -0.243 C  
HETATM   38  O   UNL     1     -11.392   8.419  69.719  1.00  0.00    -0.050 OA 
HETATM   39  H   UNL     1      -9.257   6.789  73.210  1.00  0.00     0.000 HD 
HETATM   40  O   UNL     1     -10.587   8.725  72.423  1.00  0.00    -0.307 OA 
HETATM   41  C   UNL     1     -10.253   7.779  70.240  1.00  0.00    -0.199 C  
HETATM   42  H   UNL     1     -11.377   9.160  72.126  1.00  0.00     0.000 HD 
BRANCH  33  43
HETATM   43  C   UNL     1      -6.103   7.013  71.036  1.00  0.00    -0.036 C  
HETATM   44  O   UNL     1      -6.301   5.684  71.438  1.00  0.00    -0.039 OA 
HETATM   45  H   UNL     1      -5.481   5.270  71.678  1.00  0.00     0.000 HD 
ENDBRANCH  33  43
ENDBRANCH  30  31
ENDBRANCH  29  30
BRANCH  29  46
HETATM   46  C   UNL     1      -8.707   6.036  66.049  1.00  0.00    -0.152 C  
HETATM   47  O   UNL     1      -8.873   6.155  64.655  1.00  0.00    -0.358 OA 
HETATM   48  H   UNL     1      -8.326   5.532  64.193  1.00  0.00     0.000 HD 
BRANCH  46  49
HETATM   49  C   UNL     1      -8.833   4.572  66.530  1.00  0.00    -0.112 C  
HETATM   50  H   UNL     1      -7.747   3.267  67.500  1.00  0.00     0.000 HD 
HETATM   51  O   UNL     1      -7.670   4.167  67.205  1.00  0.00    -0.086 OA 
ENDBRANCH  46  49
ENDBRANCH  29  46
ENDBRANCH  26  29
ENDBRANCH  23  26
ENDBRANCH  21  23
ENDBRANCH  20  21
ENDBRANCH  19  20
ENDBRANCH  18  19
ENDBRANCH  16  18
ENDBRANCH  13  16
ENDBRANCH  10  13
ENDBRANCH   7  10
ENDBRANCH   4   7
ENDBRANCH   2   4
TORSDOF 17
ENDMDL
MODEL      426
REMARK 921   NORMALIZED FREE ENERGY PREDICTED BY IDOCK:    2.29 KCAL/MOL
REMARK 922        TOTAL FREE ENERGY PREDICTED BY IDOCK:    1.12 KCAL/MOL
REMARK 923 INTER-LIGAND FREE ENERGY PREDICTED BY IDOCK:    1.87 KCAL/MOL
REMARK 924 INTRA-LIGAND FREE ENERGY PREDICTED BY IDOCK:   -0.75 KCAL/MOL
REMARK 927      BINDING AFFINITY PREDICTED BY RF-SCORE:    0.00 PKD
ROOT
HETATM    1  O   UNL     1     -13.188  13.323  69.803  1.00  0.00     0.667 OA 
HETATM    2  C   UNL     1     -12.298  12.479  69.123  1.00  0.00     0.176 C  
HETATM    3  H   UNL     1     -12.983  14.230  69.604  1.00  0.00     0.000 HD 
ENDROOT
BRANCH   2   4
HETATM    4  C   UNL     1     -12.630  11.012  69.444  1.00  0.00     0.163 C  
HETATM    5  O   UNL     1     -12.721  10.283  68.246  1.00  0.00     1.145 OA 
HETATM    6  H   UNL     1     -12.925   9.377  68.444  1.00  0.00     0.000 HD 
BRANCH   4   7
HETATM    7  C   UNL     1     -11.552  10.371  70.358  1.00  0.00    -0.337 C  
HETATM    8  H   UNL     1     -11.003  10.501  72.219  1.00  0.00     0.000 HD 
HETATM    9  O   UNL     1     -11.663  10.894  71.660  1.00  0.00     0.215 OA 
BRANCH   7  10
HETATM   10  C   UNL     1     -11.689   8.826  70.421  1.00  0.00    -0.019 C  
HETATM   11  H   UNL     1     -12.311   7.531  71.712  1.00  0.00     0.000 HD 
HETATM   12  O   UNL     1     -12.228   8.477  71.673  1.00  0.00    -0.292 OA 
BRANCH  10  13
HETATM   13  C   UNL     1     -10.341   8.077  70.227  1.00  0.00    -0.212 C  
HETATM   14  H   UNL     1      -9.524   6.948  68.875  1.00  0.00     0.000 HD 
HETATM   15  O   UNL     1     -10.348   7.405  68.994  1.00  0.00    -0.201 OA 
BRANCH  13  16
HETATM   16  C   UNL     1      -9.138   8.991  70.251  1.00  0.00    -0.202 C  
HETATM   17  O   UNL     1      -8.562   9.260  69.209  1.00  0.00    -0.130 OA 
BRANCH  16  18
HETATM   18  O   UNL     1      -8.680   9.508  71.408  1.00  0.00    -0.211 OA 
BRANCH  18  19
HETATM   19 CA   UNL     1      -7.968  11.820  71.466  1.00  0.00     3.734 Ca 
BRANCH  19  20
HETATM   20  O   UNL     1      -7.257  14.132  71.525  1.00  0.00     1.575 OA 
BRANCH  20  21
HETATM   21  C   UNL     1      -6.272  14.304  70.626  1.00  0.00    -0.141 C  
HETATM   22  O   UNL     1      -5.131  14.408  71.042  1.00  0.00    -0.109 OA 
BRANCH  21  23
HETATM   23  C   UNL     1      -6.563  14.540  69.161  1.00  0.00    -0.111 C  
HETATM   24  H   UNL     1      -7.092  16.041  68.068  1.00  0.00     0.000 HD 
HETATM   25  O   UNL     1      -6.910  15.892  68.988  1.00  0.00    -0.133 OA 
BRANCH  23  26
HETATM   26  C   UNL     1      -7.695  13.646  68.570  1.00  0.00    -0.129 C  
HETATM   27  H   UNL     1      -9.628  13.713  68.436  1.00  0.00     0.000 HD 
HETATM   28  O   UNL     1      -8.939  14.258  68.796  1.00  0.00    -0.173 OA 
BRANCH  26  29
HETATM   29  C   UNL     1      -7.577  13.238  67.060  1.00  0.00     0.177 C  
BRANCH  29  30
HETATM   30  O   UNL     1      -7.922  14.391  66.305  1.00  0.00     0.787 OA 
BRANCH  30  31
HETATM   31  C   UNL     1      -9.248  14.853  66.460  1.00  0.00    -0.285 C  
HETATM   32  O   UNL     1     -10.108  14.180  65.555  1.00  0.00    -0.329 OA 
HETATM   33  C   UNL     1     -11.447  14.624  65.710  1.00  0.00    -0.338 C  
HETATM   34  H   UNL     1      -8.368  17.993  66.833  1.00  0.00     0.000 HD 
HETATM   35  C   UNL     1     -11.568  16.110  65.286  1.00  0.00     0.364 C  
HETATM   36  O   UNL     1     -11.175  16.275  63.945  1.00  0.00    -1.264 OA 
HETATM   37  C   UNL     1     -10.656  16.951  66.204  1.00  0.00    -0.194 C  
HETATM   38  O   UNL     1      -8.377  17.063  67.023  1.00  0.00    -0.186 OA 
HETATM   39  H   UNL     1     -11.250  17.186  63.687  1.00  0.00     0.000 HD 
HETATM   40  O   UNL     1     -10.624  18.300  65.809  1.00  0.00    -0.554 OA 
HETATM   41  C   UNL     1      -9.233  16.371  66.148  1.00  0.00    -0.330 C  
HETATM   42  H   UNL     1     -10.063  18.818  66.374  1.00  0.00     0.000 HD 
BRANCH  33  43
HETATM   43  C   UNL     1     -12.350  13.706  64.870  1.00  0.00    -0.406 C  
HETATM   44  O   UNL     1     -13.009  12.765  65.675  1.00  0.00    -0.334 OA 
HETATM   45  H   UNL     1     -13.568  12.199  65.157  1.00  0.00     0.000 HD 
ENDBRANCH  33  43
ENDBRANCH  30  31
ENDBRANCH  29  30
BRANCH  29  46
HETATM   46  C   UNL     1      -8.402  11.977  66.623  1.00  0.00    -0.085 C  
HETATM   47  O   UNL     1      -9.579  11.855  67.387  1.00  0.00    -0.172 OA 
HETATM   48  H   UNL     1     -10.079  11.092  67.122  1.00  0.00     0.000 HD 
BRANCH  46  49
HETATM   49  C   UNL     1      -7.600  10.657  66.568  1.00  0.00    -0.134 C  
HETATM   50  H   UNL     1      -5.782  10.082  66.135  1.00  0.00     0.000 HD 
HETATM   51  O   UNL     1      -6.275  10.894  66.169  1.00  0.00    -0.123 OA 
ENDBRANCH  46  49
ENDBRANCH  29  46
ENDBRANCH  26  29
ENDBRANCH  23  26
ENDBRANCH  21  23
ENDBRANCH  20  21
ENDBRANCH  19  20
ENDBRANCH  18  19
ENDBRANCH  16  18
ENDBRANCH  13  16
ENDBRANCH  10  13
ENDBRANCH   7  10
ENDBRANCH   4   7
ENDBRANCH   2   4
TORSDOF 17
ENDMDL
MODEL      427
REMARK 921   NORMALIZED FREE ENERGY PREDICTED BY IDOCK:    2.39 KCAL/MOL
REMARK 922        TOTAL FREE ENERGY PREDICTED BY IDOCK:    1.33 KCAL/MOL
REMARK 923 INTER-LIGAND FREE ENERGY PREDICTED BY IDOCK:   -4.07 KCAL/MOL
REMARK 924 INTRA-LIGAND FREE ENERGY PREDICTED BY IDOCK:    5.41 KCAL/MOL
REMARK 927      BINDING AFFINITY PREDICTED BY RF-SCORE:    0.00 PKD
ROOT
HETATM    1  O   UNL     1     -12.098  12.173  69.626  1.00  0.00    -0.280 OA 
HETATM    2  C   UNL     1     -12.023  11.463  70.833  1.00  0.00    -0.166 C  
HETATM    3  H   UNL     1     -12.516  13.013  69.775  1.00  0.00     0.000 HD 
ENDROOT
BRANCH   2   4
HETATM    4  C   UNL     1     -11.347  10.103  70.591  1.00  0.00    -0.352 C  
HETATM    5  O   UNL     1     -12.333   9.108  70.477  1.00  0.00    -0.485 OA 
HETATM    6  H   UNL     1     -11.915   8.267  70.327  1.00  0.00     0.000 HD 
BRANCH   4   7
HETATM    7  C   UNL     1     -10.477  10.119  69.306  1.00  0.00    -0.225 C  
HETATM    8  H   UNL     1     -10.722   9.735  67.416  1.00  0.00     0.000 HD 
HETATM    9  O   UNL     1     -11.255   9.725  68.203  1.00  0.00    -0.163 OA 
BRANCH   7  10
HETATM   10  C   UNL     1      -9.880  11.524  69.028  1.00  0.00     0.007 C  
HETATM   11  H   UNL     1     -10.244  13.333  69.596  1.00  0.00     0.000 HD 
HETATM   12  O   UNL     1     -10.610  12.473  69.767  1.00  0.00     0.419 OA 
BRANCH  10  13
HETATM   13  C   UNL     1      -9.910  11.923  67.527  1.00  0.00    -0.188 C  
HETATM   14  H   UNL     1     -10.299  13.516  66.486  1.00  0.00     0.000 HD 
HETATM   15  O   UNL     1     -10.280  13.272  67.404  1.00  0.00    -0.227 OA 
BRANCH  13  16
HETATM   16  C   UNL     1      -8.583  11.740  66.830  1.00  0.00    -0.185 C  
HETATM   17  O   UNL     1      -7.729  11.026  67.332  1.00  0.00    -0.107 OA 
BRANCH  16  18
HETATM   18  O   UNL     1      -8.317  12.362  65.664  1.00  0.00     0.773 OA 
BRANCH  18  19
HETATM   19 CA   UNL     1      -8.312  14.781  65.593  1.00  0.00    -0.352 Ca 
BRANCH  19  20
HETATM   20  O   UNL     1      -8.306  17.200  65.521  1.00  0.00    -0.246 OA 
BRANCH  20  21
HETATM   21  C   UNL     1      -7.215  17.648  66.165  1.00  0.00    -0.317 C  
HETATM   22  O   UNL     1      -6.792  18.754  65.871  1.00  0.00    -0.238 OA 
BRANCH  21  23
HETATM   23  C   UNL     1      -6.419  16.762  67.097  1.00  0.00    -0.190 C  
HETATM   24  H   UNL     1      -4.689  15.906  67.069  1.00  0.00     0.000 HD 
HETATM   25  O   UNL     1      -5.189  16.462  66.483  1.00  0.00    -0.298 OA 
BRANCH  23  26
HETATM   26  C   UNL     1      -7.128  15.431  67.492  1.00  0.00    -0.192 C  
HETATM   27  H   UNL     1      -7.168  13.603  66.847  1.00  0.00     0.000 HD 
HETATM   28  O   UNL     1      -6.736  14.414  66.606  1.00  0.00     0.735 OA 
BRANCH  26  29
HETATM   29  C   UNL     1      -6.956  14.936  68.970  1.00  0.00    -0.120 C  
BRANCH  29  30
HETATM   30  O   UNL     1      -7.005  16.094  69.790  1.00  0.00    -0.171 OA 
BRANCH  30  31
HETATM   31  C   UNL     1      -8.271  16.712  69.908  1.00  0.00     1.160 C  
HETATM   32  O   UNL     1      -9.290  15.817  69.494  1.00  0.00    -0.265 OA 
HETATM   33  C   UNL     1     -10.569  16.420  69.622  1.00  0.00    -0.307 C  
HETATM   34  H   UNL     1      -7.224  19.619  68.798  1.00  0.00     0.000 HD 
HETATM   35  C   UNL     1     -10.702  17.604  68.630  1.00  0.00    -0.136 C  
HETATM   36  O   UNL     1     -10.526  17.161  67.306  1.00  0.00    -0.327 OA 
HETATM   37  C   UNL     1      -9.622  18.650  68.977  1.00  0.00    -0.228 C  
HETATM   38  O   UNL     1      -7.237  18.856  69.363  1.00  0.00    -0.220 OA 
HETATM   39  H   UNL     1     -10.608  17.886  66.699  1.00  0.00     0.000 HD 
HETATM   40  O   UNL     1      -9.604  19.706  68.048  1.00  0.00    -0.338 OA 
HETATM   41  C   UNL     1      -8.250  17.956  68.985  1.00  0.00    -0.029 C  
HETATM   42  H   UNL     1      -8.940  20.350  68.262  1.00  0.00     0.000 HD 
BRANCH  33  43
HETATM   43  C   UNL     1     -11.630  15.336  69.377  1.00  0.00    -0.330 C  
HETATM   44  O   UNL     1     -12.661  15.809  68.553  1.00  0.00     0.076 OA 
HETATM   45  H   UNL     1     -13.317  15.139  68.401  1.00  0.00     0.000 HD 
ENDBRANCH  33  43
ENDBRANCH  30  31
ENDBRANCH  29  30
BRANCH  29  46
HETATM   46  C   UNL     1      -5.684  14.062  69.258  1.00  0.00    -0.084 C  
HETATM   47  O   UNL     1      -5.739  12.843  68.555  1.00  0.00    -0.061 OA 
HETATM   48  H   UNL     1      -4.970  12.314  68.729  1.00  0.00     0.000 HD 
BRANCH  46  49
HETATM   49  C   UNL     1      -5.354  13.860  70.755  1.00  0.00    -0.142 C  
HETATM   50  H   UNL     1      -5.247  12.380  72.028  1.00  0.00     0.000 HD 
HETATM   51  O   UNL     1      -5.449  12.505  71.107  1.00  0.00    -0.271 OA 
ENDBRANCH  46  49
ENDBRANCH  29  46
ENDBRANCH  26  29
ENDBRANCH  23  26
ENDBRANCH  21  23
ENDBRANCH  20  21
ENDBRANCH  19  20
ENDBRANCH  18  19
ENDBRANCH  16  18
ENDBRANCH  13  16
ENDBRANCH  10  13
ENDBRANCH   7  10
ENDBRANCH   4   7
ENDBRANCH   2   4
TORSDOF 17
ENDMDL
MODEL      428
REMARK 921   NORMALIZED FREE ENERGY PREDICTED BY IDOCK:    2.40 KCAL/MOL
REMARK 922        TOTAL FREE ENERGY PREDICTED BY IDOCK:    1.35 KCAL/MOL
REMARK 923 INTER-LIGAND FREE ENERGY PREDICTED BY IDOCK:    0.36 KCAL/MOL
REMARK 924 INTRA-LIGAND FREE ENERGY PREDICTED BY IDOCK:    0.99 KCAL/MOL
REMARK 927      BINDING AFFINITY PREDICTED BY RF-SCORE:    0.00 PKD
ROOT
HETATM    1  O   UNL     1      -8.758  14.679  70.683  1.00  0.00     0.874 OA 
HETATM    2  C   UNL     1      -7.982  14.326  69.570  1.00  0.00     0.321 C  
HETATM    3  H   UNL     1      -8.208  14.720  71.456  1.00  0.00     0.000 HD 
ENDROOT
BRANCH   2   4
HETATM    4  C   UNL     1      -8.873  14.260  68.318  1.00  0.00    -0.185 C  
HETATM    5  O   UNL     1      -8.494  15.276  67.424  1.00  0.00    -0.156 OA 
HETATM    6  H   UNL     1      -9.044  15.235  66.650  1.00  0.00     0.000 HD 
BRANCH   4   7
HETATM    7  C   UNL     1      -8.762  12.883  67.611  1.00  0.00    -0.185 C  
HETATM    8  H   UNL     1      -9.455  11.086  67.878  1.00  0.00     0.000 HD 
HETATM    9  O   UNL     1      -9.524  11.929  68.311  1.00  0.00    -0.189 OA 
BRANCH   7  10
HETATM   10  C   UNL     1      -9.254  12.943  66.141  1.00  0.00    -0.014 C  
HETATM   11  H   UNL     1     -10.961  12.914  65.238  1.00  0.00     0.000 HD 
HETATM   12  O   UNL     1     -10.660  12.877  66.139  1.00  0.00    -0.266 OA 
BRANCH  10  13
HETATM   13  C   UNL     1      -8.695  11.797  65.253  1.00  0.00     0.442 C  
HETATM   14  H   UNL     1      -7.368  10.389  65.418  1.00  0.00     0.000 HD 
HETATM   15  O   UNL     1      -7.709  11.090  65.961  1.00  0.00    -0.139 OA 
BRANCH  13  16
HETATM   16  C   UNL     1      -9.750  10.809  64.814  1.00  0.00    -0.283 C  
HETATM   17  O   UNL     1      -9.816  10.476  63.641  1.00  0.00    -0.312 OA 
BRANCH  16  18
HETATM   18  O   UNL     1     -10.632  10.295  65.694  1.00  0.00    -0.134 OA 
BRANCH  18  19
HETATM   19 CA   UNL     1     -10.179  10.485  68.064  1.00  0.00    -0.148 Ca 
BRANCH  19  20
HETATM   20  O   UNL     1      -9.727  10.674  70.434  1.00  0.00     0.563 OA 
BRANCH  20  21
HETATM   21  C   UNL     1      -9.145   9.538  70.854  1.00  0.00    -0.028 C  
HETATM   22  O   UNL     1      -7.949   9.564  71.093  1.00  0.00    -0.315 OA 
BRANCH  21  23
HETATM   23  C   UNL     1      -9.887   8.220  70.869  1.00  0.00    -0.182 C  
HETATM   24  H   UNL     1     -10.659   7.070  72.213  1.00  0.00     0.000 HD 
HETATM   25  O   UNL     1     -10.193   7.897  72.203  1.00  0.00    -0.198 OA 
BRANCH  23  26
HETATM   26  C   UNL     1      -9.113   7.031  70.223  1.00  0.00    -0.156 C  
HETATM   27  H   UNL     1      -7.758   5.757  70.772  1.00  0.00     0.000 HD 
HETATM   28  O   UNL     1      -8.229   6.482  71.166  1.00  0.00    -0.118 OA 
BRANCH  26  29
HETATM   29  C   UNL     1      -9.965   5.886  69.573  1.00  0.00    -0.185 C  
BRANCH  29  30
HETATM   30  O   UNL     1      -9.205   5.390  68.481  1.00  0.00    -0.107 OA 
BRANCH  30  31
HETATM   31  C   UNL     1      -7.803   5.519  68.598  1.00  0.00    -0.091 C  
HETATM   32  O   UNL     1      -7.325   6.497  67.690  1.00  0.00    -0.090 OA 
HETATM   33  C   UNL     1      -5.919   6.649  67.808  1.00  0.00    -0.024 C  
HETATM   34  H   UNL     1      -7.290   2.293  68.926  1.00  0.00     0.000 HD 
HETATM   35  C   UNL     1      -5.203   5.351  67.352  1.00  0.00    -0.004 C  
HETATM   36  O   UNL     1      -5.528   5.050  66.017  1.00  0.00    -0.012 OA 
HETATM   37  C   UNL     1      -5.658   4.198  68.271  1.00  0.00    -0.017 C  
HETATM   38  O   UNL     1      -7.662   3.141  69.135  1.00  0.00    -0.048 OA 
HETATM   39  H   UNL     1      -5.089   4.255  65.738  1.00  0.00     0.000 HD 
HETATM   40  O   UNL     1      -5.138   2.961  67.850  1.00  0.00    -0.007 OA 
HETATM   41  C   UNL     1      -7.195   4.135  68.257  1.00  0.00    -0.059 C  
HETATM   42  H   UNL     1      -5.418   2.252  68.416  1.00  0.00     0.000 HD 
BRANCH  33  43
HETATM   43  C   UNL     1      -5.501   7.866  66.969  1.00  0.00    -0.032 C  
HETATM   44  O   UNL     1      -6.033   7.799  65.673  1.00  0.00    -0.037 OA 
HETATM   45  H   UNL     1      -5.775   8.551  65.155  1.00  0.00     0.000 HD 
ENDBRANCH  33  43
ENDBRANCH  30  31
ENDBRANCH  29  30
BRANCH  29  46
HETATM   46  C   UNL     1     -11.425   6.274  69.147  1.00  0.00    -0.156 C  
HETATM   47  O   UNL     1     -11.421   7.394  68.293  1.00  0.00    -0.168 OA 
HETATM   48  H   UNL     1     -12.304   7.629  68.035  1.00  0.00     0.000 HD 
BRANCH  46  49
HETATM   49  C   UNL     1     -12.427   6.432  70.314  1.00  0.00     0.786 C  
HETATM   50  H   UNL     1     -12.928   5.461  71.935  1.00  0.00     0.000 HD 
HETATM   51  O   UNL     1     -12.312   5.364  71.218  1.00  0.00     1.419 OA 
ENDBRANCH  46  49
ENDBRANCH  29  46
ENDBRANCH  26  29
ENDBRANCH  23  26
ENDBRANCH  21  23
ENDBRANCH  20  21
ENDBRANCH  19  20
ENDBRANCH  18  19
ENDBRANCH  16  18
ENDBRANCH  13  16
ENDBRANCH  10  13
ENDBRANCH   7  10
ENDBRANCH   4   7
ENDBRANCH   2   4
TORSDOF 17
ENDMDL
MODEL      429
REMARK 921   NORMALIZED FREE ENERGY PREDICTED BY IDOCK:    2.44 KCAL/MOL
REMARK 922        TOTAL FREE ENERGY PREDICTED BY IDOCK:    1.43 KCAL/MOL
REMARK 923 INTER-LIGAND FREE ENERGY PREDICTED BY IDOCK:   -7.57 KCAL/MOL
REMARK 924 INTRA-LIGAND FREE ENERGY PREDICTED BY IDOCK:    9.00 KCAL/MOL
REMARK 927      BINDING AFFINITY PREDICTED BY RF-SCORE:    0.00 PKD
ROOT
HETATM    1  O   UNL     1      -7.705  11.645  69.909  1.00  0.00     0.022 OA 
HETATM    2  C   UNL     1      -7.090  10.729  69.045  1.00  0.00    -0.091 C  
HETATM    3  H   UNL     1      -7.426  12.527  69.691  1.00  0.00     0.000 HD 
ENDROOT
BRANCH   2   4
HETATM    4  C   UNL     1      -7.541   9.301  69.397  1.00  0.00    -0.080 C  
HETATM    5  O   UNL     1      -8.917   9.308  69.687  1.00  0.00    -0.140 OA 
HETATM    6  H   UNL     1      -9.196   8.426  69.904  1.00  0.00     0.000 HD 
BRANCH   4   7
HETATM    7  C   UNL     1      -7.262   8.312  68.235  1.00  0.00    -0.093 C  
HETATM    8  H   UNL     1      -8.308   7.238  66.997  1.00  0.00     0.000 HD 
HETATM    9  O   UNL     1      -8.480   7.844  67.709  1.00  0.00    -0.124 OA 
BRANCH   7  10
HETATM   10  C   UNL     1      -6.440   8.972  67.096  1.00  0.00    -0.061 C  
HETATM   11  H   UNL     1      -4.628   9.600  66.866  1.00  0.00     0.000 HD 
HETATM   12  O   UNL     1      -5.131   9.196  67.564  1.00  0.00    -0.036 OA 
BRANCH  10  13
HETATM   13  C   UNL     1      -7.036  10.320  66.604  1.00  0.00    -0.103 C  
HETATM   14  H   UNL     1      -6.478  12.179  66.530  1.00  0.00     0.000 HD 
HETATM   15  O   UNL     1      -6.114  11.354  66.831  1.00  0.00    -0.105 OA 
BRANCH  13  16
HETATM   16  C   UNL     1      -7.382  10.321  65.134  1.00  0.00    -0.127 C  
HETATM   17  O   UNL     1      -6.526  10.606  64.310  1.00  0.00     0.003 OA 
BRANCH  16  18
HETATM   18  O   UNL     1      -8.627  10.024  64.711  1.00  0.00    -0.154 OA 
BRANCH  18  19
HETATM   19 CA   UNL     1     -10.513  11.180  65.694  1.00  0.00    -0.215 Ca 
BRANCH  19  20
HETATM   20  O   UNL     1     -12.397  12.337  66.676  1.00  0.00    -0.471 OA 
BRANCH  20  21
HETATM   21  C   UNL     1     -12.654  13.439  65.950  1.00  0.00    -0.348 C  
HETATM   22  O   UNL     1     -13.269  13.304  64.906  1.00  0.00    -0.703 OA 
BRANCH  21  23
HETATM   23  C   UNL     1     -12.059  14.783  66.305  1.00  0.00    -0.094 C  
HETATM   24  H   UNL     1     -10.569  15.852  65.702  1.00  0.00     0.000 HD 
HETATM   25  O   UNL     1     -10.943  15.007  65.480  1.00  0.00    -0.328 OA 
BRANCH  23  26
HETATM   26  C   UNL     1     -11.627  14.930  67.796  1.00  0.00    -0.339 C  
HETATM   27  H   UNL     1     -11.519  13.786  69.358  1.00  0.00     0.000 HD 
HETATM   28  O   UNL     1     -11.783  13.697  68.450  1.00  0.00    -0.316 OA 
BRANCH  26  29
HETATM   29  C   UNL     1     -10.192  15.496  68.076  1.00  0.00    -0.229 C  
BRANCH  29  30
HETATM   30  O   UNL     1     -10.368  16.665  68.864  1.00  0.00    -0.260 OA 
BRANCH  30  31
HETATM   31  C   UNL     1      -9.256  17.534  68.933  1.00  0.00    -0.153 C  
HETATM   32  O   UNL     1      -9.338  18.514  67.913  1.00  0.00    -0.283 OA 
HETATM   33  C   UNL     1      -8.234  19.404  67.981  1.00  0.00    -0.318 C  
HETATM   34  H   UNL     1      -7.117  15.134  69.599  1.00  0.00     0.000 HD 
HETATM   35  C   UNL     1      -6.920  18.649  67.653  1.00  0.00    -0.206 C  
HETATM   36  O   UNL     1      -6.983  18.083  66.366  1.00  0.00    -0.202 OA 
HETATM   37  C   UNL     1      -6.727  17.534  68.702  1.00  0.00    -0.211 C  
HETATM   38  O   UNL     1      -7.892  15.668  69.723  1.00  0.00    -0.164 OA 
HETATM   39  H   UNL     1      -6.178  17.621  66.165  1.00  0.00     0.000 HD 
HETATM   40  O   UNL     1      -5.612  16.729  68.406  1.00  0.00    -0.118 OA 
HETATM   41  C   UNL     1      -7.992  16.661  68.730  1.00  0.00    -0.239 C  
HETATM   42  H   UNL     1      -5.493  16.043  69.052  1.00  0.00     0.000 HD 
BRANCH  33  43
HETATM   43  C   UNL     1      -8.497  20.561  67.005  1.00  0.00    -0.230 C  
HETATM   44  O   UNL     1      -7.298  21.152  66.579  1.00  0.00    -0.541 OA 
HETATM   45  H   UNL     1      -7.460  21.866  65.976  1.00  0.00     0.000 HD 
ENDBRANCH  33  43
ENDBRANCH  30  31
ENDBRANCH  29  30
BRANCH  29  46
HETATM   46  C   UNL     1      -9.301  15.765  66.813  1.00  0.00    -0.242 C  
HETATM   47  O   UNL     1     -10.033  16.433  65.811  1.00  0.00    -0.399 OA 
HETATM   48  H   UNL     1      -9.494  16.596  65.047  1.00  0.00     0.000 HD 
BRANCH  46  49
HETATM   49  C   UNL     1      -8.553  14.528  66.264  1.00  0.00     0.361 C  
HETATM   50  H   UNL     1      -8.598  12.588  66.495  1.00  0.00     0.000 HD 
HETATM   51  O   UNL     1      -9.057  13.348  66.832  1.00  0.00    -0.231 OA 
ENDBRANCH  46  49
ENDBRANCH  29  46
ENDBRANCH  26  29
ENDBRANCH  23  26
ENDBRANCH  21  23
ENDBRANCH  20  21
ENDBRANCH  19  20
ENDBRANCH  18  19
ENDBRANCH  16  18
ENDBRANCH  13  16
ENDBRANCH  10  13
ENDBRANCH   7  10
ENDBRANCH   4   7
ENDBRANCH   2   4
TORSDOF 17
ENDMDL
MODEL      430
REMARK 921   NORMALIZED FREE ENERGY PREDICTED BY IDOCK:    2.52 KCAL/MOL
REMARK 922        TOTAL FREE ENERGY PREDICTED BY IDOCK:    1.58 KCAL/MOL
REMARK 923 INTER-LIGAND FREE ENERGY PREDICTED BY IDOCK:   -3.52 KCAL/MOL
REMARK 924 INTRA-LIGAND FREE ENERGY PREDICTED BY IDOCK:    5.10 KCAL/MOL
REMARK 927      BINDING AFFINITY PREDICTED BY RF-SCORE:    0.00 PKD
ROOT
HETATM    1  O   UNL     1     -11.622  17.312  72.902  1.00  0.00    -0.027 OA 
HETATM    2  C   UNL     1     -11.051  16.104  72.479  1.00  0.00     0.945 C  
HETATM    3  H   UNL     1     -11.178  17.619  73.684  1.00  0.00     0.000 HD 
ENDROOT
BRANCH   2   4
HETATM    4  C   UNL     1     -11.769  15.608  71.213  1.00  0.00    -0.422 C  
HETATM    5  O   UNL     1     -13.157  15.602  71.438  1.00  0.00    -0.479 OA 
HETATM    6  H   UNL     1     -13.600  15.295  70.656  1.00  0.00     0.000 HD 
BRANCH   4   7
HETATM    7  C   UNL     1     -11.448  16.503  69.987  1.00  0.00     0.064 C  
HETATM    8  H   UNL     1     -10.608  18.227  69.664  1.00  0.00     0.000 HD 
HETATM    9  O   UNL     1     -10.805  17.679  70.415  1.00  0.00     0.722 OA 
BRANCH   7  10
HETATM   10  C   UNL     1     -10.540  15.776  68.959  1.00  0.00    -0.232 C  
HETATM   11  H   UNL     1     -10.392  15.700  67.035  1.00  0.00     0.000 HD 
HETATM   12  O   UNL     1     -10.948  16.145  67.664  1.00  0.00    -0.324 OA 
BRANCH  10  13
HETATM   13  C   UNL     1     -10.587  14.227  69.079  1.00  0.00    -0.232 C  
HETATM   14  H   UNL     1     -11.951  12.848  69.163  1.00  0.00     0.000 HD 
HETATM   15  O   UNL     1     -11.923  13.795  69.090  1.00  0.00    -0.331 OA 
BRANCH  13  16
HETATM   16  C   UNL     1      -9.877  13.517  67.951  1.00  0.00    -0.235 C  
HETATM   17  O   UNL     1      -8.692  13.731  67.750  1.00  0.00    -0.161 OA 
BRANCH  16  18
HETATM   18  O   UNL     1     -10.534  12.654  67.149  1.00  0.00    -0.233 OA 
BRANCH  18  19
HETATM   19 CA   UNL     1      -9.306  10.849  66.104  1.00  0.00    -0.159 Ca 
BRANCH  19  20
HETATM   20  O   UNL     1      -8.079   9.045  65.057  1.00  0.00    -0.122 OA 
BRANCH  20  21
HETATM   21  C   UNL     1      -8.182   7.949  65.828  1.00  0.00    -0.130 C  
HETATM   22  O   UNL     1      -7.655   6.923  65.434  1.00  0.00    -0.083 OA 
BRANCH  21  23
HETATM   23  C   UNL     1      -9.062   7.919  67.057  1.00  0.00    -0.137 C  
HETATM   24  H   UNL     1     -10.907   8.319  67.461  1.00  0.00     0.000 HD 
HETATM   25  O   UNL     1     -10.354   8.338  66.690  1.00  0.00    -0.308 OA 
BRANCH  23  26
HETATM   26  C   UNL     1      -8.559   8.802  68.240  1.00  0.00    -0.134 C  
HETATM   27  H   UNL     1      -7.311  10.266  68.482  1.00  0.00     0.000 HD 
HETATM   28  O   UNL     1      -7.617   9.728  67.762  1.00  0.00    -0.090 OA 
BRANCH  26  29
HETATM   29  C   UNL     1      -9.643   9.547  69.094  1.00  0.00    -0.170 C  
BRANCH  29  30
HETATM   30  O   UNL     1      -9.273   9.371  70.454  1.00  0.00    -0.223 OA 
BRANCH  30  31
HETATM   31  C   UNL     1      -8.563   8.186  70.750  1.00  0.00    -0.134 C  
HETATM   32  O   UNL     1      -7.660   7.882  69.700  1.00  0.00    -0.093 OA 
HETATM   33  C   UNL     1      -6.930   6.700  69.992  1.00  0.00    -0.062 C  
HETATM   34  H   UNL     1     -11.179   6.647  72.003  1.00  0.00     0.000 HD 
HETATM   35  C   UNL     1      -7.882   5.477  70.017  1.00  0.00    -0.082 C  
HETATM   36  O   UNL     1      -8.528   5.329  68.776  1.00  0.00    -0.092 OA 
HETATM   37  C   UNL     1      -8.930   5.701  71.127  1.00  0.00    -0.138 C  
HETATM   38  O   UNL     1     -10.534   7.339  71.917  1.00  0.00    -0.199 OA 
HETATM   39  H   UNL     1      -9.112   4.579  68.792  1.00  0.00     0.000 HD 
HETATM   40  O   UNL     1      -9.901   4.684  71.137  1.00  0.00    -0.169 OA 
HETATM   41  C   UNL     1      -9.615   7.057  70.889  1.00  0.00    -0.167 C  
HETATM   42  H   UNL     1     -10.546   4.822  71.821  1.00  0.00     0.000 HD 
BRANCH  33  43
HETATM   43  C   UNL     1      -5.824   6.554  68.935  1.00  0.00    -0.021 C  
HETATM   44  O   UNL     1      -5.577   7.771  68.284  1.00  0.00    -0.030 OA 
HETATM   45  H   UNL     1      -4.894   7.680  67.631  1.00  0.00     0.000 HD 
ENDBRANCH  33  43
ENDBRANCH  30  31
ENDBRANCH  29  30
BRANCH  29  46
HETATM   46  C   UNL     1     -11.132   9.128  68.829  1.00  0.00     0.143 C  
HETATM   47  O   UNL     1     -11.482   9.332  67.480  1.00  0.00    -0.090 OA 
HETATM   48  H   UNL     1     -12.383   9.079  67.320  1.00  0.00     0.000 HD 
BRANCH  46  49
HETATM   49  C   UNL     1     -12.167   9.741  69.801  1.00  0.00     0.401 C  
HETATM   50  H   UNL     1     -13.365  11.284  69.856  1.00  0.00     0.000 HD 
HETATM   51  O   UNL     1     -12.730  10.907  69.259  1.00  0.00    -0.282 OA 
ENDBRANCH  46  49
ENDBRANCH  29  46
ENDBRANCH  26  29
ENDBRANCH  23  26
ENDBRANCH  21  23
ENDBRANCH  20  21
ENDBRANCH  19  20
ENDBRANCH  18  19
ENDBRANCH  16  18
ENDBRANCH  13  16
ENDBRANCH  10  13
ENDBRANCH   7  10
ENDBRANCH   4   7
ENDBRANCH   2   4
TORSDOF 17
ENDMDL
MODEL      431
REMARK 921   NORMALIZED FREE ENERGY PREDICTED BY IDOCK:    2.93 KCAL/MOL
REMARK 922        TOTAL FREE ENERGY PREDICTED BY IDOCK:    2.41 KCAL/MOL
REMARK 923 INTER-LIGAND FREE ENERGY PREDICTED BY IDOCK:   -3.04 KCAL/MOL
REMARK 924 INTRA-LIGAND FREE ENERGY PREDICTED BY IDOCK:    5.45 KCAL/MOL
REMARK 927      BINDING AFFINITY PREDICTED BY RF-SCORE:    0.00 PKD
ROOT
HETATM    1  O   UNL     1     -11.622  17.312  72.902  1.00  0.00    -0.027 OA 
HETATM    2  C   UNL     1     -11.051  16.104  72.479  1.00  0.00     0.945 C  
HETATM    3  H   UNL     1     -11.178  17.619  73.684  1.00  0.00     0.000 HD 
ENDROOT
BRANCH   2   4
HETATM    4  C   UNL     1     -11.769  15.608  71.213  1.00  0.00    -0.422 C  
HETATM    5  O   UNL     1     -13.157  15.602  71.438  1.00  0.00    -0.479 OA 
HETATM    6  H   UNL     1     -13.600  15.295  70.656  1.00  0.00     0.000 HD 
BRANCH   4   7
HETATM    7  C   UNL     1     -11.448  16.503  69.987  1.00  0.00     0.064 C  
HETATM    8  H   UNL     1     -10.608  18.227  69.664  1.00  0.00     0.000 HD 
HETATM    9  O   UNL     1     -10.805  17.679  70.415  1.00  0.00     0.722 OA 
BRANCH   7  10
HETATM   10  C   UNL     1     -10.540  15.776  68.959  1.00  0.00    -0.232 C  
HETATM   11  H   UNL     1     -10.392  15.700  67.035  1.00  0.00     0.000 HD 
HETATM   12  O   UNL     1     -10.948  16.145  67.664  1.00  0.00    -0.324 OA 
BRANCH  10  13
HETATM   13  C   UNL     1     -10.587  14.227  69.079  1.00  0.00    -0.232 C  
HETATM   14  H   UNL     1     -11.951  12.848  69.163  1.00  0.00     0.000 HD 
HETATM   15  O   UNL     1     -11.923  13.795  69.090  1.00  0.00    -0.331 OA 
BRANCH  13  16
HETATM   16  C   UNL     1      -9.877  13.517  67.951  1.00  0.00    -0.235 C  
HETATM   17  O   UNL     1      -8.692  13.731  67.750  1.00  0.00    -0.161 OA 
BRANCH  16  18
HETATM   18  O   UNL     1     -10.534  12.654  67.149  1.00  0.00    -0.233 OA 
BRANCH  18  19
HETATM   19 CA   UNL     1      -9.306  10.849  66.104  1.00  0.00    -0.159 Ca 
BRANCH  19  20
HETATM   20  O   UNL     1      -8.079   9.045  65.057  1.00  0.00    -0.122 OA 
BRANCH  20  21
HETATM   21  C   UNL     1      -8.182   7.949  65.828  1.00  0.00    -0.130 C  
HETATM   22  O   UNL     1      -7.655   6.923  65.434  1.00  0.00    -0.083 OA 
BRANCH  21  23
HETATM   23  C   UNL     1      -9.062   7.919  67.057  1.00  0.00    -0.137 C  
HETATM   24  H   UNL     1     -10.907   8.319  67.461  1.00  0.00     0.000 HD 
HETATM   25  O   UNL     1     -10.354   8.338  66.690  1.00  0.00    -0.308 OA 
BRANCH  23  26
HETATM   26  C   UNL     1      -8.559   8.802  68.240  1.00  0.00    -0.134 C  
HETATM   27  H   UNL     1      -7.311  10.266  68.482  1.00  0.00     0.000 HD 
HETATM   28  O   UNL     1      -7.617   9.728  67.762  1.00  0.00    -0.090 OA 
BRANCH  26  29
HETATM   29  C   UNL     1      -9.643   9.547  69.094  1.00  0.00    -0.170 C  
BRANCH  29  30
HETATM   30  O   UNL     1      -9.273   9.371  70.454  1.00  0.00    -0.223 OA 
BRANCH  30  31
HETATM   31  C   UNL     1      -7.884   9.343  70.715  1.00  0.00    -0.118 C  
HETATM   32  O   UNL     1      -7.213  10.279  69.887  1.00  0.00    -0.132 OA 
HETATM   33  C   UNL     1      -5.818  10.272  70.150  1.00  0.00    -0.064 C  
HETATM   34  H   UNL     1      -7.758   6.075  70.998  1.00  0.00     0.000 HD 
HETATM   35  C   UNL     1      -5.203   8.912  69.730  1.00  0.00    -0.030 C  
HETATM   36  O   UNL     1      -5.420   8.674  68.361  1.00  0.00    -0.036 OA 
HETATM   37  C   UNL     1      -5.872   7.800  70.565  1.00  0.00    -0.030 C  
HETATM   38  O   UNL     1      -8.057   6.955  71.193  1.00  0.00    -0.108 OA 
HETATM   39  H   UNL     1      -5.043   7.840  68.104  1.00  0.00     0.000 HD 
HETATM   40  O   UNL     1      -5.448   6.522  70.162  1.00  0.00    -0.014 OA 
HETATM   41  C   UNL     1      -7.397   7.907  70.395  1.00  0.00    -0.068 C  
HETATM   42  H   UNL     1      -5.859   5.837  70.676  1.00  0.00     0.000 HD 
BRANCH  33  43
HETATM   43  C   UNL     1      -5.188  11.452  69.393  1.00  0.00    -0.044 C  
HETATM   44  O   UNL     1      -6.154  12.404  69.038  1.00  0.00    -0.066 OA 
HETATM   45  H   UNL     1      -5.765  13.133  68.570  1.00  0.00     0.000 HD 
ENDBRANCH  33  43
ENDBRANCH  30  31
ENDBRANCH  29  30
BRANCH  29  46
HETATM   46  C   UNL     1     -11.132   9.128  68.829  1.00  0.00     0.143 C  
HETATM   47  O   UNL     1     -11.482   9.332  67.480  1.00  0.00    -0.090 OA 
HETATM   48  H   UNL     1     -12.383   9.079  67.320  1.00  0.00     0.000 HD 
BRANCH  46  49
HETATM   49  C   UNL     1     -12.167   9.741  69.801  1.00  0.00     0.401 C  
HETATM   50  H   UNL     1     -13.365  11.284  69.856  1.00  0.00     0.000 HD 
HETATM   51  O   UNL     1     -12.730  10.907  69.259  1.00  0.00    -0.282 OA 
ENDBRANCH  46  49
ENDBRANCH  29  46
ENDBRANCH  26  29
ENDBRANCH  23  26
ENDBRANCH  21  23
ENDBRANCH  20  21
ENDBRANCH  19  20
ENDBRANCH  18  19
ENDBRANCH  16  18
ENDBRANCH  13  16
ENDBRANCH  10  13
ENDBRANCH   7  10
ENDBRANCH   4   7
ENDBRANCH   2   4
TORSDOF 17
ENDMDL
MODEL      432
REMARK 921   NORMALIZED FREE ENERGY PREDICTED BY IDOCK:    3.12 KCAL/MOL
REMARK 922        TOTAL FREE ENERGY PREDICTED BY IDOCK:    2.78 KCAL/MOL
REMARK 923 INTER-LIGAND FREE ENERGY PREDICTED BY IDOCK:   -1.95 KCAL/MOL
REMARK 924 INTRA-LIGAND FREE ENERGY PREDICTED BY IDOCK:    4.73 KCAL/MOL
REMARK 927      BINDING AFFINITY PREDICTED BY RF-SCORE:    0.00 PKD
ROOT
HETATM    1  O   UNL     1     -13.189  10.445  69.144  1.00  0.00     0.200 OA 
HETATM    2  C   UNL     1     -11.929  10.375  68.534  1.00  0.00     0.372 C  
HETATM    3  H   UNL     1     -13.543   9.569  69.249  1.00  0.00     0.000 HD 
ENDROOT
BRANCH   2   4
HETATM    4  C   UNL     1     -11.357  11.793  68.364  1.00  0.00    -0.270 C  
HETATM    5  O   UNL     1     -10.365  12.013  69.336  1.00  0.00    -0.420 OA 
HETATM    6  H   UNL     1     -10.012  12.888  69.231  1.00  0.00     0.000 HD 
BRANCH   4   7
HETATM    7  C   UNL     1     -10.750  11.997  66.951  1.00  0.00    -0.244 C  
HETATM    8  H   UNL     1     -10.493  13.474  65.713  1.00  0.00     0.000 HD 
HETATM    9  O   UNL     1     -10.864  13.349  66.578  1.00  0.00    -0.280 OA 
BRANCH   7  10
HETATM   10  C   UNL     1      -9.256  11.582  66.896  1.00  0.00    -0.176 C  
HETATM   11  H   UNL     1      -7.628  12.322  66.165  1.00  0.00     0.000 HD 
HETATM   12  O   UNL     1      -8.543  12.576  66.199  1.00  0.00     0.124 OA 
BRANCH  10  13
HETATM   13  C   UNL     1      -9.020  10.213  66.200  1.00  0.00    -0.150 C  
HETATM   14  H   UNL     1      -9.522   8.361  66.499  1.00  0.00     0.000 HD 
HETATM   15  O   UNL     1      -9.666   9.198  66.924  1.00  0.00    -0.166 OA 
BRANCH  13  16
HETATM   16  C   UNL     1      -9.528  10.166  64.779  1.00  0.00    -0.295 C  
HETATM   17  O   UNL     1      -9.125   9.298  64.020  1.00  0.00    -0.154 OA 
BRANCH  16  18
HETATM   18  O   UNL     1     -10.415  11.075  64.326  1.00  0.00    -0.338 OA 
BRANCH  18  19
HETATM   19 CA   UNL     1     -10.015  13.424  64.750  1.00  0.00    -0.286 Ca 
BRANCH  19  20
HETATM   20  O   UNL     1      -9.614  15.772  65.175  1.00  0.00    -0.275 OA 
BRANCH  20  21
HETATM   21  C   UNL     1     -10.797  16.388  65.348  1.00  0.00    -0.239 C  
HETATM   22  O   UNL     1     -11.293  16.951  64.387  1.00  0.00    -1.133 OA 
BRANCH  21  23
HETATM   23  C   UNL     1     -11.423  16.541  66.716  1.00  0.00     0.698 C  
HETATM   24  H   UNL     1     -13.002  17.382  67.440  1.00  0.00     0.000 HD 
HETATM   25  O   UNL     1     -12.609  17.286  66.581  1.00  0.00     4.486 OA 
BRANCH  23  26
HETATM   26  C   UNL     1     -10.510  17.226  67.776  1.00  0.00    -0.371 C  
HETATM   27  H   UNL     1     -10.225  19.022  68.452  1.00  0.00     0.000 HD 
HETATM   28  O   UNL     1     -10.782  18.604  67.805  1.00  0.00    -0.409 OA 
BRANCH  26  29
HETATM   29  C   UNL     1     -10.544  16.652  69.235  1.00  0.00    -0.343 C  
BRANCH  29  30
HETATM   30  O   UNL     1      -9.223  16.769  69.744  1.00  0.00     0.303 OA 
BRANCH  30  31
HETATM   31  C   UNL     1      -8.317  17.498  68.942  1.00  0.00    -0.147 C  
HETATM   32  O   UNL     1      -8.873  18.758  68.601  1.00  0.00    -0.335 OA 
HETATM   33  C   UNL     1      -7.966  19.508  67.808  1.00  0.00    -0.294 C  
HETATM   34  H   UNL     1      -7.389  14.884  67.186  1.00  0.00     0.000 HD 
HETATM   35  C   UNL     1      -7.762  18.818  66.434  1.00  0.00    -0.269 C  
HETATM   36  O   UNL     1      -8.988  18.700  65.754  1.00  0.00    -0.405 OA 
HETATM   37  C   UNL     1      -7.166  17.417  66.680  1.00  0.00    -0.240 C  
HETATM   38  O   UNL     1      -7.537  15.398  67.971  1.00  0.00    -0.116 OA 
HETATM   39  H   UNL     1      -8.863  18.278  64.912  1.00  0.00     0.000 HD 
HETATM   40  O   UNL     1      -7.057  16.682  65.485  1.00  0.00     0.831 OA 
HETATM   41  C   UNL     1      -8.076  16.660  67.661  1.00  0.00    -0.171 C  
HETATM   42  H   UNL     1      -6.689  15.819  65.637  1.00  0.00     0.000 HD 
BRANCH  33  43
HETATM   43  C   UNL     1      -8.528  20.931  67.664  1.00  0.00     0.073 C  
HETATM   44  O   UNL     1      -9.899  20.969  67.955  1.00  0.00    -0.130 OA 
HETATM   45  H   UNL     1     -10.246  21.848  67.867  1.00  0.00     0.000 HD 
ENDBRANCH  33  43
ENDBRANCH  30  31
ENDBRANCH  29  30
BRANCH  29  46
HETATM   46  C   UNL     1     -11.109  15.196  69.387  1.00  0.00    -0.276 C  
HETATM   47  O   UNL     1     -12.250  15.010  68.581  1.00  0.00    -0.570 OA 
HETATM   48  H   UNL     1     -12.591  14.129  68.673  1.00  0.00     0.000 HD 
BRANCH  46  49
HETATM   49  C   UNL     1     -11.339  14.732  70.843  1.00  0.00    -0.162 C  
HETATM   50  H   UNL     1     -12.146  15.437  72.478  1.00  0.00     0.000 HD 
HETATM   51  O   UNL     1     -12.004  15.722  71.583  1.00  0.00    -0.368 OA 
ENDBRANCH  46  49
ENDBRANCH  29  46
ENDBRANCH  26  29
ENDBRANCH  23  26
ENDBRANCH  21  23
ENDBRANCH  20  21
ENDBRANCH  19  20
ENDBRANCH  18  19
ENDBRANCH  16  18
ENDBRANCH  13  16
ENDBRANCH  10  13
ENDBRANCH   7  10
ENDBRANCH   4   7
ENDBRANCH   2   4
TORSDOF 17
ENDMDL
MODEL      433
REMARK 921   NORMALIZED FREE ENERGY PREDICTED BY IDOCK:    3.23 KCAL/MOL
REMARK 922        TOTAL FREE ENERGY PREDICTED BY IDOCK:    3.01 KCAL/MOL
REMARK 923 INTER-LIGAND FREE ENERGY PREDICTED BY IDOCK:   -0.57 KCAL/MOL
REMARK 924 INTRA-LIGAND FREE ENERGY PREDICTED BY IDOCK:    3.58 KCAL/MOL
REMARK 927      BINDING AFFINITY PREDICTED BY RF-SCORE:    0.00 PKD
ROOT
HETATM    1  O   UNL     1      -5.480   9.995  68.460  1.00  0.00    -0.039 OA 
HETATM    2  C   UNL     1      -6.610   9.239  68.799  1.00  0.00    -0.052 C  
HETATM    3  H   UNL     1      -4.699   9.571  68.795  1.00  0.00     0.000 HD 
ENDROOT
BRANCH   2   4
HETATM    4  C   UNL     1      -7.875   9.926  68.257  1.00  0.00    -0.085 C  
HETATM    5  O   UNL     1      -8.298  10.908  69.170  1.00  0.00    -0.260 OA 
HETATM    6  H   UNL     1      -9.080  11.332  68.835  1.00  0.00     0.000 HD 
BRANCH   4   7
HETATM    7  C   UNL     1      -7.619  10.583  66.875  1.00  0.00    -0.110 C  
HETATM    8  H   UNL     1      -7.000  10.014  65.121  1.00  0.00     0.000 HD 
HETATM    9  O   UNL     1      -7.157   9.611  65.968  1.00  0.00    -0.092 OA 
BRANCH   7  10
HETATM   10  C   UNL     1      -8.900  11.242  66.299  1.00  0.00    -0.191 C  
HETATM   11  H   UNL     1      -9.357  12.272  64.730  1.00  0.00     0.000 HD 
HETATM   12  O   UNL     1      -8.572  11.868  65.082  1.00  0.00     0.465 OA 
BRANCH  10  13
HETATM   13  C   UNL     1      -9.535  12.295  67.250  1.00  0.00    -0.186 C  
HETATM   14  H   UNL     1     -10.775  12.296  68.745  1.00  0.00     0.000 HD 
HETATM   15  O   UNL     1     -10.388  11.653  68.163  1.00  0.00    -0.182 OA 
BRANCH  13  16
HETATM   16  C   UNL     1      -8.516  13.081  68.041  1.00  0.00    -0.181 C  
HETATM   17  O   UNL     1      -7.929  14.014  67.514  1.00  0.00    -0.162 OA 
BRANCH  16  18
HETATM   18  O   UNL     1      -8.231  12.764  69.320  1.00  0.00     0.455 OA 
BRANCH  18  19
HETATM   19 CA   UNL     1      -9.015  10.657  70.215  1.00  0.00    -0.360 Ca 
BRANCH  19  20
HETATM   20  O   UNL     1      -9.799   8.549  71.109  1.00  0.00    -0.180 OA 
BRANCH  20  21
HETATM   21  C   UNL     1     -10.292   7.809  70.102  1.00  0.00    -0.218 C  
HETATM   22  O   UNL     1     -11.429   8.039  69.728  1.00  0.00     0.026 OA 
BRANCH  21  23
HETATM   23  C   UNL     1      -9.547   6.613  69.553  1.00  0.00    -0.146 C  
HETATM   24  H   UNL     1      -8.827   6.083  67.842  1.00  0.00     0.000 HD 
HETATM   25  O   UNL     1      -9.295   6.834  68.187  1.00  0.00    -0.125 OA 
BRANCH  23  26
HETATM   26  C   UNL     1     -10.290   5.252  69.719  1.00  0.00    -0.299 C  
HETATM   27  H   UNL     1     -11.895   4.420  69.017  1.00  0.00     0.000 HD 
HETATM   28  O   UNL     1     -11.442   5.250  68.916  1.00  0.00     1.079 OA 
BRANCH  26  29
HETATM   29  C   UNL     1      -9.464   3.945  69.458  1.00  0.00    -0.189 C  
BRANCH  29  30
HETATM   30  O   UNL     1     -10.004   3.356  68.284  1.00  0.00     0.073 OA 
BRANCH  30  31
HETATM   31  C   UNL     1      -9.103   3.193  67.207  1.00  0.00    -0.174 C  
HETATM   32  O   UNL     1      -7.794   3.564  67.607  1.00  0.00    -0.076 OA 
HETATM   33  C   UNL     1      -6.876   3.390  66.539  1.00  0.00    -0.053 C  
HETATM   34  H   UNL     1     -11.198   4.354  64.962  1.00  0.00     0.000 HD 
HETATM   35  C   UNL     1      -7.198   4.382  65.391  1.00  0.00    -0.068 C  
HETATM   36  O   UNL     1      -7.131   5.709  65.852  1.00  0.00    -0.064 OA 
HETATM   37  C   UNL     1      -8.622   4.081  64.877  1.00  0.00    -0.115 C  
HETATM   38  O   UNL     1     -10.898   3.786  65.661  1.00  0.00     0.516 OA 
HETATM   39  H   UNL     1      -7.329   6.316  65.149  1.00  0.00     0.000 HD 
HETATM   40  O   UNL     1      -9.033   5.014  63.909  1.00  0.00    -0.300 OA 
HETATM   41  C   UNL     1      -9.594   4.122  66.068  1.00  0.00    -0.194 C  
HETATM   42  H   UNL     1      -9.909   4.829  63.592  1.00  0.00     0.000 HD 
BRANCH  33  43
HETATM   43  C   UNL     1      -5.458   3.590  67.096  1.00  0.00    -0.020 C  
HETATM   44  O   UNL     1      -5.216   4.937  67.402  1.00  0.00    -0.007 OA 
HETATM   45  H   UNL     1      -4.340   5.061  67.747  1.00  0.00     0.000 HD 
ENDBRANCH  33  43
ENDBRANCH  30  31
ENDBRANCH  29  30
BRANCH  29  46
HETATM   46  C   UNL     1      -9.397   2.927  70.651  1.00  0.00    -0.150 C  
HETATM   47  O   UNL     1     -10.671   2.401  70.939  1.00  0.00     1.306 OA 
HETATM   48  H   UNL     1     -10.630   1.785  71.660  1.00  0.00     0.000 HD 
BRANCH  46  49
HETATM   49  C   UNL     1      -8.680   3.449  71.917  1.00  0.00    -0.089 C  
HETATM   50  H   UNL     1      -9.135   4.462  73.526  1.00  0.00     0.000 HD 
HETATM   51  O   UNL     1      -9.575   4.140  72.748  1.00  0.00    -0.122 OA 
ENDBRANCH  46  49
ENDBRANCH  29  46
ENDBRANCH  26  29
ENDBRANCH  23  26
ENDBRANCH  21  23
ENDBRANCH  20  21
ENDBRANCH  19  20
ENDBRANCH  18  19
ENDBRANCH  16  18
ENDBRANCH  13  16
ENDBRANCH  10  13
ENDBRANCH   7  10
ENDBRANCH   4   7
ENDBRANCH   2   4
TORSDOF 17
ENDMDL
MODEL      434
REMARK 921   NORMALIZED FREE ENERGY PREDICTED BY IDOCK:    5.17 KCAL/MOL
REMARK 922        TOTAL FREE ENERGY PREDICTED BY IDOCK:    6.86 KCAL/MOL
REMARK 923 INTER-LIGAND FREE ENERGY PREDICTED BY IDOCK:    5.66 KCAL/MOL
REMARK 924 INTRA-LIGAND FREE ENERGY PREDICTED BY IDOCK:    1.20 KCAL/MOL
REMARK 927      BINDING AFFINITY PREDICTED BY RF-SCORE:    0.00 PKD
ROOT
HETATM    1  O   UNL     1     -13.288  13.357  69.721  1.00  0.00     0.758 OA 
HETATM    2  C   UNL     1     -12.425  12.646  68.876  1.00  0.00     0.477 C  
HETATM    3  H   UNL     1     -13.222  14.286  69.537  1.00  0.00     0.000 HD 
ENDROOT
BRANCH   2   4
HETATM    4  C   UNL     1     -12.532  11.141  69.174  1.00  0.00     0.150 C  
HETATM    5  O   UNL     1     -12.706  10.440  67.968  1.00  0.00     1.501 OA 
HETATM    6  H   UNL     1     -12.772   9.510  68.152  1.00  0.00     0.000 HD 
BRANCH   4   7
HETATM    7  C   UNL     1     -11.268  10.612  69.902  1.00  0.00    -0.308 C  
HETATM    8  H   UNL     1     -10.467  10.779  71.666  1.00  0.00     0.000 HD 
HETATM    9  O   UNL     1     -11.242  11.102  71.221  1.00  0.00     0.891 OA 
BRANCH   7  10
HETATM   10  C   UNL     1     -11.226   9.061  69.939  1.00  0.00    -0.079 C  
HETATM   11  H   UNL     1     -11.598   7.685  71.243  1.00  0.00     0.000 HD 
HETATM   12  O   UNL     1     -11.624   8.635  71.220  1.00  0.00    -0.264 OA 
BRANCH  10  13
HETATM   13  C   UNL     1      -9.822   8.473  69.627  1.00  0.00    -0.183 C  
HETATM   14  H   UNL     1      -8.846   7.880  68.057  1.00  0.00     0.000 HD 
HETATM   15  O   UNL     1      -9.704   8.240  68.247  1.00  0.00    -0.151 OA 
BRANCH  13  16
HETATM   16  C   UNL     1      -8.687   9.377  70.044  1.00  0.00    -0.210 C  
HETATM   17  O   UNL     1      -7.930   9.828  69.198  1.00  0.00    -0.091 OA 
BRANCH  16  18
HETATM   18  O   UNL     1      -8.484   9.689  71.340  1.00  0.00    -0.087 OA 
BRANCH  18  19
HETATM   19 CA   UNL     1      -7.872  11.956  71.925  1.00  0.00     5.053 Ca 
BRANCH  19  20
HETATM   20  O   UNL     1      -7.261  14.223  72.511  1.00  0.00     2.203 OA 
BRANCH  20  21
HETATM   21  C   UNL     1      -5.971  14.419  72.189  1.00  0.00     0.239 C  
HETATM   22  O   UNL     1      -5.136  14.281  73.067  1.00  0.00    -0.234 OA 
BRANCH  21  23
HETATM   23  C   UNL     1      -5.561  14.964  70.839  1.00  0.00    -0.118 C  
HETATM   24  H   UNL     1      -5.342  16.711  70.049  1.00  0.00     0.000 HD 
HETATM   25  O   UNL     1      -5.600  16.369  70.896  1.00  0.00    -0.067 OA 
BRANCH  23  26
HETATM   26  C   UNL     1      -6.440  14.479  69.647  1.00  0.00    -0.148 C  
HETATM   27  H   UNL     1      -8.109  15.007  68.812  1.00  0.00     0.000 HD 
HETATM   28  O   UNL     1      -7.573  15.303  69.539  1.00  0.00    -0.211 OA 
BRANCH  26  29
HETATM   29  C   UNL     1      -5.747  14.350  68.247  1.00  0.00    -0.118 C  
BRANCH  29  30
HETATM   30  O   UNL     1      -5.583  15.674  67.757  1.00  0.00    -0.131 OA 
BRANCH  30  31
HETATM   31  C   UNL     1      -6.687  16.537  67.935  1.00  0.00    -0.140 C  
HETATM   32  O   UNL     1      -7.578  16.422  66.838  1.00  0.00    -0.189 OA 
HETATM   33  C   UNL     1      -8.701  17.273  67.011  1.00  0.00    -0.231 C  
HETATM   34  H   UNL     1      -4.876  19.001  69.129  1.00  0.00     0.000 HD 
HETATM   35  C   UNL     1      -8.256  18.758  66.961  1.00  0.00    -0.264 C  
HETATM   36  O   UNL     1      -7.637  19.047  65.731  1.00  0.00    -0.439 OA 
HETATM   37  C   UNL     1      -7.262  19.004  68.116  1.00  0.00    -0.260 C  
HETATM   38  O   UNL     1      -5.222  18.119  69.083  1.00  0.00    -0.180 OA 
HETATM   39  H   UNL     1      -7.365  19.957  65.702  1.00  0.00     0.000 HD 
HETATM   40  O   UNL     1      -6.725  20.303  68.069  1.00  0.00    -0.270 OA 
HETATM   41  C   UNL     1      -6.122  17.978  68.010  1.00  0.00    -0.167 C  
HETATM   42  H   UNL     1      -6.113  20.455  68.780  1.00  0.00     0.000 HD 
BRANCH  33  43
HETATM   43  C   UNL     1      -9.723  16.937  65.914  1.00  0.00    -0.176 C  
HETATM   44  O   UNL     1     -10.530  18.044  65.613  1.00  0.00    -0.619 OA 
HETATM   45  H   UNL     1     -11.161  17.836  64.936  1.00  0.00     0.000 HD 
ENDBRANCH  33  43
ENDBRANCH  30  31
ENDBRANCH  29  30
BRANCH  29  46
HETATM   46  C   UNL     1      -6.468  13.422  67.207  1.00  0.00     0.188 C  
HETATM   47  O   UNL     1      -7.741  13.927  66.877  1.00  0.00    -0.338 OA 
HETATM   48  H   UNL     1      -8.178  13.366  66.248  1.00  0.00     0.000 HD 
BRANCH  46  49
HETATM   49  C   UNL     1      -6.514  11.924  67.587  1.00  0.00    -0.089 C  
HETATM   50  H   UNL     1      -5.244  10.486  67.964  1.00  0.00     0.000 HD 
HETATM   51  O   UNL     1      -5.217  11.407  67.731  1.00  0.00    -0.043 OA 
ENDBRANCH  46  49
ENDBRANCH  29  46
ENDBRANCH  26  29
ENDBRANCH  23  26
ENDBRANCH  21  23
ENDBRANCH  20  21
ENDBRANCH  19  20
ENDBRANCH  18  19
ENDBRANCH  16  18
ENDBRANCH  13  16
ENDBRANCH  10  13
ENDBRANCH   7  10
ENDBRANCH   4   7
ENDBRANCH   2   4
TORSDOF 17
ENDMDL
MODEL      435
REMARK 921   NORMALIZED FREE ENERGY PREDICTED BY IDOCK:    5.59 KCAL/MOL
REMARK 922        TOTAL FREE ENERGY PREDICTED BY IDOCK:    7.70 KCAL/MOL
REMARK 923 INTER-LIGAND FREE ENERGY PREDICTED BY IDOCK:    1.01 KCAL/MOL
REMARK 924 INTRA-LIGAND FREE ENERGY PREDICTED BY IDOCK:    6.70 KCAL/MOL
REMARK 927      BINDING AFFINITY PREDICTED BY RF-SCORE:    0.00 PKD
ROOT
HETATM    1  O   UNL     1      -5.530  10.055  68.605  1.00  0.00    -0.039 OA 
HETATM    2  C   UNL     1      -6.760   9.711  69.183  1.00  0.00    -0.049 C  
HETATM    3  H   UNL     1      -4.886   9.384  68.799  1.00  0.00     0.000 HD 
ENDROOT
BRANCH   2   4
HETATM    4  C   UNL     1      -7.801  10.799  68.869  1.00  0.00    -0.136 C  
HETATM    5  O   UNL     1      -7.685  11.839  69.808  1.00  0.00    -0.054 OA 
HETATM    6  H   UNL     1      -8.328  12.510  69.614  1.00  0.00     0.000 HD 
BRANCH   4   7
HETATM    7  C   UNL     1      -7.615  11.371  67.439  1.00  0.00    -0.124 C  
HETATM    8  H   UNL     1      -7.702  10.701  65.615  1.00  0.00     0.000 HD 
HETATM    9  O   UNL     1      -7.816  10.350  66.491  1.00  0.00    -0.115 OA 
BRANCH   7  10
HETATM   10  C   UNL     1      -8.600  12.533  67.146  1.00  0.00    -0.200 C  
HETATM   11  H   UNL     1      -8.885  13.794  65.711  1.00  0.00     0.000 HD 
HETATM   12  O   UNL     1      -8.282  13.082  65.890  1.00  0.00     1.127 OA 
BRANCH  10  13
HETATM   13  C   UNL     1      -8.560  13.662  68.213  1.00  0.00    -0.170 C  
HETATM   14  H   UNL     1      -9.281  13.965  69.990  1.00  0.00     0.000 HD 
HETATM   15  O   UNL     1      -9.306  13.275  69.338  1.00  0.00     0.669 OA 
BRANCH  13  16
HETATM   16  C   UNL     1      -7.163  14.001  68.676  1.00  0.00    -0.114 C  
HETATM   17  O   UNL     1      -6.473  14.761  68.014  1.00  0.00    -0.123 OA 
BRANCH  16  18
HETATM   18  O   UNL     1      -6.655  13.468  69.805  1.00  0.00    -0.089 OA 
BRANCH  18  19
HETATM   19 CA   UNL     1      -7.756  11.559  70.807  1.00  0.00     0.340 Ca 
BRANCH  19  20
HETATM   20  O   UNL     1      -8.856   9.651  71.808  1.00  0.00     0.183 OA 
BRANCH  20  21
HETATM   21  C   UNL     1      -9.689   9.109  70.903  1.00  0.00    -0.284 C  
HETATM   22  O   UNL     1     -10.825   9.548  70.838  1.00  0.00    -0.285 OA 
BRANCH  21  23
HETATM   23  C   UNL     1      -9.310   7.881  70.106  1.00  0.00    -0.156 C  
HETATM   24  H   UNL     1      -9.023   7.462  68.243  1.00  0.00     0.000 HD 
HETATM   25  O   UNL     1      -9.261   8.233  68.744  1.00  0.00    -0.144 OA 
BRANCH  23  26
HETATM   26  C   UNL     1     -10.272   6.668  70.283  1.00  0.00    -0.188 C  
HETATM   27  H   UNL     1     -10.672   5.026  69.331  1.00  0.00     0.000 HD 
HETATM   28  O   UNL     1     -10.085   5.766  69.222  1.00  0.00    -0.172 OA 
BRANCH  26  29
HETATM   29  C   UNL     1     -10.214   5.896  71.646  1.00  0.00    -0.202 C  
BRANCH  29  30
HETATM   30  O   UNL     1      -9.629   4.632  71.367  1.00  0.00    -0.148 OA 
BRANCH  30  31
HETATM   31  C   UNL     1      -8.294   4.462  71.801  1.00  0.00    -0.106 C  
HETATM   32  O   UNL     1      -7.821   5.657  72.401  1.00  0.00    -0.101 OA 
HETATM   33  C   UNL     1      -6.486   5.495  72.855  1.00  0.00    -0.065 C  
HETATM   34  H   UNL     1      -7.394   2.752  69.147  1.00  0.00     0.000 HD 
HETATM   35  C   UNL     1      -5.533   5.294  71.649  1.00  0.00    -0.009 C  
HETATM   36  O   UNL     1      -5.598   6.397  70.778  1.00  0.00    -0.018 OA 
HETATM   37  C   UNL     1      -5.962   4.014  70.901  1.00  0.00    -0.014 C  
HETATM   38  O   UNL     1      -7.910   2.956  69.918  1.00  0.00    -0.043 OA 
HETATM   39  H   UNL     1      -5.014   6.273  70.039  1.00  0.00     0.000 HD 
HETATM   40  O   UNL     1      -5.215   3.824  69.725  1.00  0.00    -0.007 OA 
HETATM   41  C   UNL     1      -7.453   4.131  70.543  1.00  0.00    -0.045 C  
HETATM   42  H   UNL     1      -5.479   3.036  69.265  1.00  0.00     0.000 HD 
BRANCH  33  43
HETATM   43  C   UNL     1      -6.116   6.734  73.686  1.00  0.00    -0.063 C  
HETATM   44  O   UNL     1      -5.938   7.860  72.870  1.00  0.00    -0.050 OA 
HETATM   45  H   UNL     1      -5.709   8.625  73.383  1.00  0.00     0.000 HD 
ENDBRANCH  33  43
ENDBRANCH  30  31
ENDBRANCH  29  30
BRANCH  29  46
HETATM   46  C   UNL     1     -11.574   5.759  72.417  1.00  0.00    -0.264 C  
HETATM   47  O   UNL     1     -12.504   5.010  71.670  1.00  0.00     2.004 OA 
HETATM   48  H   UNL     1     -13.327   4.927  72.136  1.00  0.00     0.000 HD 
BRANCH  46  49
HETATM   49  C   UNL     1     -12.172   7.089  72.931  1.00  0.00     0.572 C  
HETATM   50  H   UNL     1     -13.314   8.523  72.251  1.00  0.00     0.000 HD 
HETATM   51  O   UNL     1     -12.946   7.705  71.936  1.00  0.00    -0.312 OA 
ENDBRANCH  46  49
ENDBRANCH  29  46
ENDBRANCH  26  29
ENDBRANCH  23  26
ENDBRANCH  21  23
ENDBRANCH  20  21
ENDBRANCH  19  20
ENDBRANCH  18  19
ENDBRANCH  16  18
ENDBRANCH  13  16
ENDBRANCH  10  13
ENDBRANCH   7  10
ENDBRANCH   4   7
ENDBRANCH   2   4
TORSDOF 17
ENDMDL
MODEL      436
REMARK 921   NORMALIZED FREE ENERGY PREDICTED BY IDOCK:    6.05 KCAL/MOL
REMARK 922        TOTAL FREE ENERGY PREDICTED BY IDOCK:    8.61 KCAL/MOL
REMARK 923 INTER-LIGAND FREE ENERGY PREDICTED BY IDOCK:    5.47 KCAL/MOL
REMARK 924 INTRA-LIGAND FREE ENERGY PREDICTED BY IDOCK:    3.14 KCAL/MOL
REMARK 927      BINDING AFFINITY PREDICTED BY RF-SCORE:    0.00 PKD
ROOT
HETATM    1  O   UNL     1     -11.367  17.720  73.057  1.00  0.00     0.600 OA 
HETATM    2  C   UNL     1     -10.973  16.612  72.296  1.00  0.00     1.655 C  
HETATM    3  H   UNL     1     -10.914  17.712  73.893  1.00  0.00     0.000 HD 
ENDROOT
BRANCH   2   4
HETATM    4  C   UNL     1     -11.706  16.625  70.944  1.00  0.00     0.381 C  
HETATM    5  O   UNL     1     -13.023  17.078  71.134  1.00  0.00     2.815 OA 
HETATM    6  H   UNL     1     -13.476  17.086  70.299  1.00  0.00     0.000 HD 
BRANCH   4   7
HETATM    7  C   UNL     1     -10.989  17.540  69.916  1.00  0.00     1.026 C  
HETATM    8  H   UNL     1      -9.531  18.826  69.928  1.00  0.00     0.000 HD 
HETATM    9  O   UNL     1      -9.969  18.266  70.558  1.00  0.00     1.538 OA 
BRANCH   7  10
HETATM   10  C   UNL     1     -10.371  16.726  68.747  1.00  0.00    -0.318 C  
HETATM   11  H   UNL     1     -10.447  16.776  66.818  1.00  0.00     0.000 HD 
HETATM   12  O   UNL     1     -10.825  17.274  67.533  1.00  0.00    -0.314 OA 
BRANCH  10  13
HETATM   13  C   UNL     1     -10.735  15.216  68.784  1.00  0.00    -0.239 C  
HETATM   14  H   UNL     1     -12.292  14.139  69.217  1.00  0.00     0.000 HD 
HETATM   15  O   UNL     1     -12.069  15.062  69.195  1.00  0.00    -0.288 OA 
BRANCH  13  16
HETATM   16  C   UNL     1     -10.578  14.528  67.449  1.00  0.00    -0.271 C  
HETATM   17  O   UNL     1      -9.523  14.621  66.841  1.00  0.00    -0.226 OA 
BRANCH  16  18
HETATM   18  O   UNL     1     -11.588  13.819  66.908  1.00  0.00    -0.333 OA 
BRANCH  18  19
HETATM   19 CA   UNL     1     -11.073  11.976  65.425  1.00  0.00    -0.264 Ca 
BRANCH  19  20
HETATM   20  O   UNL     1     -10.560  10.134  63.943  1.00  0.00     0.531 OA 
BRANCH  20  21
HETATM   21  C   UNL     1      -9.796   9.247  64.605  1.00  0.00     0.736 C  
HETATM   22  O   UNL     1      -9.067   8.521  63.951  1.00  0.00     0.379 OA 
BRANCH  21  23
HETATM   23  C   UNL     1      -9.949   9.018  66.092  1.00  0.00    -0.241 C  
HETATM   24  H   UNL     1     -11.356   8.428  67.275  1.00  0.00     0.000 HD 
HETATM   25  O   UNL     1     -11.260   8.572  66.341  1.00  0.00     1.031 OA 
BRANCH  23  26
HETATM   26  C   UNL     1      -9.661  10.269  66.976  1.00  0.00    -0.171 C  
HETATM   27  H   UNL     1     -10.442  12.023  67.245  1.00  0.00     0.000 HD 
HETATM   28  O   UNL     1     -10.618  11.261  66.706  1.00  0.00    -0.237 OA 
BRANCH  26  29
HETATM   29  C   UNL     1      -9.556  10.047  68.525  1.00  0.00    -0.151 C  
BRANCH  29  30
HETATM   30  O   UNL     1      -8.633   8.985  68.717  1.00  0.00    -0.129 OA 
BRANCH  30  31
HETATM   31  C   UNL     1      -8.414   8.150  67.598  1.00  0.00    -0.131 C  
HETATM   32  O   UNL     1      -8.809   6.821  67.896  1.00  0.00    -0.120 OA 
HETATM   33  C   UNL     1      -8.609   5.975  66.774  1.00  0.00    -0.110 C  
HETATM   34  H   UNL     1      -5.542   9.537  66.821  1.00  0.00     0.000 HD 
HETATM   35  C   UNL     1      -7.094   5.842  66.469  1.00  0.00    -0.069 C  
HETATM   36  O   UNL     1      -6.412   5.313  67.580  1.00  0.00    -0.044 OA 
HETATM   37  C   UNL     1      -6.543   7.245  66.139  1.00  0.00    -0.052 C  
HETATM   38  O   UNL     1      -6.472   9.508  67.008  1.00  0.00    -0.065 OA 
HETATM   39  H   UNL     1      -5.484   5.233  67.393  1.00  0.00     0.000 HD 
HETATM   40  O   UNL     1      -5.148   7.226  65.962  1.00  0.00    -0.022 OA 
HETATM   41  C   UNL     1      -6.896   8.197  67.294  1.00  0.00    -0.074 C  
HETATM   42  H   UNL     1      -4.808   8.089  65.758  1.00  0.00     0.000 HD 
BRANCH  33  43
HETATM   43  C   UNL     1      -9.259   4.617  67.084  1.00  0.00    -0.129 C  
HETATM   44  O   UNL     1      -8.517   3.902  68.034  1.00  0.00    -0.091 OA 
HETATM   45  H   UNL     1      -8.918   3.063  68.226  1.00  0.00     0.000 HD 
ENDBRANCH  33  43
ENDBRANCH  30  31
ENDBRANCH  29  30
BRANCH  29  46
HETATM   46  C   UNL     1     -10.911   9.795  69.275  1.00  0.00    -0.193 C  
HETATM   47  O   UNL     1     -11.831  10.830  69.018  1.00  0.00    -0.404 OA 
HETATM   48  H   UNL     1     -12.651  10.677  69.472  1.00  0.00     0.000 HD 
BRANCH  46  49
HETATM   49  C   UNL     1     -10.776   9.493  70.786  1.00  0.00    -0.321 C  
HETATM   50  H   UNL     1     -10.678   7.924  71.947  1.00  0.00     0.000 HD 
HETATM   51  O   UNL     1     -10.760   8.109  71.018  1.00  0.00    -0.212 OA 
ENDBRANCH  46  49
ENDBRANCH  29  46
ENDBRANCH  26  29
ENDBRANCH  23  26
ENDBRANCH  21  23
ENDBRANCH  20  21
ENDBRANCH  19  20
ENDBRANCH  18  19
ENDBRANCH  16  18
ENDBRANCH  13  16
ENDBRANCH  10  13
ENDBRANCH   7  10
ENDBRANCH   4   7
ENDBRANCH   2   4
TORSDOF 17
ENDMDL
MODEL      437
REMARK 921   NORMALIZED FREE ENERGY PREDICTED BY IDOCK:    6.81 KCAL/MOL
REMARK 922        TOTAL FREE ENERGY PREDICTED BY IDOCK:   10.13 KCAL/MOL
REMARK 923 INTER-LIGAND FREE ENERGY PREDICTED BY IDOCK:   -5.96 KCAL/MOL
REMARK 924 INTRA-LIGAND FREE ENERGY PREDICTED BY IDOCK:   16.09 KCAL/MOL
REMARK 927      BINDING AFFINITY PREDICTED BY RF-SCORE:    0.00 PKD
ROOT
HETATM    1  O   UNL     1      -8.894   6.811  64.805  1.00  0.00    -0.336 OA 
HETATM    2  C   UNL     1      -8.302   6.897  66.072  1.00  0.00    -0.134 C  
HETATM    3  H   UNL     1      -8.898   5.907  64.514  1.00  0.00     0.000 HD 
ENDROOT
BRANCH   2   4
HETATM    4  C   UNL     1      -8.296   8.361  66.543  1.00  0.00    -0.111 C  
HETATM    5  O   UNL     1      -8.896   8.444  67.811  1.00  0.00    -0.136 OA 
HETATM    6  H   UNL     1      -8.893   9.348  68.102  1.00  0.00     0.000 HD 
BRANCH   4   7
HETATM    7  C   UNL     1      -6.855   8.931  66.615  1.00  0.00    -0.076 C  
HETATM    8  H   UNL     1      -5.747  10.138  65.567  1.00  0.00     0.000 HD 
HETATM    9  O   UNL     1      -6.629   9.789  65.523  1.00  0.00    -0.076 OA 
BRANCH   7  10
HETATM   10  C   UNL     1      -6.606   9.714  67.932  1.00  0.00    -0.062 C  
HETATM   11  H   UNL     1      -5.116   9.994  69.129  1.00  0.00     0.000 HD 
HETATM   12  O   UNL     1      -5.268   9.515  68.323  1.00  0.00    -0.034 OA 
BRANCH  10  13
HETATM   13  C   UNL     1      -7.539   9.280  69.095  1.00  0.00    -0.073 C  
HETATM   14  H   UNL     1      -8.755   7.813  69.472  1.00  0.00     0.000 HD 
HETATM   15  O   UNL     1      -8.184   8.078  68.761  1.00  0.00    -0.123 OA 
BRANCH  13  16
HETATM   16  C   UNL     1      -6.811   9.068  70.402  1.00  0.00    -0.055 C  
HETATM   17  O   UNL     1      -5.630   9.365  70.491  1.00  0.00    -0.033 OA 
BRANCH  16  18
HETATM   18  O   UNL     1      -7.441   8.545  71.473  1.00  0.00    -0.089 OA 
BRANCH  18  19
HETATM   19 CA   UNL     1      -9.851   8.704  71.618  1.00  0.00    -0.149 Ca 
BRANCH  19  20
HETATM   20  O   UNL     1     -12.262   8.863  71.762  1.00  0.00    -0.314 OA 
BRANCH  20  21
HETATM   21  C   UNL     1     -12.631  10.119  71.457  1.00  0.00    -0.434 C  
HETATM   22  O   UNL     1     -12.964  10.853  72.371  1.00  0.00    -0.165 OA 
BRANCH  21  23
HETATM   23  C   UNL     1     -12.804  10.573  70.025  1.00  0.00     0.023 C  
HETATM   24  H   UNL     1     -12.027  10.124  68.316  1.00  0.00     0.000 HD 
HETATM   25  O   UNL     1     -11.918   9.839  69.215  1.00  0.00     0.255 OA 
BRANCH  23  26
HETATM   26  C   UNL     1     -12.562  12.095  69.792  1.00  0.00     0.280 C  
HETATM   27  H   UNL     1     -12.386  13.685  70.888  1.00  0.00     0.000 HD 
HETATM   28  O   UNL     1     -12.534  12.758  71.031  1.00  0.00    -0.376 OA 
BRANCH  26  29
HETATM   29  C   UNL     1     -11.306  12.504  68.948  1.00  0.00    -0.297 C  
BRANCH  29  30
HETATM   30  O   UNL     1     -11.786  13.290  67.867  1.00  0.00    -0.337 OA 
BRANCH  30  31
HETATM   31  C   UNL     1     -10.847  14.168  67.280  1.00  0.00    -0.285 C  
HETATM   32  O   UNL     1     -10.141  14.872  68.289  1.00  0.00    -0.215 OA 
HETATM   33  C   UNL     1      -9.183  15.747  67.713  1.00  0.00    -0.197 C  
HETATM   34  H   UNL     1     -12.865  15.098  64.864  1.00  0.00     0.000 HD 
HETATM   35  C   UNL     1      -9.897  16.872  66.920  1.00  0.00    -0.276 C  
HETATM   36  O   UNL     1     -10.751  17.606  67.764  1.00  0.00    -0.388 OA 
HETATM   37  C   UNL     1     -10.719  16.219  65.788  1.00  0.00    -0.255 C  
HETATM   38  O   UNL     1     -12.373  14.489  65.401  1.00  0.00    -0.361 OA 
HETATM   39  H   UNL     1     -11.188  18.295  67.277  1.00  0.00     0.000 HD 
HETATM   40  O   UNL     1     -11.488  17.168  65.091  1.00  0.00     0.096 OA 
HETATM   41  C   UNL     1     -11.650  15.162  66.403  1.00  0.00    -0.089 C  
HETATM   42  H   UNL     1     -11.993  16.766  64.395  1.00  0.00     0.000 HD 
BRANCH  33  43
HETATM   43  C   UNL     1      -8.308  16.303  68.847  1.00  0.00    -0.231 C  
HETATM   44  O   UNL     1      -7.326  15.380  69.233  1.00  0.00    -0.163 OA 
HETATM   45  H   UNL     1      -6.785  15.724  69.934  1.00  0.00     0.000 HD 
ENDBRANCH  33  43
ENDBRANCH  30  31
ENDBRANCH  29  30
BRANCH  29  46
HETATM   46  C   UNL     1     -10.394  11.324  68.459  1.00  0.00    -0.203 C  
HETATM   47  O   UNL     1     -10.552  10.190  69.280  1.00  0.00    -0.202 OA 
HETATM   48  H   UNL     1     -10.001   9.476  68.985  1.00  0.00     0.000 HD 
BRANCH  46  49
HETATM   49  C   UNL     1      -8.907  11.690  68.248  1.00  0.00    -0.167 C  
HETATM   50  H   UNL     1      -7.793  13.296  68.269  1.00  0.00     0.000 HD 
HETATM   51  O   UNL     1      -8.707  13.071  68.399  1.00  0.00    -0.172 OA 
ENDBRANCH  46  49
ENDBRANCH  29  46
ENDBRANCH  26  29
ENDBRANCH  23  26
ENDBRANCH  21  23
ENDBRANCH  20  21
ENDBRANCH  19  20
ENDBRANCH  18  19
ENDBRANCH  16  18
ENDBRANCH  13  16
ENDBRANCH  10  13
ENDBRANCH   7  10
ENDBRANCH   4   7
ENDBRANCH   2   4
TORSDOF 17
ENDMDL
MODEL      438
REMARK 921   NORMALIZED FREE ENERGY PREDICTED BY IDOCK:    7.13 KCAL/MOL
REMARK 922        TOTAL FREE ENERGY PREDICTED BY IDOCK:   10.78 KCAL/MOL
REMARK 923 INTER-LIGAND FREE ENERGY PREDICTED BY IDOCK:    3.28 KCAL/MOL
REMARK 924 INTRA-LIGAND FREE ENERGY PREDICTED BY IDOCK:    7.50 KCAL/MOL
REMARK 927      BINDING AFFINITY PREDICTED BY RF-SCORE:    0.00 PKD
ROOT
HETATM    1  O   UNL     1     -13.920  15.672  72.939  1.00  0.00    -0.546 OA 
HETATM    2  C   UNL     1     -13.670  16.633  71.950  1.00  0.00     3.391 C  
HETATM    3  H   UNL     1     -14.614  15.976  73.513  1.00  0.00     0.000 HD 
ENDROOT
BRANCH   2   4
HETATM    4  C   UNL     1     -12.547  16.140  71.022  1.00  0.00     0.201 C  
HETATM    5  O   UNL     1     -11.642  15.359  71.762  1.00  0.00    -0.363 OA 
HETATM    6  H   UNL     1     -10.948  15.055  71.189  1.00  0.00     0.000 HD 
BRANCH   4   7
HETATM    7  C   UNL     1     -13.108  15.303  69.842  1.00  0.00     0.244 C  
HETATM    8  H   UNL     1     -12.396  14.382  68.285  1.00  0.00     0.000 HD 
HETATM    9  O   UNL     1     -12.052  14.894  69.007  1.00  0.00    -0.282 OA 
BRANCH   7  10
HETATM   10  C   UNL     1     -13.876  14.048  70.336  1.00  0.00     1.176 C  
HETATM   11  H   UNL     1     -14.764  13.505  71.963  1.00  0.00     0.000 HD 
HETATM   12  O   UNL     1     -14.293  14.273  71.661  1.00  0.00    -0.425 OA 
BRANCH  10  13
HETATM   13  C   UNL     1     -13.029  12.746  70.289  1.00  0.00     0.491 C  
HETATM   14  H   UNL     1     -11.477  12.093  69.322  1.00  0.00     0.000 HD 
HETATM   15  O   UNL     1     -11.995  12.889  69.350  1.00  0.00    -0.302 OA 
BRANCH  13  16
HETATM   16  C   UNL     1     -12.405  12.389  71.617  1.00  0.00     0.294 C  
HETATM   17  O   UNL     1     -12.098  13.275  72.400  1.00  0.00     0.737 OA 
BRANCH  16  18
HETATM   18  O   UNL     1     -12.167  11.105  71.953  1.00  0.00     0.070 OA 
BRANCH  18  19
HETATM   19 CA   UNL     1      -9.969  10.171  71.561  1.00  0.00    -0.194 Ca 
BRANCH  19  20
HETATM   20  O   UNL     1      -7.772   9.238  71.168  1.00  0.00    -0.282 OA 
BRANCH  20  21
HETATM   21  C   UNL     1      -6.892  10.246  71.036  1.00  0.00     0.511 C  
HETATM   22  O   UNL     1      -6.379  10.692  72.048  1.00  0.00     0.586 OA 
BRANCH  21  23
HETATM   23  C   UNL     1      -6.663  10.935  69.709  1.00  0.00    -0.144 C  
HETATM   24  H   UNL     1      -5.153  11.265  68.552  1.00  0.00     0.000 HD 
HETATM   25  O   UNL     1      -5.297  10.833  69.386  1.00  0.00    -0.038 OA 
BRANCH  23  26
HETATM   26  C   UNL     1      -7.083  12.435  69.675  1.00  0.00     0.366 C  
HETATM   27  H   UNL     1      -6.226  14.153  69.952  1.00  0.00     0.000 HD 
HETATM   28  O   UNL     1      -5.969  13.238  69.973  1.00  0.00    -0.124 OA 
BRANCH  26  29
HETATM   29  C   UNL     1      -7.774  12.959  68.368  1.00  0.00    -0.133 C  
BRANCH  29  30
HETATM   30  O   UNL     1      -7.733  11.889  67.436  1.00  0.00    -0.139 OA 
BRANCH  30  31
HETATM   31  C   UNL     1      -8.263  10.659  67.886  1.00  0.00    -0.112 C  
HETATM   32  O   UNL     1      -8.298   9.724  66.821  1.00  0.00    -0.123 OA 
HETATM   33  C   UNL     1      -8.815   8.478  67.264  1.00  0.00    -0.130 C  
HETATM   34  H   UNL     1     -10.579  12.061  69.743  1.00  0.00     0.000 HD 
HETATM   35  C   UNL     1     -10.306   8.630  67.661  1.00  0.00    -0.254 C  
HETATM   36  O   UNL     1     -11.064   9.087  66.567  1.00  0.00     0.255 OA 
HETATM   37  C   UNL     1     -10.397   9.647  68.819  1.00  0.00    -0.213 C  
HETATM   38  O   UNL     1      -9.698  11.885  69.436  1.00  0.00     0.361 OA 
HETATM   39  H   UNL     1     -11.978   9.180  66.811  1.00  0.00     0.000 HD 
HETATM   40  O   UNL     1     -11.733   9.925  69.161  1.00  0.00    -0.471 OA 
HETATM   41  C   UNL     1      -9.701  10.948  68.387  1.00  0.00    -0.176 C  
HETATM   42  H   UNL     1     -11.789  10.551  69.874  1.00  0.00     0.000 HD 
BRANCH  33  43
HETATM   43  C   UNL     1      -8.618   7.455  66.134  1.00  0.00    -0.146 C  
HETATM   44  O   UNL     1      -8.848   6.147  66.585  1.00  0.00    -0.120 OA 
HETATM   45  H   UNL     1      -8.726   5.516  65.887  1.00  0.00     0.000 HD 
ENDBRANCH  33  43
ENDBRANCH  30  31
ENDBRANCH  29  30
BRANCH  29  46
HETATM   46  C   UNL     1      -7.191  14.287  67.769  1.00  0.00    -0.175 C  
HETATM   47  O   UNL     1      -6.416  14.975  68.723  1.00  0.00    -0.080 OA 
HETATM   48  H   UNL     1      -6.064  15.778  68.361  1.00  0.00     0.000 HD 
BRANCH  46  49
HETATM   49  C   UNL     1      -8.229  15.207  67.085  1.00  0.00    -0.221 C  
HETATM   50  H   UNL     1     -10.157  15.228  66.763  1.00  0.00     0.000 HD 
HETATM   51  O   UNL     1      -9.519  14.663  67.183  1.00  0.00    -0.215 OA 
ENDBRANCH  46  49
ENDBRANCH  29  46
ENDBRANCH  26  29
ENDBRANCH  23  26
ENDBRANCH  21  23
ENDBRANCH  20  21
ENDBRANCH  19  20
ENDBRANCH  18  19
ENDBRANCH  16  18
ENDBRANCH  13  16
ENDBRANCH  10  13
ENDBRANCH   7  10
ENDBRANCH   4   7
ENDBRANCH   2   4
TORSDOF 17
ENDMDL
MODEL      439
REMARK 921   NORMALIZED FREE ENERGY PREDICTED BY IDOCK:    7.26 KCAL/MOL
REMARK 922        TOTAL FREE ENERGY PREDICTED BY IDOCK:   11.04 KCAL/MOL
REMARK 923 INTER-LIGAND FREE ENERGY PREDICTED BY IDOCK:    8.26 KCAL/MOL
REMARK 924 INTRA-LIGAND FREE ENERGY PREDICTED BY IDOCK:    2.78 KCAL/MOL
REMARK 927      BINDING AFFINITY PREDICTED BY RF-SCORE:    0.00 PKD
ROOT
HETATM    1  O   UNL     1      -7.788   2.560  66.544  1.00  0.00    -0.074 OA 
HETATM    2  C   UNL     1      -8.385   2.522  65.276  1.00  0.00    -0.095 C  
HETATM    3  H   UNL     1      -7.024   1.995  66.554  1.00  0.00     0.000 HD 
ENDROOT
BRANCH   2   4
HETATM    4  C   UNL     1      -9.622   3.436  65.260  1.00  0.00    -0.116 C  
HETATM    5  O   UNL     1     -10.410   3.131  64.136  1.00  0.00    -0.286 OA 
HETATM    6  H   UNL     1     -11.174   3.696  64.126  1.00  0.00     0.000 HD 
BRANCH   4   7
HETATM    7  C   UNL     1     -10.472   3.268  66.547  1.00  0.00     2.000 C  
HETATM    8  H   UNL     1     -10.497   2.088  68.093  1.00  0.00     0.000 HD 
HETATM    9  O   UNL     1      -9.976   2.191  67.304  1.00  0.00     0.493 OA 
BRANCH   7  10
HETATM   10  C   UNL     1     -10.457   4.549  67.423  1.00  0.00     0.275 C  
HETATM   11  H   UNL     1     -11.268   5.116  69.082  1.00  0.00     0.000 HD 
HETATM   12  O   UNL     1     -11.277   4.331  68.546  1.00  0.00     2.799 OA 
BRANCH  10  13
HETATM   13  C   UNL     1     -10.957   5.816  66.674  1.00  0.00    -0.128 C  
HETATM   14  H   UNL     1     -12.569   6.898  66.630  1.00  0.00     0.000 HD 
HETATM   15  O   UNL     1     -12.263   6.124  67.087  1.00  0.00     2.314 OA 
BRANCH  13  16
HETATM   16  C   UNL     1     -10.095   7.034  66.914  1.00  0.00    -0.226 C  
HETATM   17  O   UNL     1      -9.032   7.148  66.325  1.00  0.00    -0.153 OA 
BRANCH  16  18
HETATM   18  O   UNL     1     -10.475   7.996  67.779  1.00  0.00    -0.226 OA 
BRANCH  18  19
HETATM   19 CA   UNL     1      -9.171  10.030  67.924  1.00  0.00    -0.129 Ca 
BRANCH  19  20
HETATM   20  O   UNL     1      -7.868  12.063  68.071  1.00  0.00    -0.126 OA 
BRANCH  20  21
HETATM   21  C   UNL     1      -6.684  11.777  68.639  1.00  0.00    -0.073 C  
HETATM   22  O   UNL     1      -6.210  10.670  68.445  1.00  0.00    -0.050 OA 
BRANCH  21  23
HETATM   23  C   UNL     1      -6.028  12.713  69.629  1.00  0.00    -0.122 C  
HETATM   24  H   UNL     1      -4.898  12.529  71.184  1.00  0.00     0.000 HD 
HETATM   25  O   UNL     1      -5.310  11.941  70.562  1.00  0.00    -0.111 OA 
BRANCH  23  26
HETATM   26  C   UNL     1      -7.015  13.646  70.394  1.00  0.00     0.820 C  
HETATM   27  H   UNL     1      -6.948  14.813  71.942  1.00  0.00     0.000 HD 
HETATM   28  O   UNL     1      -6.347  14.244  71.476  1.00  0.00     0.026 OA 
BRANCH  26  29
HETATM   29  C   UNL     1      -7.757  14.747  69.560  1.00  0.00    -0.068 C  
BRANCH  29  30
HETATM   30  O   UNL     1      -8.191  14.119  68.363  1.00  0.00    -0.139 OA 
BRANCH  30  31
HETATM   31  C   UNL     1      -8.910  14.939  67.464  1.00  0.00    -0.188 C  
HETATM   32  O   UNL     1      -8.396  16.260  67.492  1.00  0.00    -0.154 OA 
HETATM   33  C   UNL     1      -9.100  17.092  66.582  1.00  0.00    -0.254 C  
HETATM   34  H   UNL     1     -11.823  13.626  68.215  1.00  0.00     0.000 HD 
HETATM   35  C   UNL     1     -10.570  17.264  67.043  1.00  0.00    -0.231 C  
HETATM   36  O   UNL     1     -10.620  17.834  68.328  1.00  0.00    -0.369 OA 
HETATM   37  C   UNL     1     -11.237  15.873  67.064  1.00  0.00    -0.024 C  
HETATM   38  O   UNL     1     -10.918  13.630  67.928  1.00  0.00    -0.249 OA 
HETATM   39  H   UNL     1     -11.521  17.940  68.611  1.00  0.00     0.000 HD 
HETATM   40  O   UNL     1     -12.543  15.931  67.582  1.00  0.00     0.663 OA 
HETATM   41  C   UNL     1     -10.386  14.932  67.933  1.00  0.00    -0.237 C  
HETATM   42  H   UNL     1     -12.954  15.075  67.594  1.00  0.00     0.000 HD 
BRANCH  33  43
HETATM   43  C   UNL     1      -8.357  18.435  66.497  1.00  0.00    -0.272 C  
HETATM   44  O   UNL     1      -7.047  18.264  66.027  1.00  0.00    -0.246 OA 
HETATM   45  H   UNL     1      -6.589  19.094  65.974  1.00  0.00     0.000 HD 
ENDBRANCH  33  43
ENDBRANCH  30  31
ENDBRANCH  29  30
BRANCH  29  46
HETATM   46  C   UNL     1      -6.942  16.058  69.277  1.00  0.00    -0.205 C  
HETATM   47  O   UNL     1      -5.557  15.801  69.270  1.00  0.00    -0.105 OA 
HETATM   48  H   UNL     1      -5.065  16.594  69.098  1.00  0.00     0.000 HD 
BRANCH  46  49
HETATM   49  C   UNL     1      -7.309  17.263  70.174  1.00  0.00     1.589 C  
HETATM   50  H   UNL     1      -6.722  18.039  71.869  1.00  0.00     0.000 HD 
HETATM   51  O   UNL     1      -6.496  17.299  71.317  1.00  0.00     1.939 OA 
ENDBRANCH  46  49
ENDBRANCH  29  46
ENDBRANCH  26  29
ENDBRANCH  23  26
ENDBRANCH  21  23
ENDBRANCH  20  21
ENDBRANCH  19  20
ENDBRANCH  18  19
ENDBRANCH  16  18
ENDBRANCH  13  16
ENDBRANCH  10  13
ENDBRANCH   7  10
ENDBRANCH   4   7
ENDBRANCH   2   4
TORSDOF 17
ENDMDL
MODEL      440
REMARK 921   NORMALIZED FREE ENERGY PREDICTED BY IDOCK:    8.30 KCAL/MOL
REMARK 922        TOTAL FREE ENERGY PREDICTED BY IDOCK:   13.11 KCAL/MOL
REMARK 923 INTER-LIGAND FREE ENERGY PREDICTED BY IDOCK:    5.64 KCAL/MOL
REMARK 924 INTRA-LIGAND FREE ENERGY PREDICTED BY IDOCK:    7.46 KCAL/MOL
REMARK 927      BINDING AFFINITY PREDICTED BY RF-SCORE:    0.00 PKD
ROOT
HETATM    1  O   UNL     1      -9.569  16.569  67.119  1.00  0.00    -0.233 OA 
HETATM    2  C   UNL     1     -10.003  16.750  65.798  1.00  0.00    -0.215 C  
HETATM    3  H   UNL     1      -8.928  17.235  67.339  1.00  0.00     0.000 HD 
ENDROOT
BRANCH   2   4
HETATM    4  C   UNL     1     -11.040  15.672  65.442  1.00  0.00    -0.267 C  
HETATM    5  O   UNL     1     -12.084  16.257  64.704  1.00  0.00     0.025 OA 
HETATM    6  H   UNL     1     -12.724  15.591  64.484  1.00  0.00     0.000 HD 
BRANCH   4   7
HETATM    7  C   UNL     1     -10.405  14.521  64.616  1.00  0.00    -0.138 C  
HETATM    8  H   UNL     1      -9.687  12.748  64.963  1.00  0.00     0.000 HD 
HETATM    9  O   UNL     1     -10.076  13.452  65.469  1.00  0.00    -0.295 OA 
BRANCH   7  10
HETATM   10  C   UNL     1     -11.362  14.007  63.508  1.00  0.00     0.786 C  
HETATM   11  H   UNL     1     -13.219  13.488  63.397  1.00  0.00     0.000 HD 
HETATM   12  O   UNL     1     -12.633  13.803  64.076  1.00  0.00    -0.685 OA 
BRANCH  10  13
HETATM   13  C   UNL     1     -10.889  12.682  62.848  1.00  0.00     1.033 C  
HETATM   14  H   UNL     1      -9.315  11.545  62.910  1.00  0.00     0.000 HD 
HETATM   15  O   UNL     1      -9.605  12.355  63.314  1.00  0.00    -0.221 OA 
BRANCH  13  16
HETATM   16  C   UNL     1     -11.799  11.511  63.133  1.00  0.00     0.139 C  
HETATM   17  O   UNL     1     -12.777  11.319  62.428  1.00  0.00     0.856 OA 
BRANCH  16  18
HETATM   18  O   UNL     1     -11.556  10.675  64.163  1.00  0.00     1.055 OA 
BRANCH  18  19
HETATM   19 CA   UNL     1      -9.536  10.962  65.464  1.00  0.00    -0.174 Ca 
BRANCH  19  20
HETATM   20  O   UNL     1      -7.516  11.249  66.765  1.00  0.00    -0.138 OA 
BRANCH  20  21
HETATM   21  C   UNL     1      -6.935  10.048  66.929  1.00  0.00    -0.089 C  
HETATM   22  O   UNL     1      -5.890   9.835  66.338  1.00  0.00    -0.052 OA 
BRANCH  21  23
HETATM   23  C   UNL     1      -7.622   8.925  67.674  1.00  0.00    -0.093 C  
HETATM   24  H   UNL     1      -9.017   7.647  67.291  1.00  0.00     0.000 HD 
HETATM   25  O   UNL     1      -8.586   8.353  66.824  1.00  0.00    -0.114 OA 
BRANCH  23  26
HETATM   26  C   UNL     1      -8.308   9.352  69.006  1.00  0.00    -0.124 C  
HETATM   27  H   UNL     1      -8.132  10.793  70.292  1.00  0.00     0.000 HD 
HETATM   28  O   UNL     1      -7.713  10.533  69.480  1.00  0.00    -0.146 OA 
BRANCH  26  29
HETATM   29  C   UNL     1      -9.867   9.519  68.991  1.00  0.00    -0.176 C  
BRANCH  29  30
HETATM   30  O   UNL     1     -10.191  10.162  67.767  1.00  0.00    -0.171 OA 
BRANCH  30  31
HETATM   31  C   UNL     1     -10.545  11.526  67.863  1.00  0.00    -0.191 C  
HETATM   32  O   UNL     1     -10.803  11.869  69.214  1.00  0.00    -0.200 OA 
HETATM   33  C   UNL     1     -11.146  13.242  69.328  1.00  0.00    -0.153 C  
HETATM   34  H   UNL     1     -12.388  11.489  65.146  1.00  0.00     0.000 HD 
HETATM   35  C   UNL     1     -12.499  13.514  68.621  1.00  0.00     0.318 C  
HETATM   36  O   UNL     1     -13.520  12.730  69.190  1.00  0.00     2.468 OA 
HETATM   37  C   UNL     1     -12.343  13.161  67.126  1.00  0.00    -0.031 C  
HETATM   38  O   UNL     1     -11.603  11.371  65.667  1.00  0.00    -0.119 OA 
HETATM   39  H   UNL     1     -14.348  12.897  68.756  1.00  0.00     0.000 HD 
HETATM   40  O   UNL     1     -13.564  13.274  66.437  1.00  0.00     1.201 OA 
HETATM   41  C   UNL     1     -11.826  11.717  67.013  1.00  0.00    -0.044 C  
HETATM   42  H   UNL     1     -13.468  13.057  65.517  1.00  0.00     0.000 HD 
BRANCH  33  43
HETATM   43  C   UNL     1     -11.191  13.597  70.822  1.00  0.00     1.012 C  
HETATM   44  O   UNL     1     -10.598  14.844  71.068  1.00  0.00    -0.512 OA 
HETATM   45  H   UNL     1     -10.627  15.063  71.991  1.00  0.00     0.000 HD 
ENDBRANCH  33  43
ENDBRANCH  30  31
ENDBRANCH  29  30
BRANCH  29  46
HETATM   46  C   UNL     1     -10.490  10.257  70.228  1.00  0.00    -0.146 C  
HETATM   47  O   UNL     1      -9.485  10.721  71.099  1.00  0.00     2.023 OA 
HETATM   48  H   UNL     1      -9.862  11.168  71.847  1.00  0.00     0.000 HD 
BRANCH  46  49
HETATM   49  C   UNL     1     -11.593   9.470  70.973  1.00  0.00    -0.344 C  
HETATM   50  H   UNL     1     -12.350   7.668  70.954  1.00  0.00     0.000 HD 
HETATM   51  O   UNL     1     -11.673   8.152  70.496  1.00  0.00    -0.201 OA 
ENDBRANCH  46  49
ENDBRANCH  29  46
ENDBRANCH  26  29
ENDBRANCH  23  26
ENDBRANCH  21  23
ENDBRANCH  20  21
ENDBRANCH  19  20
ENDBRANCH  18  19
ENDBRANCH  16  18
ENDBRANCH  13  16
ENDBRANCH  10  13
ENDBRANCH   7  10
ENDBRANCH   4   7
ENDBRANCH   2   4
TORSDOF 17
ENDMDL
MODEL      441
REMARK 921   NORMALIZED FREE ENERGY PREDICTED BY IDOCK:   10.63 KCAL/MOL
REMARK 922        TOTAL FREE ENERGY PREDICTED BY IDOCK:   17.75 KCAL/MOL
REMARK 923 INTER-LIGAND FREE ENERGY PREDICTED BY IDOCK:    6.52 KCAL/MOL
REMARK 924 INTRA-LIGAND FREE ENERGY PREDICTED BY IDOCK:   11.24 KCAL/MOL
REMARK 927      BINDING AFFINITY PREDICTED BY RF-SCORE:    0.00 PKD
ROOT
HETATM    1  O   UNL     1      -7.549  12.552  70.514  1.00  0.00     1.745 OA 
HETATM    2  C   UNL     1      -7.124  11.543  69.639  1.00  0.00     0.084 C  
HETATM    3  H   UNL     1      -7.167  13.383  70.254  1.00  0.00     0.000 HD 
ENDROOT
BRANCH   2   4
HETATM    4  C   UNL     1      -7.743  10.199  70.058  1.00  0.00    -0.136 C  
HETATM    5  O   UNL     1      -9.081  10.403  70.439  1.00  0.00    -0.189 OA 
HETATM    6  H   UNL     1      -9.463   9.573  70.698  1.00  0.00     0.000 HD 
BRANCH   4   7
HETATM    7  C   UNL     1      -7.685   9.161  68.907  1.00  0.00    -0.083 C  
HETATM    8  H   UNL     1      -8.954   8.127  67.857  1.00  0.00     0.000 HD 
HETATM    9  O   UNL     1      -8.990   8.763  68.562  1.00  0.00    -0.137 OA 
BRANCH   7  10
HETATM   10  C   UNL     1      -6.981   9.730  67.647  1.00  0.00    -0.086 C  
HETATM   11  H   UNL     1      -5.163  10.108  67.114  1.00  0.00     0.000 HD 
HETATM   12  O   UNL     1      -5.595   9.759  67.886  1.00  0.00    -0.040 OA 
BRANCH  10  13
HETATM   13  C   UNL     1      -7.455  11.160  67.266  1.00  0.00    -0.118 C  
HETATM   14  H   UNL     1      -6.771  12.972  67.413  1.00  0.00     0.000 HD 
HETATM   15  O   UNL     1      -6.481  12.098  67.646  1.00  0.00    -0.082 OA 
BRANCH  13  16
HETATM   16  C   UNL     1      -7.714  11.333  65.788  1.00  0.00     0.221 C  
HETATM   17  O   UNL     1      -6.819  11.733  65.060  1.00  0.00     1.654 OA 
BRANCH  16  18
HETATM   18  O   UNL     1      -8.923  11.063  65.256  1.00  0.00    -0.199 OA 
BRANCH  18  19
HETATM   19 CA   UNL     1     -10.875  12.195  66.131  1.00  0.00    -0.237 Ca 
BRANCH  19  20
HETATM   20  O   UNL     1     -12.826  13.328  67.006  1.00  0.00     0.194 OA 
BRANCH  20  21
HETATM   21  C   UNL     1     -12.928  14.531  66.415  1.00  0.00     0.835 C  
HETATM   22  O   UNL     1     -13.765  14.667  65.539  1.00  0.00     0.053 OA 
BRANCH  21  23
HETATM   23  C   UNL     1     -11.935  15.639  66.686  1.00  0.00     0.720 C  
HETATM   24  H   UNL     1     -10.491  16.484  65.723  1.00  0.00     0.000 HD 
HETATM   25  O   UNL     1     -11.115  15.788  65.553  1.00  0.00    -0.283 OA 
BRANCH  23  26
HETATM   26  C   UNL     1     -11.034  15.413  67.939  1.00  0.00    -0.310 C  
HETATM   27  H   UNL     1     -10.858  14.078  69.334  1.00  0.00     0.000 HD 
HETATM   28  O   UNL     1     -11.407  14.215  68.571  1.00  0.00    -0.253 OA 
BRANCH  26  29
HETATM   29  C   UNL     1      -9.482  15.432  67.721  1.00  0.00    -0.204 C  
BRANCH  29  30
HETATM   30  O   UNL     1      -8.895  15.222  68.998  1.00  0.00    -0.196 OA 
BRANCH  30  31
HETATM   31  C   UNL     1      -7.635  15.828  69.203  1.00  0.00    -0.212 C  
HETATM   32  O   UNL     1      -7.769  16.959  70.048  1.00  0.00     0.854 OA 
HETATM   33  C   UNL     1      -6.508  17.568  70.275  1.00  0.00     0.574 C  
HETATM   34  H   UNL     1      -6.667  15.431  66.091  1.00  0.00     0.000 HD 
HETATM   35  C   UNL     1      -5.959  18.167  68.954  1.00  0.00    -0.211 C  
HETATM   36  O   UNL     1      -6.852  19.123  68.437  1.00  0.00    -0.248 OA 
HETATM   37  C   UNL     1      -5.781  17.018  67.939  1.00  0.00    -0.121 C  
HETATM   38  O   UNL     1      -6.986  15.163  66.945  1.00  0.00    -0.148 OA 
HETATM   39  H   UNL     1      -6.516  19.489  67.627  1.00  0.00     0.000 HD 
HETATM   40  O   UNL     1      -5.393  17.497  66.675  1.00  0.00    -0.143 OA 
HETATM   41  C   UNL     1      -7.116  16.265  67.810  1.00  0.00    -0.133 C  
HETATM   42  H   UNL     1      -5.283  16.790  66.051  1.00  0.00     0.000 HD 
BRANCH  33  43
HETATM   43  C   UNL     1      -6.688  18.637  71.365  1.00  0.00     2.619 C  
HETATM   44  O   UNL     1      -5.931  19.784  71.084  1.00  0.00    -0.244 OA 
HETATM   45  H   UNL     1      -6.042  20.444  71.757  1.00  0.00     0.000 HD 
ENDBRANCH  33  43
ENDBRANCH  30  31
ENDBRANCH  29  30
BRANCH  29  46
HETATM   46  C   UNL     1      -8.903  16.705  67.008  1.00  0.00    -0.199 C  
HETATM   47  O   UNL     1      -9.562  17.871  67.445  1.00  0.00    -0.264 OA 
HETATM   48  H   UNL     1      -9.212  18.641  67.014  1.00  0.00     0.000 HD 
BRANCH  46  49
HETATM   49  C   UNL     1      -8.832  16.615  65.466  1.00  0.00     0.711 C  
HETATM   50  H   UNL     1      -9.827  17.298  63.928  1.00  0.00     0.000 HD 
HETATM   51  O   UNL     1      -9.870  17.353  64.876  1.00  0.00     0.730 OA 
ENDBRANCH  46  49
ENDBRANCH  29  46
ENDBRANCH  26  29
ENDBRANCH  23  26
ENDBRANCH  21  23
ENDBRANCH  20  21
ENDBRANCH  19  20
ENDBRANCH  18  19
ENDBRANCH  16  18
ENDBRANCH  13  16
ENDBRANCH  10  13
ENDBRANCH   7  10
ENDBRANCH   4   7
ENDBRANCH   2   4
TORSDOF 17
ENDMDL
MODEL      442
REMARK 921   NORMALIZED FREE ENERGY PREDICTED BY IDOCK:   14.00 KCAL/MOL
REMARK 922        TOTAL FREE ENERGY PREDICTED BY IDOCK:   24.46 KCAL/MOL
REMARK 923 INTER-LIGAND FREE ENERGY PREDICTED BY IDOCK:   19.60 KCAL/MOL
REMARK 924 INTRA-LIGAND FREE ENERGY PREDICTED BY IDOCK:    4.86 KCAL/MOL
REMARK 927      BINDING AFFINITY PREDICTED BY RF-SCORE:    0.00 PKD
ROOT
HETATM    1  O   UNL     1     -12.637  11.658  65.348  1.00  0.00     0.321 OA 
HETATM    2  C   UNL     1     -13.285  12.276  66.426  1.00  0.00     4.262 C  
HETATM    3  H   UNL     1     -13.050  11.921  64.534  1.00  0.00     0.000 HD 
ENDROOT
BRANCH   2   4
HETATM    4  C   UNL     1     -12.617  11.851  67.745  1.00  0.00     1.811 C  
HETATM    5  O   UNL     1     -13.609  11.530  68.687  1.00  0.00     3.762 OA 
HETATM    6  H   UNL     1     -13.196  11.267  69.501  1.00  0.00     0.000 HD 
BRANCH   4   7
HETATM    7  C   UNL     1     -11.682  10.629  67.542  1.00  0.00     0.452 C  
HETATM    8  H   UNL     1     -11.882   8.719  67.236  1.00  0.00     0.000 HD 
HETATM    9  O   UNL     1     -12.454   9.467  67.359  1.00  0.00     4.730 OA 
BRANCH   7  10
HETATM   10  C   UNL     1     -10.747  10.811  66.317  1.00  0.00    -0.138 C  
HETATM   11  H   UNL     1     -10.051   9.683  64.912  1.00  0.00     0.000 HD 
HETATM   12  O   UNL     1     -10.623   9.572  65.662  1.00  0.00     0.172 OA 
BRANCH  10  13
HETATM   13  C   UNL     1      -9.329  11.325  66.692  1.00  0.00    -0.180 C  
HETATM   14  H   UNL     1      -7.492  10.755  66.422  1.00  0.00     0.000 HD 
HETATM   15  O   UNL     1      -8.359  10.440  66.193  1.00  0.00    -0.138 OA 
BRANCH  13  16
HETATM   16  C   UNL     1      -9.026  12.701  66.149  1.00  0.00     0.114 C  
HETATM   17  O   UNL     1      -9.944  13.442  65.832  1.00  0.00    -0.289 OA 
BRANCH  16  18
HETATM   18  O   UNL     1      -7.756  13.125  65.995  1.00  0.00     1.590 OA 
BRANCH  18  19
HETATM   19 CA   UNL     1      -7.156  15.347  66.743  1.00  0.00    -0.170 Ca 
BRANCH  19  20
HETATM   20  O   UNL     1      -6.556  17.569  67.491  1.00  0.00    -0.149 OA 
BRANCH  20  21
HETATM   21  C   UNL     1      -6.254  17.517  68.800  1.00  0.00    -0.188 C  
HETATM   22  O   UNL     1      -5.141  17.129  69.114  1.00  0.00    -0.133 OA 
BRANCH  21  23
HETATM   23  C   UNL     1      -7.297  17.757  69.868  1.00  0.00     0.941 C  
HETATM   24  H   UNL     1      -7.496  17.336  71.742  1.00  0.00     0.000 HD 
HETATM   25  O   UNL     1      -6.841  17.185  71.070  1.00  0.00     2.364 OA 
BRANCH  23  26
HETATM   26  C   UNL     1      -8.710  17.186  69.538  1.00  0.00     0.570 C  
HETATM   27  H   UNL     1     -10.472  17.900  69.160  1.00  0.00     0.000 HD 
HETATM   28  O   UNL     1      -9.612  18.248  69.361  1.00  0.00    -0.005 OA 
BRANCH  26  29
HETATM   29  C   UNL     1      -8.821  16.194  68.329  1.00  0.00    -0.188 C  
BRANCH  29  30
HETATM   30  O   UNL     1      -9.889  16.666  67.520  1.00  0.00    -0.245 OA 
BRANCH  30  31
HETATM   31  C   UNL     1      -9.540  17.616  66.533  1.00  0.00    -0.292 C  
HETATM   32  O   UNL     1      -8.148  17.881  66.582  1.00  0.00    -0.231 OA 
HETATM   33  C   UNL     1      -7.782  18.823  65.585  1.00  0.00     0.170 C  
HETATM   34  H   UNL     1     -12.214  19.458  67.016  1.00  0.00     0.000 HD 
HETATM   35  C   UNL     1      -8.424  20.200  65.890  1.00  0.00    -0.056 C  
HETATM   36  O   UNL     1      -8.009  20.671  67.149  1.00  0.00    -0.431 OA 
HETATM   37  C   UNL     1      -9.958  20.033  65.876  1.00  0.00    -0.368 C  
HETATM   38  O   UNL     1     -11.725  18.668  66.822  1.00  0.00     1.230 OA 
HETATM   39  H   UNL     1      -8.403  21.515  67.336  1.00  0.00     0.000 HD 
HETATM   40  O   UNL     1     -10.613  21.218  66.258  1.00  0.00     1.384 OA 
HETATM   41  C   UNL     1     -10.338  18.905  66.850  1.00  0.00    -0.406 C  
HETATM   42  H   UNL     1     -11.557  21.114  66.249  1.00  0.00     0.000 HD 
BRANCH  33  43
HETATM   43  C   UNL     1      -6.247  18.895  65.543  1.00  0.00    -0.257 C  
HETATM   44  O   UNL     1      -5.809  20.044  64.869  1.00  0.00    -0.186 OA 
HETATM   45  H   UNL     1      -4.861  20.089  64.844  1.00  0.00     0.000 HD 
ENDBRANCH  33  43
ENDBRANCH  30  31
ENDBRANCH  29  30
BRANCH  29  46
HETATM   46  C   UNL     1      -8.985  14.678  68.697  1.00  0.00    -0.184 C  
HETATM   47  O   UNL     1     -10.256  14.427  69.250  1.00  0.00    -0.381 OA 
HETATM   48  H   UNL     1     -10.356  13.510  69.472  1.00  0.00     0.000 HD 
BRANCH  46  49
HETATM   49  C   UNL     1      -7.846  14.086  69.559  1.00  0.00     0.432 C  
HETATM   50  H   UNL     1      -5.898  13.940  69.483  1.00  0.00     0.000 HD 
HETATM   51  O   UNL     1      -6.598  14.304  68.954  1.00  0.00    -0.086 OA 
ENDBRANCH  46  49
ENDBRANCH  29  46
ENDBRANCH  26  29
ENDBRANCH  23  26
ENDBRANCH  21  23
ENDBRANCH  20  21
ENDBRANCH  19  20
ENDBRANCH  18  19
ENDBRANCH  16  18
ENDBRANCH  13  16
ENDBRANCH  10  13
ENDBRANCH   7  10
ENDBRANCH   4   7
ENDBRANCH   2   4
TORSDOF 17
ENDMDL
MODEL      443
REMARK 921   NORMALIZED FREE ENERGY PREDICTED BY IDOCK:   15.19 KCAL/MOL
REMARK 922        TOTAL FREE ENERGY PREDICTED BY IDOCK:   26.84 KCAL/MOL
REMARK 923 INTER-LIGAND FREE ENERGY PREDICTED BY IDOCK:    5.37 KCAL/MOL
REMARK 924 INTRA-LIGAND FREE ENERGY PREDICTED BY IDOCK:   21.47 KCAL/MOL
REMARK 927      BINDING AFFINITY PREDICTED BY RF-SCORE:    0.00 PKD
ROOT
HETATM    1  O   UNL     1     -12.069  12.317  69.642  1.00  0.00    -0.279 OA 
HETATM    2  C   UNL     1     -12.265  11.479  70.749  1.00  0.00    -0.363 C  
HETATM    3  H   UNL     1     -12.701  13.026  69.662  1.00  0.00     0.000 HD 
ENDROOT
BRANCH   2   4
HETATM    4  C   UNL     1     -11.241  10.332  70.717  1.00  0.00    -0.293 C  
HETATM    5  O   UNL     1     -11.734   9.292  69.909  1.00  0.00    -0.455 OA 
HETATM    6  H   UNL     1     -11.101   8.583  69.890  1.00  0.00     0.000 HD 
BRANCH   4   7
HETATM    7  C   UNL     1      -9.869  10.807  70.167  1.00  0.00     0.766 C  
HETATM    8  H   UNL     1      -8.851  10.615  68.522  1.00  0.00     0.000 HD 
HETATM    9  O   UNL     1      -9.691  10.324  68.858  1.00  0.00    -0.171 OA 
BRANCH   7  10
HETATM   10  C   UNL     1      -9.754  12.354  70.156  1.00  0.00     3.518 C  
HETATM   11  H   UNL     1     -10.963  13.843  69.923  1.00  0.00     0.000 HD 
HETATM   12  O   UNL     1     -11.034  12.895  69.930  1.00  0.00     0.169 OA 
BRANCH  10  13
HETATM   13  C   UNL     1      -8.782  12.894  69.070  1.00  0.00     0.505 C  
HETATM   14  H   UNL     1      -8.739  14.366  67.804  1.00  0.00     0.000 HD 
HETATM   15  O   UNL     1      -9.334  14.036  68.467  1.00  0.00    -0.206 OA 
BRANCH  13  16
HETATM   16  C   UNL     1      -7.423  13.268  69.615  1.00  0.00     0.700 C  
HETATM   17  O   UNL     1      -7.184  14.432  69.898  1.00  0.00    -0.038 OA 
BRANCH  16  18
HETATM   18  O   UNL     1      -6.461  12.340  69.784  1.00  0.00    -0.116 OA 
BRANCH  18  19
HETATM   19 CA   UNL     1      -5.955  10.822  67.969  1.00  0.00    -0.048 Ca 
BRANCH  19  20
HETATM   20  O   UNL     1      -5.448   9.304  66.153  1.00  0.00    -0.042 OA 
BRANCH  20  21
HETATM   21  C   UNL     1      -5.813   9.879  64.995  1.00  0.00    -0.094 C  
HETATM   22  O   UNL     1      -5.273   9.495  63.972  1.00  0.00    -0.058 OA 
BRANCH  21  23
HETATM   23  C   UNL     1      -6.729  11.081  64.956  1.00  0.00     0.517 C  
HETATM   24  H   UNL     1      -6.574  12.937  64.447  1.00  0.00     0.000 HD 
HETATM   25  O   UNL     1      -5.999  12.182  64.471  1.00  0.00     3.622 OA 
BRANCH  23  26
HETATM   26  C   UNL     1      -7.366  11.459  66.328  1.00  0.00     0.063 C  
HETATM   27  H   UNL     1      -6.876  12.528  67.870  1.00  0.00     0.000 HD 
HETATM   28  O   UNL     1      -6.488  12.298  67.034  1.00  0.00    -0.144 OA 
BRANCH  26  29
HETATM   29  C   UNL     1      -8.798  12.096  66.306  1.00  0.00    -0.040 C  
BRANCH  29  30
HETATM   30  O   UNL     1      -9.469  11.537  65.186  1.00  0.00    -0.225 OA 
BRANCH  30  31
HETATM   31  C   UNL     1      -9.648  10.135  65.213  1.00  0.00    -0.277 C  
HETATM   32  O   UNL     1      -9.333   9.628  66.499  1.00  0.00    -0.151 OA 
HETATM   33  C   UNL     1      -9.523   8.222  66.544  1.00  0.00    -0.220 C  
HETATM   34  H   UNL     1      -8.375   9.673  62.223  1.00  0.00     0.000 HD 
HETATM   35  C   UNL     1      -8.502   7.515  65.615  1.00  0.00    -0.132 C  
HETATM   36  O   UNL     1      -7.185   7.820  66.007  1.00  0.00    -0.070 OA 
HETATM   37  C   UNL     1      -8.742   8.004  64.171  1.00  0.00     0.407 C  
HETATM   38  O   UNL     1      -8.965  10.038  62.870  1.00  0.00    -0.214 OA 
HETATM   39  H   UNL     1      -6.560   7.387  65.438  1.00  0.00     0.000 HD 
HETATM   40  O   UNL     1      -7.778   7.493  63.283  1.00  0.00    -0.117 OA 
HETATM   41  C   UNL     1      -8.684   9.540  64.156  1.00  0.00    -0.215 C  
HETATM   42  H   UNL     1      -7.926   7.793  62.395  1.00  0.00     0.000 HD 
BRANCH  33  43
HETATM   43  C   UNL     1      -9.384   7.772  68.007  1.00  0.00    -0.141 C  
HETATM   44  O   UNL     1      -8.664   6.572  68.105  1.00  0.00    -0.118 OA 
HETATM   45  H   UNL     1      -8.578   6.295  69.009  1.00  0.00     0.000 HD 
ENDBRANCH  33  43
ENDBRANCH  30  31
ENDBRANCH  29  30
BRANCH  29  46
HETATM   46  C   UNL     1      -8.852  13.664  66.304  1.00  0.00     0.261 C  
HETATM   47  O   UNL     1      -8.490  14.184  67.562  1.00  0.00    -0.163 OA 
HETATM   48  H   UNL     1      -8.522  15.133  67.560  1.00  0.00     0.000 HD 
BRANCH  46  49
HETATM   49  C   UNL     1     -10.172  14.273  65.777  1.00  0.00    -0.334 C  
HETATM   50  H   UNL     1     -11.308  14.120  64.194  1.00  0.00     0.000 HD 
HETATM   51  O   UNL     1     -10.497  13.746  64.518  1.00  0.00    -0.434 OA 
ENDBRANCH  46  49
ENDBRANCH  29  46
ENDBRANCH  26  29
ENDBRANCH  23  26
ENDBRANCH  21  23
ENDBRANCH  20  21
ENDBRANCH  19  20
ENDBRANCH  18  19
ENDBRANCH  16  18
ENDBRANCH  13  16
ENDBRANCH  10  13
ENDBRANCH   7  10
ENDBRANCH   4   7
ENDBRANCH   2   4
TORSDOF 17
ENDMDL
MODEL      444
REMARK 921   NORMALIZED FREE ENERGY PREDICTED BY IDOCK:   18.64 KCAL/MOL
REMARK 922        TOTAL FREE ENERGY PREDICTED BY IDOCK:   33.72 KCAL/MOL
REMARK 923 INTER-LIGAND FREE ENERGY PREDICTED BY IDOCK:   19.20 KCAL/MOL
REMARK 924 INTRA-LIGAND FREE ENERGY PREDICTED BY IDOCK:   14.52 KCAL/MOL
REMARK 927      BINDING AFFINITY PREDICTED BY RF-SCORE:    0.00 PKD
ROOT
HETATM    1  O   UNL     1     -13.987  15.826  72.886  1.00  0.00    -0.569 OA 
HETATM    2  C   UNL     1     -14.015  16.551  71.687  1.00  0.00     3.338 C  
HETATM    3  H   UNL     1     -14.531  16.259  73.534  1.00  0.00     0.000 HD 
ENDROOT
BRANCH   2   4
HETATM    4  C   UNL     1     -13.135  15.851  70.638  1.00  0.00     0.293 C  
HETATM    5  O   UNL     1     -11.874  15.578  71.197  1.00  0.00    -0.312 OA 
HETATM    6  H   UNL     1     -11.331  15.145  70.549  1.00  0.00     0.000 HD 
BRANCH   4   7
HETATM    7  C   UNL     1     -13.779  14.528  70.145  1.00  0.00     1.163 C  
HETATM    8  H   UNL     1     -13.302  13.072  68.947  1.00  0.00     0.000 HD 
HETATM    9  O   UNL     1     -12.907  13.882  69.249  1.00  0.00     0.248 OA 
BRANCH   7  10
HETATM   10  C   UNL     1     -14.101  13.567  71.319  1.00  0.00     0.596 C  
HETATM   11  H   UNL     1     -14.554  13.748  73.188  1.00  0.00     0.000 HD 
HETATM   12  O   UNL     1     -14.357  14.337  72.469  1.00  0.00    -0.554 OA 
BRANCH  10  13
HETATM   13  C   UNL     1     -12.955  12.565  71.630  1.00  0.00    -0.302 C  
HETATM   14  H   UNL     1     -11.640  11.550  70.624  1.00  0.00     0.000 HD 
HETATM   15  O   UNL     1     -12.341  12.163  70.433  1.00  0.00    -0.303 OA 
BRANCH  13  16
HETATM   16  C   UNL     1     -11.886  13.137  72.531  1.00  0.00     2.831 C  
HETATM   17  O   UNL     1     -11.526  14.294  72.383  1.00  0.00     0.628 OA 
BRANCH  16  18
HETATM   18  O   UNL     1     -11.311  12.387  73.493  1.00  0.00     9.411 OA 
BRANCH  18  19
HETATM   19 CA   UNL     1      -9.468  10.931  72.908  1.00  0.00     5.604 Ca 
BRANCH  19  20
HETATM   20  O   UNL     1      -7.626   9.476  72.323  1.00  0.00     0.302 OA 
BRANCH  20  21
HETATM   21  C   UNL     1      -7.167   9.826  71.109  1.00  0.00     0.348 C  
HETATM   22  O   UNL     1      -6.359  10.737  71.045  1.00  0.00    -0.346 OA 
BRANCH  21  23
HETATM   23  C   UNL     1      -7.750   9.247  69.839  1.00  0.00    -0.101 C  
HETATM   24  H   UNL     1      -7.085   8.236  68.335  1.00  0.00     0.000 HD 
HETATM   25  O   UNL     1      -6.720   8.600  69.132  1.00  0.00    -0.046 OA 
BRANCH  23  26
HETATM   26  C   UNL     1      -8.432  10.289  68.902  1.00  0.00    -0.138 C  
HETATM   27  H   UNL     1      -7.874  11.533  67.524  1.00  0.00     0.000 HD 
HETATM   28  O   UNL     1      -7.457  10.898  68.095  1.00  0.00    -0.086 OA 
BRANCH  26  29
HETATM   29  C   UNL     1      -9.616   9.785  68.007  1.00  0.00    -0.142 C  
BRANCH  29  30
HETATM   30  O   UNL     1      -9.606   8.367  68.088  1.00  0.00    -0.140 OA 
BRANCH  30  31
HETATM   31  C   UNL     1      -9.518   7.826  69.391  1.00  0.00    -0.156 C  
HETATM   32  O   UNL     1      -9.957   6.477  69.389  1.00  0.00    -0.154 OA 
HETATM   33  C   UNL     1      -9.860   5.917  70.690  1.00  0.00    -0.183 C  
HETATM   34  H   UNL     1     -10.602  10.556  70.858  1.00  0.00     0.000 HD 
HETATM   35  C   UNL     1     -10.855   6.620  71.649  1.00  0.00    -0.234 C  
HETATM   36  O   UNL     1     -12.174   6.482  71.180  1.00  0.00    -0.335 OA 
HETATM   37  C   UNL     1     -10.481   8.115  71.723  1.00  0.00    -0.242 C  
HETATM   38  O   UNL     1     -10.037  10.031  70.304  1.00  0.00    -0.260 OA 
HETATM   39  H   UNL     1     -12.783   6.913  71.768  1.00  0.00     0.000 HD 
HETATM   40  O   UNL     1     -11.410   8.845  72.487  1.00  0.00    -0.219 OA 
HETATM   41  C   UNL     1     -10.441   8.683  70.295  1.00  0.00    -0.210 C  
HETATM   42  H   UNL     1     -11.179   9.765  72.533  1.00  0.00     0.000 HD 
BRANCH  33  43
HETATM   43  C   UNL     1     -10.131   4.408  70.576  1.00  0.00    -0.119 C  
HETATM   44  O   UNL     1      -9.751   3.733  71.745  1.00  0.00    -0.156 OA 
HETATM   45  H   UNL     1      -9.919   2.801  71.676  1.00  0.00     0.000 HD 
ENDBRANCH  33  43
ENDBRANCH  30  31
ENDBRANCH  29  30
BRANCH  29  46
HETATM   46  C   UNL     1      -9.617  10.290  66.521  1.00  0.00    -0.181 C  
HETATM   47  O   UNL     1      -8.962  11.532  66.410  1.00  0.00    -0.190 OA 
HETATM   48  H   UNL     1      -8.962  11.838  65.511  1.00  0.00     0.000 HD 
BRANCH  46  49
HETATM   49  C   UNL     1     -11.001  10.295  65.831  1.00  0.00     0.366 C  
HETATM   50  H   UNL     1     -12.080  11.519  64.756  1.00  0.00     0.000 HD 
HETATM   51  O   UNL     1     -11.229  11.516  65.180  1.00  0.00    -0.245 OA 
ENDBRANCH  46  49
ENDBRANCH  29  46
ENDBRANCH  26  29
ENDBRANCH  23  26
ENDBRANCH  21  23
ENDBRANCH  20  21
ENDBRANCH  19  20
ENDBRANCH  18  19
ENDBRANCH  16  18
ENDBRANCH  13  16
ENDBRANCH  10  13
ENDBRANCH   7  10
ENDBRANCH   4   7
ENDBRANCH   2   4
TORSDOF 17
ENDMDL
MODEL      445
REMARK 921   NORMALIZED FREE ENERGY PREDICTED BY IDOCK:   21.23 KCAL/MOL
REMARK 922        TOTAL FREE ENERGY PREDICTED BY IDOCK:   38.89 KCAL/MOL
REMARK 923 INTER-LIGAND FREE ENERGY PREDICTED BY IDOCK:   23.42 KCAL/MOL
REMARK 924 INTRA-LIGAND FREE ENERGY PREDICTED BY IDOCK:   15.47 KCAL/MOL
REMARK 927      BINDING AFFINITY PREDICTED BY RF-SCORE:    0.00 PKD
ROOT
HETATM    1  O   UNL     1     -13.984  15.827  72.888  1.00  0.00    -0.569 OA 
HETATM    2  C   UNL     1     -13.967  16.532  71.676  1.00  0.00     3.338 C  
HETATM    3  H   UNL     1     -14.526  16.287  73.518  1.00  0.00     0.000 HD 
ENDROOT
BRANCH   2   4
HETATM    4  C   UNL     1     -13.089  15.787  70.656  1.00  0.00    -0.006 C  
HETATM    5  O   UNL     1     -11.849  15.483  71.244  1.00  0.00    -0.321 OA 
HETATM    6  H   UNL     1     -11.307  15.023  70.614  1.00  0.00     0.000 HD 
BRANCH   4   7
HETATM    7  C   UNL     1     -13.766  14.477  70.171  1.00  0.00     1.163 C  
HETATM    8  H   UNL     1     -13.310  12.984  69.013  1.00  0.00     0.000 HD 
HETATM    9  O   UNL     1     -12.895  13.785  69.310  1.00  0.00     0.286 OA 
BRANCH   7  10
HETATM   10  C   UNL     1     -14.149  13.549  71.355  1.00  0.00     0.431 C  
HETATM   11  H   UNL     1     -14.622  13.780  73.213  1.00  0.00     0.000 HD 
HETATM   12  O   UNL     1     -14.387  14.349  72.488  1.00  0.00    -0.514 OA 
BRANCH  10  13
HETATM   13  C   UNL     1     -13.054  12.502  71.699  1.00  0.00    -0.315 C  
HETATM   14  H   UNL     1     -11.748  11.439  70.731  1.00  0.00     0.000 HD 
HETATM   15  O   UNL     1     -12.417  12.080  70.521  1.00  0.00    -0.286 OA 
BRANCH  13  16
HETATM   16  C   UNL     1     -11.994  13.028  72.637  1.00  0.00     2.841 C  
HETATM   17  O   UNL     1     -11.581  14.170  72.505  1.00  0.00     0.701 OA 
BRANCH  16  18
HETATM   18  O   UNL     1     -11.483  12.254  73.616  1.00  0.00     9.655 OA 
BRANCH  18  19
HETATM   19 CA   UNL     1      -9.706  10.700  73.083  1.00  0.00     4.863 Ca 
BRANCH  19  20
HETATM   20  O   UNL     1      -7.930   9.146  72.550  1.00  0.00    -0.184 OA 
BRANCH  20  21
HETATM   21  C   UNL     1      -7.323   9.554  71.422  1.00  0.00     0.358 C  
HETATM   22  O   UNL     1      -6.399  10.344  71.525  1.00  0.00    -0.217 OA 
BRANCH  21  23
HETATM   23  C   UNL     1      -7.861   9.199  70.054  1.00  0.00    -0.099 C  
HETATM   24  H   UNL     1      -7.522   7.833  68.734  1.00  0.00     0.000 HD 
HETATM   25  O   UNL     1      -7.184   8.056  69.593  1.00  0.00    -0.063 OA 
BRANCH  23  26
HETATM   26  C   UNL     1      -7.730  10.331  68.990  1.00  0.00    -0.110 C  
HETATM   27  H   UNL     1      -6.366  10.981  67.775  1.00  0.00     0.000 HD 
HETATM   28  O   UNL     1      -6.445  10.292  68.424  1.00  0.00    -0.049 OA 
BRANCH  26  29
HETATM   29  C   UNL     1      -8.806  10.375  67.850  1.00  0.00    -0.125 C  
BRANCH  29  30
HETATM   30  O   UNL     1      -9.476  11.621  67.979  1.00  0.00    -0.172 OA 
BRANCH  30  31
HETATM   31  C   UNL     1      -8.645  12.753  68.138  1.00  0.00    -0.185 C  
HETATM   32  O   UNL     1      -9.330  13.923  67.722  1.00  0.00    -0.191 OA 
HETATM   33  C   UNL     1      -8.512  15.070  67.890  1.00  0.00    -0.147 C  
HETATM   34  H   UNL     1      -5.942  11.218  67.082  1.00  0.00     0.000 HD 
HETATM   35  C   UNL     1      -7.295  15.003  66.931  1.00  0.00     0.294 C  
HETATM   36  O   UNL     1      -7.724  14.930  65.594  1.00  0.00     2.216 OA 
HETATM   37  C   UNL     1      -6.470  13.748  67.283  1.00  0.00     0.312 C  
HETATM   38  O   UNL     1      -6.706  11.359  67.628  1.00  0.00    -0.067 OA 
HETATM   39  H   UNL     1      -6.979  14.889  65.007  1.00  0.00     0.000 HD 
HETATM   40  O   UNL     1      -5.408  13.554  66.381  1.00  0.00     1.324 OA 
HETATM   41  C   UNL     1      -7.399  12.523  67.246  1.00  0.00    -0.113 C  
HETATM   42  H   UNL     1      -4.900  12.781  66.598  1.00  0.00     0.000 HD 
BRANCH  33  43
HETATM   43  C   UNL     1      -9.380  16.313  67.639  1.00  0.00    -0.218 C  
HETATM   44  O   UNL     1     -10.224  16.129  66.533  1.00  0.00    -0.276 OA 
HETATM   45  H   UNL     1     -10.761  16.896  66.378  1.00  0.00     0.000 HD 
ENDBRANCH  33  43
ENDBRANCH  30  31
ENDBRANCH  29  30
BRANCH  29  46
HETATM   46  C   UNL     1      -9.808   9.168  67.805  1.00  0.00    -0.174 C  
HETATM   47  O   UNL     1      -9.229   8.010  68.360  1.00  0.00    -0.136 OA 
HETATM   48  H   UNL     1      -9.836   7.280  68.333  1.00  0.00     0.000 HD 
BRANCH  46  49
HETATM   49  C   UNL     1     -10.446   8.899  66.423  1.00  0.00    -0.001 C  
HETATM   50  H   UNL     1     -10.763   7.370  65.247  1.00  0.00     0.000 HD 
HETATM   51  O   UNL     1     -10.372   7.536  66.097  1.00  0.00     0.173 OA 
ENDBRANCH  46  49
ENDBRANCH  29  46
ENDBRANCH  26  29
ENDBRANCH  23  26
ENDBRANCH  21  23
ENDBRANCH  20  21
ENDBRANCH  19  20
ENDBRANCH  18  19
ENDBRANCH  16  18
ENDBRANCH  13  16
ENDBRANCH  10  13
ENDBRANCH   7  10
ENDBRANCH   4   7
ENDBRANCH   2   4
TORSDOF 17
ENDMDL
MODEL      446
REMARK 921   NORMALIZED FREE ENERGY PREDICTED BY IDOCK:   51.66 KCAL/MOL
REMARK 922        TOTAL FREE ENERGY PREDICTED BY IDOCK:   99.56 KCAL/MOL
REMARK 923 INTER-LIGAND FREE ENERGY PREDICTED BY IDOCK:   49.38 KCAL/MOL
REMARK 924 INTRA-LIGAND FREE ENERGY PREDICTED BY IDOCK:   50.18 KCAL/MOL
REMARK 927      BINDING AFFINITY PREDICTED BY RF-SCORE:    0.00 PKD
ROOT
HETATM    1  O   UNL     1     -11.964  12.367  69.817  1.00  0.00    -0.312 OA 
HETATM    2  C   UNL     1     -12.281  11.751  71.035  1.00  0.00    -0.198 C  
HETATM    3  H   UNL     1     -12.525  13.122  69.684  1.00  0.00     0.000 HD 
ENDROOT
BRANCH   2   4
HETATM    4  C   UNL     1     -11.371  10.529  71.249  1.00  0.00     0.284 C  
HETATM    5  O   UNL     1     -11.875   9.441  70.516  1.00  0.00    -0.381 OA 
HETATM    6  H   UNL     1     -11.313   8.686  70.648  1.00  0.00     0.000 HD 
BRANCH   4   7
HETATM    7  C   UNL     1      -9.913  10.820  70.806  1.00  0.00     2.175 C  
HETATM    8  H   UNL     1      -8.813  10.509  69.233  1.00  0.00     0.000 HD 
HETATM    9  O   UNL     1      -9.707  10.331  69.504  1.00  0.00    -0.224 OA 
BRANCH   7  10
HETATM   10  C   UNL     1      -9.590  12.338  70.833  1.00  0.00     8.710 C  
HETATM   11  H   UNL     1     -10.600  13.981  70.739  1.00  0.00     0.000 HD 
HETATM   12  O   UNL     1     -10.797  13.052  70.722  1.00  0.00     1.929 OA 
BRANCH  10  13
HETATM   13  C   UNL     1      -8.634  12.787  69.694  1.00  0.00     1.971 C  
HETATM   14  H   UNL     1      -8.342  14.385  68.629  1.00  0.00     0.000 HD 
HETATM   15  O   UNL     1      -8.927  14.110  69.325  1.00  0.00     0.144 OA 
BRANCH  13  16
HETATM   16  C   UNL     1      -7.174  12.725  70.076  1.00  0.00     1.156 C  
HETATM   17  O   UNL     1      -6.540  13.759  70.215  1.00  0.00    -0.018 OA 
BRANCH  16  18
HETATM   18  O   UNL     1      -6.551  11.543  70.257  1.00  0.00    -0.177 OA 
BRANCH  18  19
HETATM   19 CA   UNL     1      -7.224   9.640  68.922  1.00  0.00    -0.061 Ca 
BRANCH  19  20
HETATM   20  O   UNL     1      -7.896   7.736  67.588  1.00  0.00    -0.118 OA 
BRANCH  20  21
HETATM   21  C   UNL     1      -8.039   8.133  66.312  1.00  0.00    -0.107 C  
HETATM   22  O   UNL     1      -8.386   7.300  65.491  1.00  0.00    -0.134 OA 
BRANCH  21  23
HETATM   23  C   UNL     1      -7.622   9.512  65.854  1.00  0.00    -0.100 C  
HETATM   24  H   UNL     1      -6.354  10.239  64.593  1.00  0.00     0.000 HD 
HETATM   25  O   UNL     1      -6.616   9.373  64.881  1.00  0.00    -0.077 OA 
BRANCH  23  26
HETATM   26  C   UNL     1      -7.105  10.446  66.990  1.00  0.00    -0.092 C  
HETATM   27  H   UNL     1      -5.390  10.921  67.761  1.00  0.00     0.000 HD 
HETATM   28  O   UNL     1      -5.705  10.352  67.069  1.00  0.00    -0.045 OA 
BRANCH  26  29
HETATM   29  C   UNL     1      -7.529  11.954  66.932  1.00  0.00    -0.079 C  
BRANCH  29  30
HETATM   30  O   UNL     1      -8.688  12.014  66.114  1.00  0.00    -0.100 OA 
BRANCH  30  31
HETATM   31  C   UNL     1      -9.480  10.843  66.082  1.00  0.00    -0.200 C  
HETATM   32  O   UNL     1      -8.699   9.738  65.660  1.00  0.00    -0.137 OA 
HETATM   33  C   UNL     1      -9.478   8.552  65.639  1.00  0.00     0.019 C  
HETATM   34  H   UNL     1     -12.109  12.364  64.835  1.00  0.00     0.000 HD 
HETATM   35  C   UNL     1     -10.577   8.655  64.550  1.00  0.00     6.206 C  
HETATM   36  O   UNL     1      -9.999   8.856  63.283  1.00  0.00     1.188 OA 
HETATM   37  C   UNL     1     -11.494   9.847  64.898  1.00  0.00     4.403 C  
HETATM   38  O   UNL     1     -11.408  12.205  65.456  1.00  0.00    -0.328 OA 
HETATM   39  H   UNL     1     -10.673   8.919  62.616  1.00  0.00     0.000 HD 
HETATM   40  O   UNL     1     -12.451  10.077  63.894  1.00  0.00     5.562 OA 
HETATM   41  C   UNL     1     -10.623  11.103  65.069  1.00  0.00    -0.273 C  
HETATM   42  H   UNL     1     -13.015  10.810  64.109  1.00  0.00     0.000 HD 
BRANCH  33  43
HETATM   43  C   UNL     1      -8.531   7.367  65.395  1.00  0.00    -0.092 C  
HETATM   44  O   UNL     1      -9.070   6.465  64.467  1.00  0.00    -0.057 OA 
HETATM   45  H   UNL     1      -8.485   5.733  64.316  1.00  0.00     0.000 HD 
ENDBRANCH  33  43
ENDBRANCH  30  31
ENDBRANCH  29  30
BRANCH  29  46
HETATM   46  C   UNL     1      -6.421  12.961  66.459  1.00  0.00     1.824 C  
HETATM   47  O   UNL     1      -5.576  13.319  67.527  1.00  0.00    -0.287 OA 
HETATM   48  H   UNL     1      -4.906  13.928  67.241  1.00  0.00     0.000 HD 
BRANCH  46  49
HETATM   49  C   UNL     1      -6.944  14.194  65.687  1.00  0.00     8.261 C  
HETATM   50  H   UNL     1      -8.017  14.558  64.094  1.00  0.00     0.000 HD 
HETATM   51  O   UNL     1      -7.695  13.800  64.568  1.00  0.00     9.152 OA 
ENDBRANCH  46  49
ENDBRANCH  29  46
ENDBRANCH  26  29
ENDBRANCH  23  26
ENDBRANCH  21  23
ENDBRANCH  20  21
ENDBRANCH  19  20
ENDBRANCH  18  19
ENDBRANCH  16  18
ENDBRANCH  13  16
ENDBRANCH  10  13
ENDBRANCH   7  10
ENDBRANCH   4   7
ENDBRANCH   2   4
TORSDOF 17
ENDMDL
