MODEL        1
REMARK 921   NORMALIZED FREE ENERGY PREDICTED BY IDOCK:   -6.22 KCAL/MOL
REMARK 922        TOTAL FREE ENERGY PREDICTED BY IDOCK:   -8.04 KCAL/MOL
REMARK 923 INTER-LIGAND FREE ENERGY PREDICTED BY IDOCK:   -7.68 KCAL/MOL
REMARK 924 INTRA-LIGAND FREE ENERGY PREDICTED BY IDOCK:   -0.37 KCAL/MOL
REMARK 927      BINDING AFFINITY PREDICTED BY RF-SCORE:    0.00 PKD
ROOT
HETATM    1 CA   UNL     1     -11.910   9.946  67.334  1.00  0.00    -0.421 Ca 
HETATM    2  C   UNL     2     -12.612  10.622  71.380  1.00  0.00    -0.526 C  
HETATM    3  C   UNL     2     -12.401  11.551  70.221  1.00  0.00    -0.273 C  
HETATM    4  C   UNL     3     -12.734  12.384  64.553  1.00  0.00    -0.404 C  
HETATM    5  C   UNL     3     -11.773  12.681  65.659  1.00  0.00    -0.412 C  
HETATM    6  O   UNL     3     -11.325  11.722  66.318  1.00  0.00    -0.329 OA 
HETATM    7  O   UNL     2     -12.429  11.072  69.075  1.00  0.00    -0.449 OA 
ENDROOT
BRANCH   3   8
HETATM    8  C   UNL     2     -12.144  13.009  70.487  1.00  0.00    -0.373 C  
BRANCH   8   9
HETATM    9  C   UNL     2     -12.925  13.489  71.697  1.00  0.00    -0.447 C  
HETATM   10  O   UNL     2     -13.434  15.640  70.966  1.00  0.00    -0.575 OA 
HETATM   11  O   UNL     2     -11.746  15.336  72.499  1.00  0.00    -0.426 OA 
HETATM   12  C   UNL     2     -12.683  14.988  71.734  1.00  0.00    -0.339 C  
ENDBRANCH   8   9
ENDBRANCH   3   8
BRANCH   5  13
HETATM   13  C   UNL     3     -11.476  14.122  66.003  1.00  0.00    -0.343 C  
BRANCH  13  14
HETATM   14  C   UNL     3     -10.587  14.718  64.935  1.00  0.00    -0.431 C  
HETATM   15  C   UNL     3     -11.171  16.071  64.581  1.00  0.00    -0.330 C  
HETATM   16  O   UNL     3     -10.556  17.046  65.079  1.00  0.00    -0.703 OA 
HETATM   17  O   UNL     3     -12.178  16.002  63.825  1.00  0.00    -0.895 OA 
ENDBRANCH  13  14
ENDBRANCH   5  13
TORSDOF 4
ENDMDL
MODEL        2
REMARK 921   NORMALIZED FREE ENERGY PREDICTED BY IDOCK:   -5.87 KCAL/MOL
REMARK 922        TOTAL FREE ENERGY PREDICTED BY IDOCK:   -7.60 KCAL/MOL
REMARK 923 INTER-LIGAND FREE ENERGY PREDICTED BY IDOCK:   -6.97 KCAL/MOL
REMARK 924 INTRA-LIGAND FREE ENERGY PREDICTED BY IDOCK:   -0.63 KCAL/MOL
REMARK 927      BINDING AFFINITY PREDICTED BY RF-SCORE:    0.00 PKD
ROOT
HETATM    1 CA   UNL     1      -9.714  14.347  69.839  1.00  0.00    -0.380 Ca 
HETATM    2  C   UNL     2     -11.437  11.384  67.479  1.00  0.00    -0.336 C  
HETATM    3  C   UNL     2     -11.351  12.874  67.329  1.00  0.00    -0.310 C  
HETATM    4  C   UNL     3      -8.532  17.716  68.570  1.00  0.00    -0.289 C  
HETATM    5  C   UNL     3      -9.952  17.252  68.494  1.00  0.00    -0.320 C  
HETATM    6  O   UNL     3     -10.295  16.299  69.221  1.00  0.00    -0.241 OA 
HETATM    7  O   UNL     2     -10.582  13.494  68.082  1.00  0.00    -0.232 OA 
ENDROOT
BRANCH   3   8
HETATM    8  C   UNL     2     -12.206  13.558  66.297  1.00  0.00    -0.468 C  
BRANCH   8   9
HETATM    9  C   UNL     2     -12.457  12.649  65.108  1.00  0.00    -0.531 C  
HETATM   10  O   UNL     2     -10.576  13.182  63.843  1.00  0.00    -0.361 OA 
HETATM   11  O   UNL     2     -12.617  14.073  63.266  1.00  0.00    -0.801 OA 
HETATM   12  C   UNL     2     -11.815  13.371  63.936  1.00  0.00    -0.439 C  
ENDBRANCH   8   9
ENDBRANCH   3   8
BRANCH   5  13
HETATM   13  C   UNL     3     -10.871  17.875  67.470  1.00  0.00    -0.239 C  
BRANCH  13  14
HETATM   14  C   UNL     3     -10.127  18.035  66.163  1.00  0.00    -0.334 C  
HETATM   15  C   UNL     3     -10.423  16.801  65.334  1.00  0.00    -0.193 C  
HETATM   16  O   UNL     3     -11.264  16.982  64.420  1.00  0.00    -1.167 OA 
HETATM   17  O   UNL     3      -9.760  15.788  65.686  1.00  0.00    -0.331 OA 
ENDBRANCH  13  14
ENDBRANCH   5  13
TORSDOF 4
ENDMDL
MODEL        3
REMARK 921   NORMALIZED FREE ENERGY PREDICTED BY IDOCK:   -5.77 KCAL/MOL
REMARK 922        TOTAL FREE ENERGY PREDICTED BY IDOCK:   -7.49 KCAL/MOL
REMARK 923 INTER-LIGAND FREE ENERGY PREDICTED BY IDOCK:   -6.93 KCAL/MOL
REMARK 924 INTRA-LIGAND FREE ENERGY PREDICTED BY IDOCK:   -0.56 KCAL/MOL
REMARK 927      BINDING AFFINITY PREDICTED BY RF-SCORE:    0.00 PKD
ROOT
HETATM    1 CA   UNL     1     -11.800  16.556  63.182  1.00  0.00    -0.639 Ca 
HETATM    2  C   UNL     2     -10.287  19.563  65.630  1.00  0.00    -0.349 C  
HETATM    3  C   UNL     2     -10.652  18.132  65.893  1.00  0.00    -0.234 C  
HETATM    4  C   UNL     3     -11.358  12.841  63.784  1.00  0.00    -0.520 C  
HETATM    5  C   UNL     3     -12.066  13.757  64.731  1.00  0.00    -0.410 C  
HETATM    6  O   UNL     3     -12.445  14.864  64.300  1.00  0.00    -0.670 OA 
HETATM    7  O   UNL     2     -10.879  17.396  64.918  1.00  0.00    -0.814 OA 
ENDROOT
BRANCH   3   8
HETATM    8  C   UNL     2     -10.751  17.650  67.315  1.00  0.00    -0.234 C  
BRANCH   8   9
HETATM    9  C   UNL     2     -10.434  16.169  67.413  1.00  0.00    -0.310 C  
HETATM   10  O   UNL     2     -11.983  15.577  69.048  1.00  0.00    -0.354 OA 
HETATM   11  O   UNL     2      -9.770  15.825  69.623  1.00  0.00    -0.271 OA 
HETATM   12  C   UNL     2     -10.763  15.805  68.850  1.00  0.00    -0.248 C  
ENDBRANCH   8   9
ENDBRANCH   3   8
BRANCH   5  13
HETATM   13  C   UNL     3     -12.189  13.355  66.182  1.00  0.00    -0.471 C  
BRANCH  13  14
HETATM   14  C   UNL     3     -11.652  11.954  66.360  1.00  0.00    -0.315 C  
HETATM   15  C   UNL     3     -11.402  11.763  67.843  1.00  0.00    -0.292 C  
HETATM   16  O   UNL     3     -12.273  11.078  68.431  1.00  0.00    -0.586 OA 
HETATM   17  O   UNL     3     -10.342  12.313  68.249  1.00  0.00    -0.209 OA 
ENDBRANCH  13  14
ENDBRANCH   5  13
TORSDOF 4
ENDMDL
MODEL        4
REMARK 921   NORMALIZED FREE ENERGY PREDICTED BY IDOCK:   -5.75 KCAL/MOL
REMARK 922        TOTAL FREE ENERGY PREDICTED BY IDOCK:   -7.47 KCAL/MOL
REMARK 923 INTER-LIGAND FREE ENERGY PREDICTED BY IDOCK:   -6.97 KCAL/MOL
REMARK 924 INTRA-LIGAND FREE ENERGY PREDICTED BY IDOCK:   -0.50 KCAL/MOL
REMARK 927      BINDING AFFINITY PREDICTED BY RF-SCORE:    0.00 PKD
ROOT
HETATM    1 CA   UNL     1     -11.577   9.997  67.028  1.00  0.00    -0.224 Ca 
HETATM    2  C   UNL     2     -12.319  10.607  71.077  1.00  0.00    -0.507 C  
HETATM    3  C   UNL     2     -12.285  11.541  69.903  1.00  0.00    -0.258 C  
HETATM    4  C   UNL     3     -12.843  12.218  64.232  1.00  0.00    -0.336 C  
HETATM    5  C   UNL     3     -11.928  12.689  65.316  1.00  0.00    -0.439 C  
HETATM    6  O   UNL     3     -11.315  11.829  65.979  1.00  0.00    -0.330 OA 
HETATM    7  O   UNL     2     -12.250  11.046  68.764  1.00  0.00    -0.546 OA 
ENDROOT
BRANCH   3   8
HETATM    8  C   UNL     2     -12.273  13.025  70.146  1.00  0.00    -0.342 C  
BRANCH   8   9
HETATM    9  C   UNL     2     -11.190  13.704  69.328  1.00  0.00    -0.284 C  
HETATM   10  O   UNL     2     -10.788  15.534  70.710  1.00  0.00    -0.329 OA 
HETATM   11  O   UNL     2     -12.043  15.811  68.803  1.00  0.00    -0.314 OA 
HETATM   12  C   UNL     2     -11.348  15.182  69.642  1.00  0.00    -0.283 C  
ENDBRANCH   8   9
ENDBRANCH   3   8
BRANCH   5  13
HETATM   13  C   UNL     3     -11.873  14.165  65.637  1.00  0.00    -0.377 C  
BRANCH  13  14
HETATM   14  C   UNL     3     -10.674  14.780  64.952  1.00  0.00    -0.438 C  
HETATM   15  C   UNL     3     -10.972  16.258  64.787  1.00  0.00    -0.272 C  
HETATM   16  O   UNL     3     -10.384  17.000  65.611  1.00  0.00    -0.542 OA 
HETATM   17  O   UNL     3     -11.755  16.509  63.831  1.00  0.00    -1.148 OA 
ENDBRANCH  13  14
ENDBRANCH   5  13
TORSDOF 4
ENDMDL
MODEL        5
REMARK 921   NORMALIZED FREE ENERGY PREDICTED BY IDOCK:   -5.74 KCAL/MOL
REMARK 922        TOTAL FREE ENERGY PREDICTED BY IDOCK:   -7.44 KCAL/MOL
REMARK 923 INTER-LIGAND FREE ENERGY PREDICTED BY IDOCK:   -6.99 KCAL/MOL
REMARK 924 INTRA-LIGAND FREE ENERGY PREDICTED BY IDOCK:   -0.46 KCAL/MOL
REMARK 927      BINDING AFFINITY PREDICTED BY RF-SCORE:    0.00 PKD
ROOT
HETATM    1 CA   UNL     1     -11.012  18.021  70.390  1.00  0.00    -0.493 Ca 
HETATM    2  C   UNL     2     -13.018  14.452  71.138  1.00  0.00    -0.419 C  
HETATM    3  C   UNL     2     -12.145  14.904  70.004  1.00  0.00    -0.338 C  
HETATM    4  C   UNL     3      -7.932  18.363  68.209  1.00  0.00    -0.317 C  
HETATM    5  C   UNL     3      -9.256  17.880  67.706  1.00  0.00    -0.258 C  
HETATM    6  O   UNL     3     -10.265  18.116  68.399  1.00  0.00    -0.365 OA 
HETATM    7  O   UNL     2     -11.497  15.954  70.147  1.00  0.00    -0.316 OA 
ENDROOT
BRANCH   3   8
HETATM    8  C   UNL     2     -12.105  14.089  68.740  1.00  0.00    -0.338 C  
BRANCH   8   9
HETATM    9  C   UNL     2     -11.115  12.945  68.859  1.00  0.00    -0.301 C  
HETATM   10  O   UNL     2     -11.793  11.689  67.019  1.00  0.00    -0.591 OA 
HETATM   11  O   UNL     2     -12.416  11.028  69.133  1.00  0.00    -0.432 OA 
HETATM   12  C   UNL     2     -11.845  11.749  68.274  1.00  0.00    -0.271 C  
ENDBRANCH   8   9
ENDBRANCH   3   8
BRANCH   5  13
HETATM   13  C   UNL     3      -9.299  17.038  66.453  1.00  0.00    -0.295 C  
BRANCH  13  14
HETATM   14  C   UNL     3     -10.592  16.255  66.421  1.00  0.00    -0.253 C  
HETATM   15  C   UNL     3     -10.884  15.945  64.966  1.00  0.00    -0.426 C  
HETATM   16  O   UNL     3     -10.623  14.765  64.626  1.00  0.00    -0.374 OA 
HETATM   17  O   UNL     3     -11.360  16.924  64.329  1.00  0.00    -1.202 OA 
ENDBRANCH  13  14
ENDBRANCH   5  13
TORSDOF 4
ENDMDL
MODEL        6
REMARK 921   NORMALIZED FREE ENERGY PREDICTED BY IDOCK:   -5.73 KCAL/MOL
REMARK 922        TOTAL FREE ENERGY PREDICTED BY IDOCK:   -7.44 KCAL/MOL
REMARK 923 INTER-LIGAND FREE ENERGY PREDICTED BY IDOCK:   -6.83 KCAL/MOL
REMARK 924 INTRA-LIGAND FREE ENERGY PREDICTED BY IDOCK:   -0.61 KCAL/MOL
REMARK 927      BINDING AFFINITY PREDICTED BY RF-SCORE:    0.00 PKD
ROOT
HETATM    1 CA   UNL     1     -11.189  17.253  70.391  1.00  0.00    -0.499 Ca 
HETATM    2  C   UNL     2     -10.010  16.704  66.438  1.00  0.00    -0.316 C  
HETATM    3  C   UNL     2     -10.747  15.825  67.406  1.00  0.00    -0.317 C  
HETATM    4  C   UNL     3     -14.089  15.472  72.057  1.00  0.00    -0.598 C  
HETATM    5  C   UNL     3     -12.893  14.768  71.500  1.00  0.00    -0.331 C  
HETATM    6  O   UNL     3     -11.867  15.443  71.281  1.00  0.00    -0.309 OA 
HETATM    7  O   UNL     2     -11.157  16.333  68.463  1.00  0.00    -0.337 OA 
ENDROOT
BRANCH   3   8
HETATM    8  C   UNL     2     -10.942  14.371  67.073  1.00  0.00    -0.304 C  
BRANCH   8   9
HETATM    9  C   UNL     2     -12.410  14.052  66.856  1.00  0.00    -0.321 C  
HETATM   10  O   UNL     2     -12.175  12.164  65.514  1.00  0.00    -0.549 OA 
HETATM   11  O   UNL     2     -12.734  14.175  64.548  1.00  0.00    -0.656 OA 
HETATM   12  C   UNL     2     -12.457  13.388  65.491  1.00  0.00    -0.483 C  
ENDBRANCH   8   9
ENDBRANCH   3   8
BRANCH   5  13
HETATM   13  C   UNL     3     -13.012  13.311  71.121  1.00  0.00    -0.297 C  
BRANCH  13  14
HETATM   14  C   UNL     3     -11.828  12.917  70.269  1.00  0.00    -0.291 C  
HETATM   15  C   UNL     3     -11.980  11.441  69.959  1.00  0.00    -0.363 C  
HETATM   16  O   UNL     3     -12.392  11.196  68.798  1.00  0.00    -0.539 OA 
HETATM   17  O   UNL     3     -11.651  10.689  70.916  1.00  0.00    -0.320 OA 
ENDBRANCH  13  14
ENDBRANCH   5  13
TORSDOF 4
ENDMDL
MODEL        7
REMARK 921   NORMALIZED FREE ENERGY PREDICTED BY IDOCK:   -5.59 KCAL/MOL
REMARK 922        TOTAL FREE ENERGY PREDICTED BY IDOCK:   -7.26 KCAL/MOL
REMARK 923 INTER-LIGAND FREE ENERGY PREDICTED BY IDOCK:   -6.70 KCAL/MOL
REMARK 924 INTRA-LIGAND FREE ENERGY PREDICTED BY IDOCK:   -0.56 KCAL/MOL
REMARK 927      BINDING AFFINITY PREDICTED BY RF-SCORE:    0.00 PKD
ROOT
HETATM    1 CA   UNL     1     -14.411  13.605  72.669  1.00  0.00    -0.447 Ca 
HETATM    2  C   UNL     2     -13.528   9.569  72.164  1.00  0.00    -0.535 C  
HETATM    3  C   UNL     2     -12.868  10.820  71.663  1.00  0.00    -0.457 C  
HETATM    4  C   UNL     3     -11.891  16.424  72.422  1.00  0.00    -0.548 C  
HETATM    5  C   UNL     3     -12.219  15.502  71.291  1.00  0.00    -0.390 C  
HETATM    6  O   UNL     3     -13.273  14.841  71.363  1.00  0.00    -0.330 OA 
HETATM    7  O   UNL     2     -13.223  11.905  72.152  1.00  0.00    -0.494 OA 
ENDROOT
BRANCH   3   8
HETATM    8  C   UNL     2     -11.825  10.716  70.583  1.00  0.00    -0.463 C  
BRANCH   8   9
HETATM    9  C   UNL     2     -11.794  11.972  69.732  1.00  0.00    -0.401 C  
HETATM   10  O   UNL     2     -11.805  10.979  67.625  1.00  0.00    -0.599 OA 
HETATM   11  O   UNL     2      -9.836  11.816  68.472  1.00  0.00    -0.203 OA 
HETATM   12  C   UNL     2     -11.067  11.554  68.465  1.00  0.00    -0.236 C  
ENDBRANCH   8   9
ENDBRANCH   3   8
BRANCH   5  13
HETATM   13  C   UNL     3     -11.215  15.327  70.176  1.00  0.00    -0.313 C  
BRANCH  13  14
HETATM   14  C   UNL     3     -11.705  16.051  68.943  1.00  0.00    -0.322 C  
HETATM   15  C   UNL     3     -11.163  15.297  67.745  1.00  0.00    -0.326 C  
HETATM   16  O   UNL     3     -12.006  14.567  67.168  1.00  0.00    -0.406 OA 
HETATM   17  O   UNL     3      -9.948  15.537  67.508  1.00  0.00    -0.228 OA 
ENDBRANCH  13  14
ENDBRANCH   5  13
TORSDOF 4
ENDMDL
MODEL        8
REMARK 921   NORMALIZED FREE ENERGY PREDICTED BY IDOCK:   -5.52 KCAL/MOL
REMARK 922        TOTAL FREE ENERGY PREDICTED BY IDOCK:   -7.17 KCAL/MOL
REMARK 923 INTER-LIGAND FREE ENERGY PREDICTED BY IDOCK:   -6.50 KCAL/MOL
REMARK 924 INTRA-LIGAND FREE ENERGY PREDICTED BY IDOCK:   -0.67 KCAL/MOL
REMARK 927      BINDING AFFINITY PREDICTED BY RF-SCORE:    0.00 PKD
ROOT
HETATM    1 CA   UNL     1     -11.714  16.537  63.377  1.00  0.00    -0.743 Ca 
HETATM    2  C   UNL     2     -10.029  19.175  66.119  1.00  0.00    -0.441 C  
HETATM    3  C   UNL     2     -10.515  17.760  66.242  1.00  0.00    -0.307 C  
HETATM    4  C   UNL     3     -11.587  12.759  63.640  1.00  0.00    -0.572 C  
HETATM    5  C   UNL     3     -12.244  13.640  64.655  1.00  0.00    -0.409 C  
HETATM    6  O   UNL     3     -12.521  14.809  64.322  1.00  0.00    -0.661 OA 
HETATM    7  O   UNL     2     -10.774  17.138  65.199  1.00  0.00    -0.680 OA 
ENDROOT
BRANCH   3   8
HETATM    8  C   UNL     2     -10.688  17.161  67.612  1.00  0.00    -0.302 C  
BRANCH   8   9
HETATM    9  C   UNL     2      -9.669  17.722  68.586  1.00  0.00    -0.346 C  
HETATM   10  O   UNL     2      -7.758  16.694  67.740  1.00  0.00    -0.158 OA 
HETATM   11  O   UNL     2      -8.741  15.862  69.646  1.00  0.00    -0.185 OA 
HETATM   12  C   UNL     2      -8.598  16.649  68.674  1.00  0.00    -0.253 C  
ENDBRANCH   8   9
ENDBRANCH   3   8
BRANCH   5  13
HETATM   13  C   UNL     3     -12.437  13.120  66.060  1.00  0.00    -0.330 C  
BRANCH  13  14
HETATM   14  C   UNL     3     -11.654  13.982  67.024  1.00  0.00    -0.394 C  
HETATM   15  C   UNL     3     -10.243  13.428  67.064  1.00  0.00    -0.249 C  
HETATM   16  O   UNL     3      -9.406  14.095  66.408  1.00  0.00    -0.275 OA 
HETATM   17  O   UNL     3     -10.131  12.388  67.769  1.00  0.00    -0.195 OA 
ENDBRANCH  13  14
ENDBRANCH   5  13
TORSDOF 4
ENDMDL
MODEL        9
REMARK 921   NORMALIZED FREE ENERGY PREDICTED BY IDOCK:   -5.50 KCAL/MOL
REMARK 922        TOTAL FREE ENERGY PREDICTED BY IDOCK:   -7.16 KCAL/MOL
REMARK 923 INTER-LIGAND FREE ENERGY PREDICTED BY IDOCK:   -6.50 KCAL/MOL
REMARK 924 INTRA-LIGAND FREE ENERGY PREDICTED BY IDOCK:   -0.66 KCAL/MOL
REMARK 927      BINDING AFFINITY PREDICTED BY RF-SCORE:    0.00 PKD
ROOT
HETATM    1 CA   UNL     1     -10.875  16.198  63.594  1.00  0.00    -0.630 Ca 
HETATM    2  C   UNL     2     -12.305  12.293  63.436  1.00  0.00    -0.624 C  
HETATM    3  C   UNL     2     -11.712  13.109  64.546  1.00  0.00    -0.371 C  
HETATM    4  C   UNL     3     -10.705  18.320  66.729  1.00  0.00    -0.247 C  
HETATM    5  C   UNL     3      -9.965  17.032  66.557  1.00  0.00    -0.310 C  
HETATM    6  O   UNL     3      -9.821  16.590  65.400  1.00  0.00    -0.530 OA 
HETATM    7  O   UNL     2     -11.570  14.330  64.364  1.00  0.00    -0.382 OA 
ENDROOT
BRANCH   3   8
HETATM    8  C   UNL     2     -11.295  12.423  65.818  1.00  0.00    -0.393 C  
BRANCH   8   9
HETATM    9  C   UNL     2     -12.021  13.005  67.017  1.00  0.00    -0.409 C  
HETATM   10  O   UNL     2     -10.376  12.674  68.631  1.00  0.00    -0.228 OA 
HETATM   11  O   UNL     2     -12.185  11.255  68.551  1.00  0.00    -0.588 OA 
HETATM   12  C   UNL     2     -11.473  12.234  68.205  1.00  0.00    -0.316 C  
ENDBRANCH   8   9
ENDBRANCH   3   8
BRANCH   5  13
HETATM   13  C   UNL     3      -9.529  16.270  67.787  1.00  0.00    -0.221 C  
BRANCH  13  14
HETATM   14  C   UNL     3     -10.077  16.953  69.019  1.00  0.00    -0.292 C  
HETATM   15  C   UNL     3     -11.023  15.973  69.682  1.00  0.00    -0.326 C  
HETATM   16  O   UNL     3     -10.550  15.401  70.695  1.00  0.00    -0.290 OA 
HETATM   17  O   UNL     3     -12.148  15.899  69.118  1.00  0.00    -0.339 OA 
ENDBRANCH  13  14
ENDBRANCH   5  13
TORSDOF 4
ENDMDL
MODEL       10
REMARK 921   NORMALIZED FREE ENERGY PREDICTED BY IDOCK:   -5.49 KCAL/MOL
REMARK 922        TOTAL FREE ENERGY PREDICTED BY IDOCK:   -7.15 KCAL/MOL
REMARK 923 INTER-LIGAND FREE ENERGY PREDICTED BY IDOCK:   -6.78 KCAL/MOL
REMARK 924 INTRA-LIGAND FREE ENERGY PREDICTED BY IDOCK:   -0.37 KCAL/MOL
REMARK 927      BINDING AFFINITY PREDICTED BY RF-SCORE:    0.00 PKD
ROOT
HETATM    1 CA   UNL     1     -12.853  15.186  69.140  1.00  0.00    -0.505 Ca 
HETATM    2  C   UNL     2     -13.100  12.189  72.017  1.00  0.00    -0.462 C  
HETATM    3  C   UNL     2     -12.522  12.218  70.633  1.00  0.00    -0.236 C  
HETATM    4  C   UNL     3     -10.248  15.345  66.392  1.00  0.00    -0.296 C  
HETATM    5  C   UNL     3     -11.235  14.231  66.537  1.00  0.00    -0.332 C  
HETATM    6  O   UNL     3     -12.240  14.428  67.248  1.00  0.00    -0.383 OA 
HETATM    7  O   UNL     2     -12.393  13.320  70.075  1.00  0.00    -0.281 OA 
ENDROOT
BRANCH   3   8
HETATM    8  C   UNL     2     -12.143  10.921  69.969  1.00  0.00    -0.433 C  
BRANCH   8   9
HETATM    9  C   UNL     2     -11.040  10.217  70.737  1.00  0.00    -0.372 C  
HETATM   10  O   UNL     2     -11.499   8.025  70.098  1.00  0.00    -0.159 OA 
HETATM   11  O   UNL     2     -12.135   8.752  72.186  1.00  0.00    -0.347 OA 
HETATM   12  C   UNL     2     -11.610   8.843  71.046  1.00  0.00    -0.293 C  
ENDBRANCH   8   9
ENDBRANCH   3   8
BRANCH   5  13
HETATM   13  C   UNL     3     -10.920  12.890  65.917  1.00  0.00    -0.300 C  
BRANCH  13  14
HETATM   14  C   UNL     3     -10.819  13.044  64.416  1.00  0.00    -0.409 C  
HETATM   15  C   UNL     3     -12.233  13.211  63.895  1.00  0.00    -0.433 C  
HETATM   16  O   UNL     3     -12.538  14.392  63.598  1.00  0.00    -0.817 OA 
HETATM   17  O   UNL     3     -12.875  12.129  63.827  1.00  0.00    -0.718 OA 
ENDBRANCH  13  14
ENDBRANCH   5  13
TORSDOF 4
ENDMDL
MODEL       11
REMARK 921   NORMALIZED FREE ENERGY PREDICTED BY IDOCK:   -5.49 KCAL/MOL
REMARK 922        TOTAL FREE ENERGY PREDICTED BY IDOCK:   -7.14 KCAL/MOL
REMARK 923 INTER-LIGAND FREE ENERGY PREDICTED BY IDOCK:   -6.74 KCAL/MOL
REMARK 924 INTRA-LIGAND FREE ENERGY PREDICTED BY IDOCK:   -0.40 KCAL/MOL
REMARK 927      BINDING AFFINITY PREDICTED BY RF-SCORE:    0.00 PKD
ROOT
HETATM    1 CA   UNL     1      -9.856  14.388  70.031  1.00  0.00    -0.392 Ca 
HETATM    2  C   UNL     2     -11.658  11.452  67.695  1.00  0.00    -0.315 C  
HETATM    3  C   UNL     2     -11.450  12.924  67.488  1.00  0.00    -0.335 C  
HETATM    4  C   UNL     3      -8.349  17.599  68.697  1.00  0.00    -0.267 C  
HETATM    5  C   UNL     3      -9.793  17.237  68.553  1.00  0.00    -0.307 C  
HETATM    6  O   UNL     3     -10.249  16.346  69.296  1.00  0.00    -0.250 OA 
HETATM    7  O   UNL     2     -10.682  13.520  68.261  1.00  0.00    -0.243 OA 
ENDROOT
BRANCH   3   8
HETATM    8  C   UNL     2     -12.189  13.619  66.377  1.00  0.00    -0.472 C  
BRANCH   8   9
HETATM    9  C   UNL     2     -12.481  12.665  65.234  1.00  0.00    -0.483 C  
HETATM   10  O   UNL     2     -10.630  13.125  63.898  1.00  0.00    -0.361 OA 
HETATM   11  O   UNL     2     -12.678  14.013  63.340  1.00  0.00    -0.796 OA 
HETATM   12  C   UNL     2     -11.865  13.331  64.016  1.00  0.00    -0.455 C  
ENDBRANCH   8   9
ENDBRANCH   3   8
BRANCH   5  13
HETATM   13  C   UNL     3     -10.600  17.877  67.448  1.00  0.00    -0.370 C  
BRANCH  13  14
HETATM   14  C   UNL     3     -10.381  19.372  67.470  1.00  0.00    -0.556 C  
HETATM   15  C   UNL     3      -9.890  19.766  66.090  1.00  0.00    -0.448 C  
HETATM   16  O   UNL     3     -10.762  20.303  65.365  1.00  0.00    -0.271 OA 
HETATM   17  O   UNL     3      -8.672  19.502  65.896  1.00  0.00    -0.417 OA 
ENDBRANCH  13  14
ENDBRANCH   5  13
TORSDOF 4
ENDMDL
MODEL       12
REMARK 921   NORMALIZED FREE ENERGY PREDICTED BY IDOCK:   -5.48 KCAL/MOL
REMARK 922        TOTAL FREE ENERGY PREDICTED BY IDOCK:   -7.13 KCAL/MOL
REMARK 923 INTER-LIGAND FREE ENERGY PREDICTED BY IDOCK:   -6.58 KCAL/MOL
REMARK 924 INTRA-LIGAND FREE ENERGY PREDICTED BY IDOCK:   -0.55 KCAL/MOL
REMARK 927      BINDING AFFINITY PREDICTED BY RF-SCORE:    0.00 PKD
ROOT
HETATM    1 CA   UNL     1      -9.541  11.259  67.874  1.00  0.00    -0.154 Ca 
HETATM    2  C   UNL     2      -9.130   9.674  64.048  1.00  0.00    -0.246 C  
HETATM    3  C   UNL     2      -9.541  11.030  64.543  1.00  0.00    -0.256 C  
HETATM    4  C   UNL     3      -9.294  14.941  68.735  1.00  0.00    -0.203 C  
HETATM    5  C   UNL     3     -10.325  14.371  67.814  1.00  0.00    -0.238 C  
HETATM    6  O   UNL     3     -10.532  13.142  67.856  1.00  0.00    -0.229 OA 
HETATM    7  O   UNL     2      -9.366  11.292  65.744  1.00  0.00    -0.213 OA 
ENDROOT
BRANCH   3   8
HETATM    8  C   UNL     2     -10.165  12.004  63.580  1.00  0.00    -0.470 C  
BRANCH   8   9
HETATM    9  C   UNL     2     -11.662  11.780  63.470  1.00  0.00    -0.485 C  
HETATM   10  O   UNL     2     -12.372  13.988  63.679  1.00  0.00    -0.728 OA 
HETATM   11  O   UNL     2     -12.553  12.565  65.478  1.00  0.00    -0.642 OA 
HETATM   12  C   UNL     2     -12.275  12.897  64.296  1.00  0.00    -0.410 C  
ENDBRANCH   8   9
ENDBRANCH   3   8
BRANCH   5  13
HETATM   13  C   UNL     3     -10.984  15.280  66.804  1.00  0.00    -0.306 C  
BRANCH  13  14
HETATM   14  C   UNL     3      -9.937  16.169  66.173  1.00  0.00    -0.357 C  
HETATM   15  C   UNL     3     -10.658  17.399  65.655  1.00  0.00    -0.153 C  
HETATM   16  O   UNL     3     -10.521  18.419  66.373  1.00  0.00    -0.391 OA 
HETATM   17  O   UNL     3     -11.269  17.203  64.570  1.00  0.00    -1.104 OA 
ENDBRANCH  13  14
ENDBRANCH   5  13
TORSDOF 4
ENDMDL
MODEL       13
REMARK 921   NORMALIZED FREE ENERGY PREDICTED BY IDOCK:   -5.47 KCAL/MOL
REMARK 922        TOTAL FREE ENERGY PREDICTED BY IDOCK:   -7.12 KCAL/MOL
REMARK 923 INTER-LIGAND FREE ENERGY PREDICTED BY IDOCK:   -6.68 KCAL/MOL
REMARK 924 INTRA-LIGAND FREE ENERGY PREDICTED BY IDOCK:   -0.44 KCAL/MOL
REMARK 927      BINDING AFFINITY PREDICTED BY RF-SCORE:    0.00 PKD
ROOT
HETATM    1 CA   UNL     1     -11.081  10.148  67.333  1.00  0.00    -0.225 Ca 
HETATM    2  C   UNL     2     -11.984   9.826  71.382  1.00  0.00    -0.493 C  
HETATM    3  C   UNL     2     -12.075  10.967  70.413  1.00  0.00    -0.373 C  
HETATM    4  C   UNL     3     -12.628  12.664  64.959  1.00  0.00    -0.504 C  
HETATM    5  C   UNL     3     -11.818  13.043  66.158  1.00  0.00    -0.409 C  
HETATM    6  O   UNL     3     -11.090  12.170  66.671  1.00  0.00    -0.274 OA 
HETATM    7  O   UNL     2     -11.942  10.720  69.203  1.00  0.00    -0.304 OA 
ENDROOT
BRANCH   3   8
HETATM    8  C   UNL     2     -12.299  12.359  70.939  1.00  0.00    -0.358 C  
BRANCH   8   9
HETATM    9  C   UNL     2     -13.421  12.383  71.960  1.00  0.00    -0.460 C  
HETATM   10  O   UNL     2     -14.309  14.480  71.472  1.00  0.00    -0.433 OA 
HETATM   11  O   UNL     2     -12.973  14.220  73.327  1.00  0.00    -0.510 OA 
HETATM   12  C   UNL     2     -13.597  13.853  72.297  1.00  0.00    -0.544 C  
ENDBRANCH   8   9
ENDBRANCH   3   8
BRANCH   5  13
HETATM   13  C   UNL     3     -12.000  14.417  66.759  1.00  0.00    -0.423 C  
BRANCH  13  14
HETATM   14  C   UNL     3     -11.133  14.542  67.991  1.00  0.00    -0.289 C  
HETATM   15  C   UNL     3     -11.417  15.905  68.592  1.00  0.00    -0.391 C  
HETATM   16  O   UNL     3     -12.161  15.880  69.603  1.00  0.00    -0.327 OA 
HETATM   17  O   UNL     3     -10.843  16.851  67.986  1.00  0.00    -0.363 OA 
ENDBRANCH  13  14
ENDBRANCH   5  13
TORSDOF 4
ENDMDL
MODEL       14
REMARK 921   NORMALIZED FREE ENERGY PREDICTED BY IDOCK:   -5.46 KCAL/MOL
REMARK 922        TOTAL FREE ENERGY PREDICTED BY IDOCK:   -7.10 KCAL/MOL
REMARK 923 INTER-LIGAND FREE ENERGY PREDICTED BY IDOCK:   -6.34 KCAL/MOL
REMARK 924 INTRA-LIGAND FREE ENERGY PREDICTED BY IDOCK:   -0.76 KCAL/MOL
REMARK 927      BINDING AFFINITY PREDICTED BY RF-SCORE:    0.00 PKD
ROOT
HETATM    1 CA   UNL     1     -10.585  11.367  68.632  1.00  0.00    -0.156 Ca 
HETATM    2  C   UNL     2     -12.850  13.445  71.438  1.00  0.00    -0.420 C  
HETATM    3  C   UNL     2     -12.267  13.842  70.114  1.00  0.00    -0.358 C  
HETATM    4  C   UNL     3     -10.423  12.189  64.937  1.00  0.00    -0.325 C  
HETATM    5  C   UNL     3      -9.990  13.129  66.016  1.00  0.00    -0.280 C  
HETATM    6  O   UNL     3      -9.771  12.657  67.149  1.00  0.00    -0.203 OA 
HETATM    7  O   UNL     2     -11.814  12.946  69.381  1.00  0.00    -0.303 OA 
ENDROOT
BRANCH   3   8
HETATM    8  C   UNL     2     -12.232  15.298  69.735  1.00  0.00    -0.326 C  
BRANCH   8   9
HETATM    9  C   UNL     2     -11.115  16.025  70.461  1.00  0.00    -0.370 C  
HETATM   10  O   UNL     2     -10.266  17.256  68.677  1.00  0.00    -0.309 OA 
HETATM   11  O   UNL     2      -9.151  15.373  69.384  1.00  0.00    -0.248 OA 
HETATM   12  C   UNL     2     -10.054  16.249  69.399  1.00  0.00    -0.253 C  
ENDBRANCH   8   9
ENDBRANCH   3   8
BRANCH   5  13
HETATM   13  C   UNL     3      -9.947  14.610  65.722  1.00  0.00    -0.365 C  
BRANCH  13  14
HETATM   14  C   UNL     3     -11.326  15.198  65.916  1.00  0.00    -0.225 C  
HETATM   15  C   UNL     3     -11.810  15.647  64.551  1.00  0.00    -0.172 C  
HETATM   16  O   UNL     3     -12.646  14.876  64.019  1.00  0.00    -0.832 OA 
HETATM   17  O   UNL     3     -11.303  16.738  64.172  1.00  0.00    -1.194 OA 
ENDBRANCH  13  14
ENDBRANCH   5  13
TORSDOF 4
ENDMDL
MODEL       15
REMARK 921   NORMALIZED FREE ENERGY PREDICTED BY IDOCK:   -5.44 KCAL/MOL
REMARK 922        TOTAL FREE ENERGY PREDICTED BY IDOCK:   -7.08 KCAL/MOL
REMARK 923 INTER-LIGAND FREE ENERGY PREDICTED BY IDOCK:   -6.67 KCAL/MOL
REMARK 924 INTRA-LIGAND FREE ENERGY PREDICTED BY IDOCK:   -0.41 KCAL/MOL
REMARK 927      BINDING AFFINITY PREDICTED BY RF-SCORE:    0.00 PKD
ROOT
HETATM    1 CA   UNL     1     -11.481   9.201  67.293  1.00  0.00    -0.410 Ca 
HETATM    2  C   UNL     2      -9.602  10.320  63.752  1.00  0.00    -0.344 C  
HETATM    3  C   UNL     2     -10.110  11.111  64.921  1.00  0.00    -0.289 C  
HETATM    4  C   UNL     3     -11.418  11.205  70.508  1.00  0.00    -0.162 C  
HETATM    5  C   UNL     3     -12.003  11.709  69.228  1.00  0.00    -0.317 C  
HETATM    6  O   UNL     3     -12.273  10.875  68.340  1.00  0.00    -0.540 OA 
HETATM    7  O   UNL     2     -10.436  10.492  65.948  1.00  0.00    -0.228 OA 
ENDROOT
BRANCH   3   8
HETATM    8  C   UNL     2     -10.225  12.606  64.801  1.00  0.00    -0.307 C  
BRANCH   8   9
HETATM    9  C   UNL     2     -11.588  13.088  65.262  1.00  0.00    -0.361 C  
HETATM   10  O   UNL     2     -12.895  12.127  63.591  1.00  0.00    -0.746 OA 
HETATM   11  O   UNL     2     -12.416  14.375  63.501  1.00  0.00    -0.770 OA 
HETATM   12  C   UNL     2     -12.399  13.213  63.984  1.00  0.00    -0.352 C  
ENDBRANCH   8   9
ENDBRANCH   3   8
BRANCH   5  13
HETATM   13  C   UNL     3     -12.134  13.199  69.020  1.00  0.00    -0.240 C  
BRANCH  13  14
HETATM   14  C   UNL     3     -11.800  13.915  70.309  1.00  0.00    -0.360 C  
HETATM   15  C   UNL     3     -12.223  15.360  70.133  1.00  0.00    -0.375 C  
HETATM   16  O   UNL     3     -13.297  15.659  70.709  1.00  0.00    -0.535 OA 
HETATM   17  O   UNL     3     -11.413  16.040  69.445  1.00  0.00    -0.333 OA 
ENDBRANCH  13  14
ENDBRANCH   5  13
TORSDOF 4
ENDMDL
MODEL       16
REMARK 921   NORMALIZED FREE ENERGY PREDICTED BY IDOCK:   -5.42 KCAL/MOL
REMARK 922        TOTAL FREE ENERGY PREDICTED BY IDOCK:   -7.06 KCAL/MOL
REMARK 923 INTER-LIGAND FREE ENERGY PREDICTED BY IDOCK:   -6.61 KCAL/MOL
REMARK 924 INTRA-LIGAND FREE ENERGY PREDICTED BY IDOCK:   -0.45 KCAL/MOL
REMARK 927      BINDING AFFINITY PREDICTED BY RF-SCORE:    0.00 PKD
ROOT
HETATM    1 CA   UNL     1     -13.922  11.890  72.906  1.00  0.00    -0.600 Ca 
HETATM    2  C   UNL     2     -11.702   9.328  70.491  1.00  0.00    -0.225 C  
HETATM    3  C   UNL     2     -11.891  10.817  70.483  1.00  0.00    -0.356 C  
HETATM    4  C   UNL     3     -13.157  15.560  73.454  1.00  0.00    -0.651 C  
HETATM    5  C   UNL     3     -13.487  14.971  72.119  1.00  0.00    -0.407 C  
HETATM    6  O   UNL     3     -14.038  13.853  72.094  1.00  0.00    -0.493 OA 
HETATM    7  O   UNL     2     -12.444  11.342  71.463  1.00  0.00    -0.297 OA 
ENDROOT
BRANCH   3   8
HETATM    8  C   UNL     2     -11.429  11.607  69.289  1.00  0.00    -0.364 C  
BRANCH   8   9
HETATM    9  C   UNL     2     -11.243  10.711  68.079  1.00  0.00    -0.373 C  
HETATM   10  O   UNL     2      -9.787  12.054  66.855  1.00  0.00    -0.200 OA 
HETATM   11  O   UNL     2     -12.008  11.960  66.262  1.00  0.00    -0.554 OA 
HETATM   12  C   UNL     2     -10.982  11.671  66.932  1.00  0.00    -0.292 C  
ENDBRANCH   8   9
ENDBRANCH   3   8
BRANCH   5  13
HETATM   13  C   UNL     3     -13.040  15.694  70.871  1.00  0.00    -0.425 C  
BRANCH  13  14
HETATM   14  C   UNL     3     -11.646  15.239  70.501  1.00  0.00    -0.340 C  
HETATM   15  C   UNL     3     -11.317  15.871  69.163  1.00  0.00    -0.366 C  
HETATM   16  O   UNL     3     -10.547  16.860  69.234  1.00  0.00    -0.336 OA 
HETATM   17  O   UNL     3     -11.860  15.290  68.185  1.00  0.00    -0.330 OA 
ENDBRANCH  13  14
ENDBRANCH   5  13
TORSDOF 4
ENDMDL
MODEL       17
REMARK 921   NORMALIZED FREE ENERGY PREDICTED BY IDOCK:   -5.39 KCAL/MOL
REMARK 922        TOTAL FREE ENERGY PREDICTED BY IDOCK:   -7.02 KCAL/MOL
REMARK 923 INTER-LIGAND FREE ENERGY PREDICTED BY IDOCK:   -6.50 KCAL/MOL
REMARK 924 INTRA-LIGAND FREE ENERGY PREDICTED BY IDOCK:   -0.52 KCAL/MOL
REMARK 927      BINDING AFFINITY PREDICTED BY RF-SCORE:    0.00 PKD
ROOT
HETATM    1 CA   UNL     1     -10.600   9.622  63.975  1.00  0.00    -0.404 Ca 
HETATM    2  C   UNL     2      -9.982   7.986  67.752  1.00  0.00    -0.224 C  
HETATM    3  C   UNL     2     -10.095   9.402  67.268  1.00  0.00    -0.226 C  
HETATM    4  C   UNL     3     -12.126  13.025  63.308  1.00  0.00    -0.499 C  
HETATM    5  C   UNL     3     -10.856  12.820  64.071  1.00  0.00    -0.424 C  
HETATM    6  O   UNL     3     -10.274  11.725  63.952  1.00  0.00    -0.306 OA 
HETATM    7  O   UNL     2     -10.499   9.595  66.109  1.00  0.00    -0.179 OA 
ENDROOT
BRANCH   3   8
HETATM    8  C   UNL     2      -9.699  10.525  68.188  1.00  0.00    -0.166 C  
BRANCH   8   9
HETATM    9  C   UNL     2     -10.878  10.991  69.022  1.00  0.00    -0.274 C  
HETATM   10  O   UNL     2     -12.108  12.045  67.349  1.00  0.00    -0.566 OA 
HETATM   11  O   UNL     2     -10.890  13.316  68.830  1.00  0.00    -0.245 OA 
HETATM   12  C   UNL     2     -11.354  12.257  68.332  1.00  0.00    -0.292 C  
ENDBRANCH   8   9
ENDBRANCH   3   8
BRANCH   5  13
HETATM   13  C   UNL     3     -10.399  13.893  65.032  1.00  0.00    -0.418 C  
BRANCH  13  14
HETATM   14  C   UNL     3     -11.546  14.837  65.310  1.00  0.00    -0.338 C  
HETATM   15  C   UNL     3     -11.117  16.207  64.821  1.00  0.00    -0.333 C  
HETATM   16  O   UNL     3     -11.624  16.546  63.723  1.00  0.00    -1.109 OA 
HETATM   17  O   UNL     3     -10.327  16.797  65.607  1.00  0.00    -0.500 OA 
ENDBRANCH  13  14
ENDBRANCH   5  13
TORSDOF 4
ENDMDL
MODEL       18
REMARK 921   NORMALIZED FREE ENERGY PREDICTED BY IDOCK:   -5.39 KCAL/MOL
REMARK 922        TOTAL FREE ENERGY PREDICTED BY IDOCK:   -7.02 KCAL/MOL
REMARK 923 INTER-LIGAND FREE ENERGY PREDICTED BY IDOCK:   -6.70 KCAL/MOL
REMARK 924 INTRA-LIGAND FREE ENERGY PREDICTED BY IDOCK:   -0.31 KCAL/MOL
REMARK 927      BINDING AFFINITY PREDICTED BY RF-SCORE:    0.00 PKD
ROOT
HETATM    1 CA   UNL     1     -10.677  16.375  63.922  1.00  0.00    -0.499 Ca 
HETATM    2  C   UNL     2     -12.659  12.863  64.949  1.00  0.00    -0.525 C  
HETATM    3  C   UNL     2     -12.232  14.057  65.752  1.00  0.00    -0.453 C  
HETATM    4  C   UNL     3     -10.939  19.647  65.815  1.00  0.00    -0.270 C  
HETATM    5  C   UNL     3     -10.408  18.383  66.412  1.00  0.00    -0.405 C  
HETATM    6  O   UNL     3     -10.056  17.473  65.636  1.00  0.00    -0.574 OA 
HETATM    7  O   UNL     2     -11.846  15.066  65.140  1.00  0.00    -0.301 OA 
ENDROOT
BRANCH   3   8
HETATM    8  C   UNL     2     -12.268  13.980  67.255  1.00  0.00    -0.325 C  
BRANCH   8   9
HETATM    9  C   UNL     2     -11.066  13.224  67.791  1.00  0.00    -0.289 C  
HETATM   10  O   UNL     2     -12.049  11.131  68.066  1.00  0.00    -0.635 OA 
HETATM   11  O   UNL     2     -11.704  12.470  69.905  1.00  0.00    -0.303 OA 
HETATM   12  C   UNL     2     -11.660  12.153  68.688  1.00  0.00    -0.321 C  
ENDBRANCH   8   9
ENDBRANCH   3   8
BRANCH   5  13
HETATM   13  C   UNL     3     -10.427  18.219  67.914  1.00  0.00    -0.408 C  
BRANCH  13  14
HETATM   14  C   UNL     3      -9.791  19.430  68.557  1.00  0.00    -0.509 C  
HETATM   15  C   UNL     3      -8.303  19.344  68.284  1.00  0.00    -0.344 C  
HETATM   16  O   UNL     3      -7.898  20.108  67.374  1.00  0.00    -0.289 OA 
HETATM   17  O   UNL     3      -7.701  18.524  69.031  1.00  0.00    -0.255 OA 
ENDBRANCH  13  14
ENDBRANCH   5  13
TORSDOF 4
ENDMDL
MODEL       19
REMARK 921   NORMALIZED FREE ENERGY PREDICTED BY IDOCK:   -5.39 KCAL/MOL
REMARK 922        TOTAL FREE ENERGY PREDICTED BY IDOCK:   -7.01 KCAL/MOL
REMARK 923 INTER-LIGAND FREE ENERGY PREDICTED BY IDOCK:   -6.46 KCAL/MOL
REMARK 924 INTRA-LIGAND FREE ENERGY PREDICTED BY IDOCK:   -0.56 KCAL/MOL
REMARK 927      BINDING AFFINITY PREDICTED BY RF-SCORE:    0.00 PKD
ROOT
HETATM    1 CA   UNL     1     -11.898  16.370  63.416  1.00  0.00    -0.836 Ca 
HETATM    2  C   UNL     2     -10.568  19.660  65.591  1.00  0.00    -0.462 C  
HETATM    3  C   UNL     2     -10.530  18.185  65.862  1.00  0.00    -0.283 C  
HETATM    4  C   UNL     3     -10.502  12.861  63.721  1.00  0.00    -0.230 C  
HETATM    5  C   UNL     3     -11.155  13.595  64.849  1.00  0.00    -0.351 C  
HETATM    6  O   UNL     3     -11.863  14.583  64.570  1.00  0.00    -0.430 OA 
HETATM    7  O   UNL     2     -10.808  17.411  64.931  1.00  0.00    -0.814 OA 
ENDROOT
BRANCH   3   8
HETATM    8  C   UNL     2     -10.180  17.703  67.244  1.00  0.00    -0.343 C  
BRANCH   8   9
HETATM    9  C   UNL     2      -9.357  16.429  67.186  1.00  0.00    -0.228 C  
HETATM   10  O   UNL     2      -7.639  17.045  68.632  1.00  0.00    -0.216 OA 
HETATM   11  O   UNL     2      -7.273  17.078  66.361  1.00  0.00    -0.250 OA 
HETATM   12  C   UNL     2      -7.929  16.890  67.419  1.00  0.00    -0.170 C  
ENDBRANCH   8   9
ENDBRANCH   3   8
BRANCH   5  13
HETATM   13  C   UNL     3     -10.840  13.185  66.268  1.00  0.00    -0.292 C  
BRANCH  13  14
HETATM   14  C   UNL     3     -12.031  13.483  67.150  1.00  0.00    -0.426 C  
HETATM   15  C   UNL     3     -11.830  12.709  68.438  1.00  0.00    -0.301 C  
HETATM   16  O   UNL     3     -11.440  13.407  69.406  1.00  0.00    -0.272 OA 
HETATM   17  O   UNL     3     -12.104  11.482  68.335  1.00  0.00    -0.556 OA 
ENDBRANCH  13  14
ENDBRANCH   5  13
TORSDOF 4
ENDMDL
MODEL       20
REMARK 921   NORMALIZED FREE ENERGY PREDICTED BY IDOCK:   -5.38 KCAL/MOL
REMARK 922        TOTAL FREE ENERGY PREDICTED BY IDOCK:   -7.01 KCAL/MOL
REMARK 923 INTER-LIGAND FREE ENERGY PREDICTED BY IDOCK:   -6.56 KCAL/MOL
REMARK 924 INTRA-LIGAND FREE ENERGY PREDICTED BY IDOCK:   -0.45 KCAL/MOL
REMARK 927      BINDING AFFINITY PREDICTED BY RF-SCORE:    0.00 PKD
ROOT
HETATM    1 CA   UNL     1     -10.589  16.145  63.836  1.00  0.00    -0.532 Ca 
HETATM    2  C   UNL     2     -12.736  12.683  64.688  1.00  0.00    -0.458 C  
HETATM    3  C   UNL     2     -12.286  13.830  65.543  1.00  0.00    -0.442 C  
HETATM    4  C   UNL     3     -10.774  19.359  65.835  1.00  0.00    -0.501 C  
HETATM    5  C   UNL     3     -10.310  18.055  66.401  1.00  0.00    -0.379 C  
HETATM    6  O   UNL     3      -9.973  17.158  65.603  1.00  0.00    -0.558 OA 
HETATM    7  O   UNL     2     -11.843  14.844  64.977  1.00  0.00    -0.356 OA 
ENDROOT
BRANCH   3   8
HETATM    8  C   UNL     2     -12.365  13.704  67.041  1.00  0.00    -0.277 C  
BRANCH   8   9
HETATM    9  C   UNL     2     -11.182  12.927  67.587  1.00  0.00    -0.317 C  
HETATM   10  O   UNL     2     -12.338  11.181  68.606  1.00  0.00    -0.549 OA 
HETATM   11  O   UNL     2     -11.488  12.882  69.900  1.00  0.00    -0.200 OA 
HETATM   12  C   UNL     2     -11.718  12.249  68.837  1.00  0.00    -0.328 C  
ENDBRANCH   8   9
ENDBRANCH   3   8
BRANCH   5  13
HETATM   13  C   UNL     3     -10.377  17.841  67.895  1.00  0.00    -0.388 C  
BRANCH  13  14
HETATM   14  C   UNL     3     -11.014  16.500  68.180  1.00  0.00    -0.336 C  
HETATM   15  C   UNL     3     -10.563  16.084  69.567  1.00  0.00    -0.290 C  
HETATM   16  O   UNL     3     -11.429  16.240  70.462  1.00  0.00    -0.367 OA 
HETATM   17  O   UNL     3      -9.387  15.629  69.598  1.00  0.00    -0.280 OA 
ENDBRANCH  13  14
ENDBRANCH   5  13
TORSDOF 4
ENDMDL
MODEL       21
REMARK 921   NORMALIZED FREE ENERGY PREDICTED BY IDOCK:   -5.36 KCAL/MOL
REMARK 922        TOTAL FREE ENERGY PREDICTED BY IDOCK:   -6.98 KCAL/MOL
REMARK 923 INTER-LIGAND FREE ENERGY PREDICTED BY IDOCK:   -6.61 KCAL/MOL
REMARK 924 INTRA-LIGAND FREE ENERGY PREDICTED BY IDOCK:   -0.37 KCAL/MOL
REMARK 927      BINDING AFFINITY PREDICTED BY RF-SCORE:    0.00 PKD
ROOT
HETATM    1 CA   UNL     1     -10.811  12.893  68.649  1.00  0.00    -0.202 Ca 
HETATM    2  C   UNL     2     -13.409  12.682  71.894  1.00  0.00    -0.485 C  
HETATM    3  C   UNL     2     -12.883  13.836  71.092  1.00  0.00    -0.335 C  
HETATM    4  C   UNL     3     -10.745  15.698  66.102  1.00  0.00    -0.305 C  
HETATM    5  C   UNL     3     -10.479  15.895  67.561  1.00  0.00    -0.298 C  
HETATM    6  O   UNL     3     -10.199  14.890  68.244  1.00  0.00    -0.218 OA 
HETATM    7  O   UNL     2     -12.285  13.588  70.031  1.00  0.00    -0.328 OA 
ENDROOT
BRANCH   3   8
HETATM    8  C   UNL     2     -13.077  15.236  71.607  1.00  0.00    -0.507 C  
BRANCH   8   9
HETATM    9  C   UNL     2     -11.845  15.723  72.347  1.00  0.00    -0.606 C  
HETATM   10  O   UNL     2     -12.266  14.758  74.424  1.00  0.00    -0.528 OA 
HETATM   11  O   UNL     2     -12.654  17.005  74.119  1.00  0.00    -0.422 OA 
HETATM   12  C   UNL     2     -12.293  15.845  73.792  1.00  0.00    -0.587 C  
ENDBRANCH   8   9
ENDBRANCH   3   8
BRANCH   5  13
HETATM   13  C   UNL     3     -10.672  17.268  68.160  1.00  0.00    -0.363 C  
BRANCH  13  14
HETATM   14  C   UNL     3      -9.909  18.283  67.340  1.00  0.00    -0.323 C  
HETATM   15  C   UNL     3      -9.505  19.398  68.285  1.00  0.00    -0.365 C  
HETATM   16  O   UNL     3      -8.300  19.367  68.637  1.00  0.00    -0.356 OA 
HETATM   17  O   UNL     3     -10.445  20.194  68.554  1.00  0.00    -0.385 OA 
ENDBRANCH  13  14
ENDBRANCH   5  13
TORSDOF 4
ENDMDL
MODEL       22
REMARK 921   NORMALIZED FREE ENERGY PREDICTED BY IDOCK:   -5.35 KCAL/MOL
REMARK 922        TOTAL FREE ENERGY PREDICTED BY IDOCK:   -6.97 KCAL/MOL
REMARK 923 INTER-LIGAND FREE ENERGY PREDICTED BY IDOCK:   -6.50 KCAL/MOL
REMARK 924 INTRA-LIGAND FREE ENERGY PREDICTED BY IDOCK:   -0.47 KCAL/MOL
REMARK 927      BINDING AFFINITY PREDICTED BY RF-SCORE:    0.00 PKD
ROOT
HETATM    1 CA   UNL     1     -14.401  13.312  72.683  1.00  0.00    -0.472 Ca 
HETATM    2  C   UNL     2     -13.466   9.279  72.261  1.00  0.00    -0.548 C  
HETATM    3  C   UNL     2     -12.911  10.519  71.623  1.00  0.00    -0.475 C  
HETATM    4  C   UNL     3     -12.018  16.176  71.989  1.00  0.00    -0.607 C  
HETATM    5  C   UNL     3     -12.456  15.191  70.953  1.00  0.00    -0.365 C  
HETATM    6  O   UNL     3     -13.473  14.508  71.187  1.00  0.00    -0.365 OA 
HETATM    7  O   UNL     2     -13.236  11.618  72.101  1.00  0.00    -0.504 OA 
ENDROOT
BRANCH   3   8
HETATM    8  C   UNL     2     -12.008  10.386  70.427  1.00  0.00    -0.409 C  
BRANCH   8   9
HETATM    9  C   UNL     2     -10.689   9.741  70.807  1.00  0.00    -0.393 C  
HETATM   10  O   UNL     2     -10.141   8.801  68.748  1.00  0.00    -0.187 OA 
HETATM   11  O   UNL     2     -10.982   7.459  70.417  1.00  0.00    -0.243 OA 
HETATM   12  C   UNL     2     -10.580   8.532  69.895  1.00  0.00    -0.228 C  
ENDBRANCH   8   9
ENDBRANCH   3   8
BRANCH   5  13
HETATM   13  C   UNL     3     -11.594  14.984  69.730  1.00  0.00    -0.336 C  
BRANCH  13  14
HETATM   14  C   UNL     3     -11.949  13.663  69.085  1.00  0.00    -0.394 C  
HETATM   15  C   UNL     3     -11.475  13.734  67.647  1.00  0.00    -0.323 C  
HETATM   16  O   UNL     3     -10.411  13.106  67.421  1.00  0.00    -0.240 OA 
HETATM   17  O   UNL     3     -12.238  14.403  66.898  1.00  0.00    -0.415 OA 
ENDBRANCH  13  14
ENDBRANCH   5  13
TORSDOF 4
ENDMDL
MODEL       23
REMARK 921   NORMALIZED FREE ENERGY PREDICTED BY IDOCK:   -5.34 KCAL/MOL
REMARK 922        TOTAL FREE ENERGY PREDICTED BY IDOCK:   -6.96 KCAL/MOL
REMARK 923 INTER-LIGAND FREE ENERGY PREDICTED BY IDOCK:   -6.54 KCAL/MOL
REMARK 924 INTRA-LIGAND FREE ENERGY PREDICTED BY IDOCK:   -0.42 KCAL/MOL
REMARK 927      BINDING AFFINITY PREDICTED BY RF-SCORE:    0.00 PKD
ROOT
HETATM    1 CA   UNL     1     -11.916  16.619  68.544  1.00  0.00    -0.330 Ca 
HETATM    2  C   UNL     2     -12.910  14.288  71.846  1.00  0.00    -0.429 C  
HETATM    3  C   UNL     2     -12.280  13.956  70.525  1.00  0.00    -0.373 C  
HETATM    4  C   UNL     3      -9.221  15.767  66.021  1.00  0.00    -0.379 C  
HETATM    5  C   UNL     3     -10.425  14.915  66.268  1.00  0.00    -0.302 C  
HETATM    6  O   UNL     3     -11.395  15.432  66.856  1.00  0.00    -0.271 OA 
HETATM    7  O   UNL     2     -11.899  14.894  69.806  1.00  0.00    -0.280 OA 
ENDROOT
BRANCH   3   8
HETATM    8  C   UNL     2     -12.154  12.513  70.115  1.00  0.00    -0.368 C  
BRANCH   8   9
HETATM    9  C   UNL     2     -10.938  12.300  69.234  1.00  0.00    -0.155 C  
HETATM   10  O   UNL     2     -11.852  10.788  67.718  1.00  0.00    -0.538 OA 
HETATM   11  O   UNL     2     -10.460  10.021  69.381  1.00  0.00    -0.202 OA 
HETATM   12  C   UNL     2     -11.090  10.882  68.713  1.00  0.00    -0.256 C  
ENDBRANCH   8   9
ENDBRANCH   3   8
BRANCH   5  13
HETATM   13  C   UNL     3     -10.372  13.450  65.903  1.00  0.00    -0.290 C  
BRANCH  13  14
HETATM   14  C   UNL     3     -10.729  13.285  64.444  1.00  0.00    -0.432 C  
HETATM   15  C   UNL     3     -12.234  13.434  64.340  1.00  0.00    -0.389 C  
HETATM   16  O   UNL     3     -12.615  14.546  63.898  1.00  0.00    -0.827 OA 
HETATM   17  O   UNL     3     -12.868  12.405  64.700  1.00  0.00    -0.714 OA 
ENDBRANCH  13  14
ENDBRANCH   5  13
TORSDOF 4
ENDMDL
MODEL       24
REMARK 921   NORMALIZED FREE ENERGY PREDICTED BY IDOCK:   -5.32 KCAL/MOL
REMARK 922        TOTAL FREE ENERGY PREDICTED BY IDOCK:   -6.93 KCAL/MOL
REMARK 923 INTER-LIGAND FREE ENERGY PREDICTED BY IDOCK:   -6.48 KCAL/MOL
REMARK 924 INTRA-LIGAND FREE ENERGY PREDICTED BY IDOCK:   -0.45 KCAL/MOL
REMARK 927      BINDING AFFINITY PREDICTED BY RF-SCORE:    0.00 PKD
ROOT
HETATM    1 CA   UNL     1      -8.462  13.854  68.214  1.00  0.00    -0.123 Ca 
HETATM    2  C   UNL     2      -8.372  17.990  68.673  1.00  0.00    -0.282 C  
HETATM    3  C   UNL     2      -9.377  17.061  68.058  1.00  0.00    -0.245 C  
HETATM    4  C   UNL     3     -11.612  11.779  67.856  1.00  0.00    -0.377 C  
HETATM    5  C   UNL     3     -11.206  12.845  66.889  1.00  0.00    -0.291 C  
HETATM    6  O   UNL     3     -10.020  13.229  66.906  1.00  0.00    -0.240 OA 
HETATM    7  O   UNL     2      -9.245  15.842  68.255  1.00  0.00    -0.184 OA 
ENDROOT
BRANCH   3   8
HETATM    8  C   UNL     2     -10.485  17.634  67.216  1.00  0.00    -0.338 C  
BRANCH   8   9
HETATM    9  C   UNL     2     -10.599  19.135  67.410  1.00  0.00    -0.577 C  
HETATM   10  O   UNL     2     -11.248  19.730  65.255  1.00  0.00    -0.329 OA 
HETATM   11  O   UNL     2      -9.071  20.069  65.915  1.00  0.00    -0.325 OA 
HETATM   12  C   UNL     2     -10.273  19.720  66.048  1.00  0.00    -0.501 C  
ENDBRANCH   8   9
ENDBRANCH   3   8
BRANCH   5  13
HETATM   13  C   UNL     3     -12.263  13.486  66.020  1.00  0.00    -0.493 C  
BRANCH  13  14
HETATM   14  C   UNL     3     -12.638  12.536  64.907  1.00  0.00    -0.469 C  
HETATM   15  C   UNL     3     -11.953  13.036  63.651  1.00  0.00    -0.539 C  
HETATM   16  O   UNL     3     -10.930  12.385  63.325  1.00  0.00    -0.438 OA 
HETATM   17  O   UNL     3     -12.532  14.023  63.121  1.00  0.00    -0.733 OA 
ENDBRANCH  13  14
ENDBRANCH   5  13
TORSDOF 4
ENDMDL
MODEL       25
REMARK 921   NORMALIZED FREE ENERGY PREDICTED BY IDOCK:   -5.31 KCAL/MOL
REMARK 922        TOTAL FREE ENERGY PREDICTED BY IDOCK:   -6.92 KCAL/MOL
REMARK 923 INTER-LIGAND FREE ENERGY PREDICTED BY IDOCK:   -6.45 KCAL/MOL
REMARK 924 INTRA-LIGAND FREE ENERGY PREDICTED BY IDOCK:   -0.47 KCAL/MOL
REMARK 927      BINDING AFFINITY PREDICTED BY RF-SCORE:    0.00 PKD
ROOT
HETATM    1 CA   UNL     1      -8.250  13.739  69.543  1.00  0.00    -0.322 Ca 
HETATM    2  C   UNL     2      -6.241  17.332  68.932  1.00  0.00    -0.185 C  
HETATM    3  C   UNL     2      -7.572  16.824  68.461  1.00  0.00    -0.217 C  
HETATM    4  C   UNL     3     -12.009  13.297  69.359  1.00  0.00    -0.356 C  
HETATM    5  C   UNL     3     -11.169  13.744  68.206  1.00  0.00    -0.273 C  
HETATM    6  O   UNL     3      -9.940  13.540  68.265  1.00  0.00    -0.228 OA 
HETATM    7  O   UNL     2      -8.019  15.787  68.978  1.00  0.00    -0.181 OA 
ENDROOT
BRANCH   3   8
HETATM    8  C   UNL     2      -8.299  17.569  67.374  1.00  0.00    -0.220 C  
BRANCH   8   9
HETATM    9  C   UNL     2      -9.802  17.476  67.560  1.00  0.00    -0.293 C  
HETATM   10  O   UNL     2     -10.473  18.611  65.640  1.00  0.00    -0.603 OA 
HETATM   11  O   UNL     2     -10.548  19.684  67.674  1.00  0.00    -0.437 OA 
HETATM   12  C   UNL     2     -10.346  18.724  66.886  1.00  0.00    -0.404 C  
ENDBRANCH   8   9
ENDBRANCH   3   8
BRANCH   5  13
HETATM   13  C   UNL     3     -11.820  14.517  67.083  1.00  0.00    -0.412 C  
BRANCH  13  14
HETATM   14  C   UNL     3     -11.227  14.076  65.764  1.00  0.00    -0.303 C  
HETATM   15  C   UNL     3     -12.388  13.808  64.827  1.00  0.00    -0.386 C  
HETATM   16  O   UNL     3     -12.591  14.713  63.981  1.00  0.00    -0.819 OA 
HETATM   17  O   UNL     3     -12.959  12.703  65.038  1.00  0.00    -0.812 OA 
ENDBRANCH  13  14
ENDBRANCH   5  13
TORSDOF 4
ENDMDL
MODEL       26
REMARK 921   NORMALIZED FREE ENERGY PREDICTED BY IDOCK:   -5.19 KCAL/MOL
REMARK 922        TOTAL FREE ENERGY PREDICTED BY IDOCK:   -6.77 KCAL/MOL
REMARK 923 INTER-LIGAND FREE ENERGY PREDICTED BY IDOCK:   -6.23 KCAL/MOL
REMARK 924 INTRA-LIGAND FREE ENERGY PREDICTED BY IDOCK:   -0.55 KCAL/MOL
REMARK 927      BINDING AFFINITY PREDICTED BY RF-SCORE:    0.00 PKD
ROOT
HETATM    1 CA   UNL     1     -13.127  14.385  69.304  1.00  0.00    -0.547 Ca 
HETATM    2  C   UNL     2     -12.832  10.779  71.361  1.00  0.00    -0.557 C  
HETATM    3  C   UNL     2     -12.121  11.317  70.154  1.00  0.00    -0.366 C  
HETATM    4  C   UNL     3     -10.365  15.920  67.212  1.00  0.00    -0.293 C  
HETATM    5  C   UNL     3     -10.988  14.593  66.919  1.00  0.00    -0.324 C  
HETATM    6  O   UNL     3     -12.087  14.333  67.448  1.00  0.00    -0.400 OA 
HETATM    7  O   UNL     2     -12.256  12.522  69.884  1.00  0.00    -0.253 OA 
ENDROOT
BRANCH   3   8
HETATM    8  C   UNL     2     -11.297  10.381  69.312  1.00  0.00    -0.296 C  
BRANCH   8   9
HETATM    9  C   UNL     2     -11.368  10.761  67.844  1.00  0.00    -0.372 C  
HETATM   10  O   UNL     2     -10.453   8.826  66.927  1.00  0.00    -0.285 OA 
HETATM   11  O   UNL     2      -9.161  10.723  67.089  1.00  0.00    -0.147 OA 
HETATM   12  C   UNL     2     -10.203  10.026  67.205  1.00  0.00    -0.228 C  
ENDBRANCH   8   9
ENDBRANCH   3   8
BRANCH   5  13
HETATM   13  C   UNL     3     -10.216  13.589  66.096  1.00  0.00    -0.303 C  
BRANCH  13  14
HETATM   14  C   UNL     3     -10.657  13.679  64.653  1.00  0.00    -0.446 C  
HETATM   15  C   UNL     3     -11.579  12.503  64.400  1.00  0.00    -0.358 C  
HETATM   16  O   UNL     3     -12.800  12.797  64.378  1.00  0.00    -0.700 OA 
HETATM   17  O   UNL     3     -10.969  11.411  64.235  1.00  0.00    -0.350 OA 
ENDBRANCH  13  14
ENDBRANCH   5  13
TORSDOF 4
ENDMDL
MODEL       27
REMARK 921   NORMALIZED FREE ENERGY PREDICTED BY IDOCK:   -5.19 KCAL/MOL
REMARK 922        TOTAL FREE ENERGY PREDICTED BY IDOCK:   -6.77 KCAL/MOL
REMARK 923 INTER-LIGAND FREE ENERGY PREDICTED BY IDOCK:   -6.30 KCAL/MOL
REMARK 924 INTRA-LIGAND FREE ENERGY PREDICTED BY IDOCK:   -0.47 KCAL/MOL
REMARK 927      BINDING AFFINITY PREDICTED BY RF-SCORE:    0.00 PKD
ROOT
HETATM    1 CA   UNL     1     -13.155  14.492  69.356  1.00  0.00    -0.538 Ca 
HETATM    2  C   UNL     2     -12.789  10.976  71.552  1.00  0.00    -0.555 C  
HETATM    3  C   UNL     2     -12.156  11.441  70.274  1.00  0.00    -0.374 C  
HETATM    4  C   UNL     3     -10.521  15.864  67.003  1.00  0.00    -0.306 C  
HETATM    5  C   UNL     3     -11.191  14.541  66.817  1.00  0.00    -0.334 C  
HETATM    6  O   UNL     3     -12.254  14.332  67.435  1.00  0.00    -0.378 OA 
HETATM    7  O   UNL     2     -12.284  12.636  69.958  1.00  0.00    -0.276 OA 
ENDROOT
BRANCH   3   8
HETATM    8  C   UNL     2     -11.415  10.449  69.419  1.00  0.00    -0.292 C  
BRANCH   8   9
HETATM    9  C   UNL     2     -10.455   9.620  70.252  1.00  0.00    -0.338 C  
HETATM   10  O   UNL     2     -10.273   7.766  68.854  1.00  0.00    -0.201 OA 
HETATM   11  O   UNL     2     -11.600   7.644  70.729  1.00  0.00    -0.287 OA 
HETATM   12  C   UNL     2     -10.805   8.181  69.915  1.00  0.00    -0.215 C  
ENDBRANCH   8   9
ENDBRANCH   3   8
BRANCH   5  13
HETATM   13  C   UNL     3     -10.502  13.482  65.989  1.00  0.00    -0.299 C  
BRANCH  13  14
HETATM   14  C   UNL     3     -11.420  12.291  65.835  1.00  0.00    -0.428 C  
HETATM   15  C   UNL     3     -11.980  12.345  64.427  1.00  0.00    -0.407 C  
HETATM   16  O   UNL     3     -11.448  11.536  63.628  1.00  0.00    -0.412 OA 
HETATM   17  O   UNL     3     -12.908  13.187  64.287  1.00  0.00    -0.658 OA 
ENDBRANCH  13  14
ENDBRANCH   5  13
TORSDOF 4
ENDMDL
MODEL       28
REMARK 921   NORMALIZED FREE ENERGY PREDICTED BY IDOCK:   -5.18 KCAL/MOL
REMARK 922        TOTAL FREE ENERGY PREDICTED BY IDOCK:   -6.75 KCAL/MOL
REMARK 923 INTER-LIGAND FREE ENERGY PREDICTED BY IDOCK:   -6.37 KCAL/MOL
REMARK 924 INTRA-LIGAND FREE ENERGY PREDICTED BY IDOCK:   -0.38 KCAL/MOL
REMARK 927      BINDING AFFINITY PREDICTED BY RF-SCORE:    0.00 PKD
ROOT
HETATM    1 CA   UNL     1     -10.149  11.483  68.516  1.00  0.00    -0.160 Ca 
HETATM    2  C   UNL     2     -12.793  11.006  71.694  1.00  0.00    -0.540 C  
HETATM    3  C   UNL     2     -12.502  12.163  70.785  1.00  0.00    -0.271 C  
HETATM    4  C   UNL     3     -10.591  13.956  65.680  1.00  0.00    -0.306 C  
HETATM    5  C   UNL     3     -10.451  14.355  67.114  1.00  0.00    -0.263 C  
HETATM    6  O   UNL     3      -9.986  13.516  67.911  1.00  0.00    -0.231 OA 
HETATM    7  O   UNL     2     -11.811  11.954  69.775  1.00  0.00    -0.309 OA 
ENDROOT
BRANCH   3   8
HETATM    8  C   UNL     2     -13.036  13.525  71.138  1.00  0.00    -0.338 C  
BRANCH   8   9
HETATM    9  C   UNL     2     -13.528  13.564  72.573  1.00  0.00    -0.660 C  
HETATM   10  O   UNL     2     -13.806  15.865  72.797  1.00  0.00    -0.584 OA 
HETATM   11  O   UNL     2     -11.963  14.852  73.729  1.00  0.00    -0.386 OA 
HETATM   12  C   UNL     2     -13.053  14.906  73.102  1.00  0.00    -0.507 C  
ENDBRANCH   8   9
ENDBRANCH   3   8
BRANCH   5  13
HETATM   13  C   UNL     3     -10.980  15.699  67.555  1.00  0.00    -0.309 C  
BRANCH  13  14
HETATM   14  C   UNL     3      -9.826  16.663  67.715  1.00  0.00    -0.252 C  
HETATM   15  C   UNL     3     -10.084  17.820  66.770  1.00  0.00    -0.349 C  
HETATM   16  O   UNL     3     -10.512  18.859  67.330  1.00  0.00    -0.399 OA 
HETATM   17  O   UNL     3      -9.811  17.558  65.567  1.00  0.00    -0.508 OA 
ENDBRANCH  13  14
ENDBRANCH   5  13
TORSDOF 4
ENDMDL
MODEL       29
REMARK 921   NORMALIZED FREE ENERGY PREDICTED BY IDOCK:   -5.18 KCAL/MOL
REMARK 922        TOTAL FREE ENERGY PREDICTED BY IDOCK:   -6.75 KCAL/MOL
REMARK 923 INTER-LIGAND FREE ENERGY PREDICTED BY IDOCK:   -6.07 KCAL/MOL
REMARK 924 INTRA-LIGAND FREE ENERGY PREDICTED BY IDOCK:   -0.69 KCAL/MOL
REMARK 927      BINDING AFFINITY PREDICTED BY RF-SCORE:    0.00 PKD
ROOT
HETATM    1 CA   UNL     1     -10.244   7.880  65.820  1.00  0.00    -0.444 Ca 
HETATM    2  C   UNL     2     -10.409  11.134  63.231  1.00  0.00    -0.368 C  
HETATM    3  C   UNL     2     -10.176  11.028  64.709  1.00  0.00    -0.319 C  
HETATM    4  C   UNL     3      -8.376   7.823  69.116  1.00  0.00    -0.134 C  
HETATM    5  C   UNL     3      -9.504   8.758  68.818  1.00  0.00    -0.142 C  
HETATM    6  O   UNL     3     -10.255   8.482  67.861  1.00  0.00    -0.197 OA 
HETATM    7  O   UNL     2      -9.963   9.902  65.189  1.00  0.00    -0.318 OA 
ENDROOT
BRANCH   3   8
HETATM    8  C   UNL     2     -10.231  12.274  65.551  1.00  0.00    -0.296 C  
BRANCH   8   9
HETATM    9  C   UNL     2     -10.958  13.391  64.826  1.00  0.00    -0.371 C  
HETATM   10  O   UNL     2     -12.396  14.053  66.534  1.00  0.00    -0.457 OA 
HETATM   11  O   UNL     2     -13.204  12.759  64.812  1.00  0.00    -0.812 OA 
HETATM   12  C   UNL     2     -12.341  13.414  65.453  1.00  0.00    -0.477 C  
ENDBRANCH   8   9
ENDBRANCH   3   8
BRANCH   5  13
HETATM   13  C   UNL     3      -9.618  10.042  69.606  1.00  0.00    -0.251 C  
BRANCH  13  14
HETATM   14  C   UNL     3     -11.068  10.289  69.953  1.00  0.00    -0.362 C  
HETATM   15  C   UNL     3     -11.550  11.415  69.060  1.00  0.00    -0.317 C  
HETATM   16  O   UNL     3     -12.257  11.041  68.092  1.00  0.00    -0.578 OA 
HETATM   17  O   UNL     3     -11.174  12.556  69.443  1.00  0.00    -0.225 OA 
ENDBRANCH  13  14
ENDBRANCH   5  13
TORSDOF 4
ENDMDL
MODEL       30
REMARK 921   NORMALIZED FREE ENERGY PREDICTED BY IDOCK:   -5.17 KCAL/MOL
REMARK 922        TOTAL FREE ENERGY PREDICTED BY IDOCK:   -6.75 KCAL/MOL
REMARK 923 INTER-LIGAND FREE ENERGY PREDICTED BY IDOCK:   -6.19 KCAL/MOL
REMARK 924 INTRA-LIGAND FREE ENERGY PREDICTED BY IDOCK:   -0.56 KCAL/MOL
REMARK 927      BINDING AFFINITY PREDICTED BY RF-SCORE:    0.00 PKD
ROOT
HETATM    1 CA   UNL     1     -11.467  17.226  70.991  1.00  0.00    -0.600 Ca 
HETATM    2  C   UNL     2      -9.661  17.894  67.302  1.00  0.00    -0.289 C  
HETATM    3  C   UNL     2     -10.237  16.663  67.939  1.00  0.00    -0.284 C  
HETATM    4  C   UNL     3     -13.930  14.443  71.729  1.00  0.00    -0.537 C  
HETATM    5  C   UNL     3     -12.518  14.208  71.293  1.00  0.00    -0.370 C  
HETATM    6  O   UNL     3     -11.710  15.152  71.398  1.00  0.00    -0.321 OA 
HETATM    7  O   UNL     2     -10.913  16.801  68.972  1.00  0.00    -0.304 OA 
ENDROOT
BRANCH   3   8
HETATM    8  C   UNL     2      -9.960  15.320  67.321  1.00  0.00    -0.226 C  
BRANCH   8   9
HETATM    9  C   UNL     2     -10.233  15.337  65.829  1.00  0.00    -0.372 C  
HETATM   10  O   UNL     2     -12.329  14.322  65.833  1.00  0.00    -0.430 OA 
HETATM   11  O   UNL     2     -10.480  13.099  65.219  1.00  0.00    -0.291 OA 
HETATM   12  C   UNL     2     -11.112  14.122  65.589  1.00  0.00    -0.307 C  
ENDBRANCH   8   9
ENDBRANCH   3   8
BRANCH   5  13
HETATM   13  C   UNL     3     -12.162  12.891  70.645  1.00  0.00    -0.386 C  
BRANCH  13  14
HETATM   14  C   UNL     3     -11.610  13.148  69.262  1.00  0.00    -0.370 C  
HETATM   15  C   UNL     3     -11.286  11.795  68.659  1.00  0.00    -0.270 C  
HETATM   16  O   UNL     3     -12.125  11.390  67.817  1.00  0.00    -0.637 OA 
HETATM   17  O   UNL     3     -10.211  11.297  69.090  1.00  0.00    -0.190 OA 
ENDBRANCH  13  14
ENDBRANCH   5  13
TORSDOF 4
ENDMDL
MODEL       31
REMARK 921   NORMALIZED FREE ENERGY PREDICTED BY IDOCK:   -5.15 KCAL/MOL
REMARK 922        TOTAL FREE ENERGY PREDICTED BY IDOCK:   -6.73 KCAL/MOL
REMARK 923 INTER-LIGAND FREE ENERGY PREDICTED BY IDOCK:   -6.25 KCAL/MOL
REMARK 924 INTRA-LIGAND FREE ENERGY PREDICTED BY IDOCK:   -0.47 KCAL/MOL
REMARK 927      BINDING AFFINITY PREDICTED BY RF-SCORE:    0.00 PKD
ROOT
HETATM    1 CA   UNL     1     -10.911  16.318  64.874  1.00  0.00    -0.320 Ca 
HETATM    2  C   UNL     2     -11.884  13.255  67.518  1.00  0.00    -0.403 C  
HETATM    3  C   UNL     2     -11.223  14.588  67.713  1.00  0.00    -0.298 C  
HETATM    4  C   UNL     3     -10.499  19.961  65.832  1.00  0.00    -0.567 C  
HETATM    5  C   UNL     3      -9.651  18.858  66.379  1.00  0.00    -0.351 C  
HETATM    6  O   UNL     3      -9.639  17.771  65.768  1.00  0.00    -0.519 OA 
HETATM    7  O   UNL     2     -11.254  15.399  66.773  1.00  0.00    -0.298 OA 
ENDROOT
BRANCH   3   8
HETATM    8  C   UNL     2     -10.534  14.881  69.018  1.00  0.00    -0.247 C  
BRANCH   8   9
HETATM    9  C   UNL     2     -11.142  16.094  69.696  1.00  0.00    -0.344 C  
HETATM   10  O   UNL     2     -11.302  15.255  71.862  1.00  0.00    -0.426 OA 
HETATM   11  O   UNL     2     -13.188  15.364  70.549  1.00  0.00    -0.362 OA 
HETATM   12  C   UNL     2     -11.971  15.519  70.831  1.00  0.00    -0.375 C  
ENDBRANCH   8   9
ENDBRANCH   3   8
BRANCH   5  13
HETATM   13  C   UNL     3      -8.941  19.066  67.697  1.00  0.00    -0.322 C  
BRANCH  13  14
HETATM   14  C   UNL     3      -7.447  19.048  67.468  1.00  0.00    -0.251 C  
HETATM   15  C   UNL     3      -6.897  20.332  68.058  1.00  0.00    -0.300 C  
HETATM   16  O   UNL     3      -6.329  20.189  69.169  1.00  0.00    -0.306 OA 
HETATM   17  O   UNL     3      -7.083  21.342  67.327  1.00  0.00    -0.565 OA 
ENDBRANCH  13  14
ENDBRANCH   5  13
TORSDOF 4
ENDMDL
MODEL       32
REMARK 921   NORMALIZED FREE ENERGY PREDICTED BY IDOCK:   -5.14 KCAL/MOL
REMARK 922        TOTAL FREE ENERGY PREDICTED BY IDOCK:   -6.71 KCAL/MOL
REMARK 923 INTER-LIGAND FREE ENERGY PREDICTED BY IDOCK:   -6.21 KCAL/MOL
REMARK 924 INTRA-LIGAND FREE ENERGY PREDICTED BY IDOCK:   -0.50 KCAL/MOL
REMARK 927      BINDING AFFINITY PREDICTED BY RF-SCORE:    0.00 PKD
ROOT
HETATM    1 CA   UNL     1     -11.109  12.894  70.501  1.00  0.00    -0.490 Ca 
HETATM    2  C   UNL     2     -10.081   8.916  69.835  1.00  0.00    -0.204 C  
HETATM    3  C   UNL     2     -10.561  10.004  68.919  1.00  0.00    -0.218 C  
HETATM    4  C   UNL     3     -10.985  15.633  67.886  1.00  0.00    -0.319 C  
HETATM    5  C   UNL     3     -11.854  14.421  67.777  1.00  0.00    -0.368 C  
HETATM    6  O   UNL     3     -12.072  13.763  68.813  1.00  0.00    -0.357 OA 
HETATM    7  O   UNL     2     -10.585  11.167  69.355  1.00  0.00    -0.208 OA 
ENDROOT
BRANCH   3   8
HETATM    8  C   UNL     2     -11.011   9.647  67.529  1.00  0.00    -0.166 C  
BRANCH   8   9
HETATM    9  C   UNL     2      -9.834   9.586  66.573  1.00  0.00    -0.305 C  
HETATM   10  O   UNL     2      -9.406  11.867  66.381  1.00  0.00    -0.217 OA 
HETATM   11  O   UNL     2     -10.511  10.777  64.684  1.00  0.00    -0.344 OA 
HETATM   12  C   UNL     2      -9.915  10.883  65.787  1.00  0.00    -0.247 C  
ENDBRANCH   8   9
ENDBRANCH   3   8
BRANCH   5  13
HETATM   13  C   UNL     3     -12.331  13.984  66.412  1.00  0.00    -0.468 C  
BRANCH  13  14
HETATM   14  C   UNL     3     -11.337  14.433  65.367  1.00  0.00    -0.339 C  
HETATM   15  C   UNL     3     -12.137  14.876  64.158  1.00  0.00    -0.267 C  
HETATM   16  O   UNL     3     -12.235  16.120  64.029  1.00  0.00    -0.855 OA 
HETATM   17  O   UNL     3     -12.567  13.916  63.461  1.00  0.00    -0.842 OA 
ENDBRANCH  13  14
ENDBRANCH   5  13
TORSDOF 4
ENDMDL
MODEL       33
REMARK 921   NORMALIZED FREE ENERGY PREDICTED BY IDOCK:   -5.11 KCAL/MOL
REMARK 922        TOTAL FREE ENERGY PREDICTED BY IDOCK:   -6.67 KCAL/MOL
REMARK 923 INTER-LIGAND FREE ENERGY PREDICTED BY IDOCK:   -6.23 KCAL/MOL
REMARK 924 INTRA-LIGAND FREE ENERGY PREDICTED BY IDOCK:   -0.44 KCAL/MOL
REMARK 927      BINDING AFFINITY PREDICTED BY RF-SCORE:    0.00 PKD
ROOT
HETATM    1 CA   UNL     1      -9.259  13.623  69.392  1.00  0.00    -0.368 Ca 
HETATM    2  C   UNL     2     -10.515  11.148  66.292  1.00  0.00    -0.312 C  
HETATM    3  C   UNL     2     -10.070  12.581  66.326  1.00  0.00    -0.250 C  
HETATM    4  C   UNL     3      -7.007  16.643  68.980  1.00  0.00    -0.212 C  
HETATM    5  C   UNL     3      -8.351  16.516  68.337  1.00  0.00    -0.200 C  
HETATM    6  O   UNL     3      -9.137  15.661  68.789  1.00  0.00    -0.183 OA 
HETATM    7  O   UNL     2      -9.540  13.004  67.367  1.00  0.00    -0.201 OA 
ENDROOT
BRANCH   3   8
HETATM    8  C   UNL     2     -10.299  13.449  65.119  1.00  0.00    -0.349 C  
BRANCH   8   9
HETATM    9  C   UNL     2     -10.877  12.644  63.969  1.00  0.00    -0.452 C  
HETATM   10  O   UNL     2     -12.453  14.180  63.209  1.00  0.00    -0.758 OA 
HETATM   11  O   UNL     2     -13.141  12.385  64.472  1.00  0.00    -0.823 OA 
HETATM   12  C   UNL     2     -12.317  13.115  63.862  1.00  0.00    -0.365 C  
ENDBRANCH   8   9
ENDBRANCH   3   8
BRANCH   5  13
HETATM   13  C   UNL     3      -8.653  17.339  67.106  1.00  0.00    -0.222 C  
BRANCH  13  14
HETATM   14  C   UNL     3     -10.094  17.124  66.703  1.00  0.00    -0.306 C  
HETATM   15  C   UNL     3     -10.685  18.494  66.434  1.00  0.00    -0.201 C  
HETATM   16  O   UNL     3     -10.800  18.778  65.217  1.00  0.00    -0.576 OA 
HETATM   17  O   UNL     3     -10.983  19.128  67.483  1.00  0.00    -0.456 OA 
ENDBRANCH  13  14
ENDBRANCH   5  13
TORSDOF 4
ENDMDL
MODEL       34
REMARK 921   NORMALIZED FREE ENERGY PREDICTED BY IDOCK:   -5.09 KCAL/MOL
REMARK 922        TOTAL FREE ENERGY PREDICTED BY IDOCK:   -6.65 KCAL/MOL
REMARK 923 INTER-LIGAND FREE ENERGY PREDICTED BY IDOCK:   -6.01 KCAL/MOL
REMARK 924 INTRA-LIGAND FREE ENERGY PREDICTED BY IDOCK:   -0.63 KCAL/MOL
REMARK 927      BINDING AFFINITY PREDICTED BY RF-SCORE:    0.00 PKD
ROOT
HETATM    1 CA   UNL     1     -12.072  17.077  64.187  1.00  0.00    -0.238 Ca 
HETATM    2  C   UNL     2     -12.157  12.930  63.846  1.00  0.00    -0.553 C  
HETATM    3  C   UNL     2     -11.358  13.858  64.713  1.00  0.00    -0.363 C  
HETATM    4  C   UNL     3     -10.983  18.977  67.279  1.00  0.00    -0.365 C  
HETATM    5  C   UNL     3     -10.088  18.057  66.512  1.00  0.00    -0.379 C  
HETATM    6  O   UNL     3     -10.422  17.749  65.351  1.00  0.00    -0.641 OA 
HETATM    7  O   UNL     2     -11.696  15.053  64.759  1.00  0.00    -0.396 OA 
ENDROOT
BRANCH   3   8
HETATM    8  C   UNL     2     -10.176  13.317  65.471  1.00  0.00    -0.298 C  
BRANCH   8   9
HETATM    9  C   UNL     2     -10.426  13.346  66.967  1.00  0.00    -0.257 C  
HETATM   10  O   UNL     2      -9.700  11.197  67.495  1.00  0.00    -0.174 OA 
HETATM   11  O   UNL     2     -11.956  11.630  67.369  1.00  0.00    -0.621 OA 
HETATM   12  C   UNL     2     -10.728  11.902  67.329  1.00  0.00    -0.236 C  
ENDBRANCH   8   9
ENDBRANCH   3   8
BRANCH   5  13
HETATM   13  C   UNL     3      -8.889  17.456  67.208  1.00  0.00    -0.238 C  
BRANCH  13  14
HETATM   14  C   UNL     3      -8.122  16.596  66.229  1.00  0.00    -0.361 C  
HETATM   15  C   UNL     3      -6.799  17.291  65.977  1.00  0.00    -0.100 C  
HETATM   16  O   UNL     3      -5.823  16.780  66.579  1.00  0.00    -0.319 OA 
HETATM   17  O   UNL     3      -6.886  18.268  65.184  1.00  0.00    -0.476 OA 
ENDBRANCH  13  14
ENDBRANCH   5  13
TORSDOF 4
ENDMDL
MODEL       35
REMARK 921   NORMALIZED FREE ENERGY PREDICTED BY IDOCK:   -5.08 KCAL/MOL
REMARK 922        TOTAL FREE ENERGY PREDICTED BY IDOCK:   -6.64 KCAL/MOL
REMARK 923 INTER-LIGAND FREE ENERGY PREDICTED BY IDOCK:   -6.17 KCAL/MOL
REMARK 924 INTRA-LIGAND FREE ENERGY PREDICTED BY IDOCK:   -0.47 KCAL/MOL
REMARK 927      BINDING AFFINITY PREDICTED BY RF-SCORE:    0.00 PKD
ROOT
HETATM    1 CA   UNL     1      -9.924   8.433  66.125  1.00  0.00    -0.194 Ca 
HETATM    2  C   UNL     2      -9.181  10.131  62.399  1.00  0.00    -0.320 C  
HETATM    3  C   UNL     2      -9.756  10.688  63.668  1.00  0.00    -0.330 C  
HETATM    4  C   UNL     3     -10.108  10.354  69.386  1.00  0.00    -0.251 C  
HETATM    5  C   UNL     3     -11.032  10.585  68.233  1.00  0.00    -0.263 C  
HETATM    6  O   UNL     3     -11.108   9.700  67.358  1.00  0.00    -0.183 OA 
HETATM    7  O   UNL     2      -9.662  10.006  64.702  1.00  0.00    -0.310 OA 
ENDROOT
BRANCH   3   8
HETATM    8  C   UNL     2     -10.438  12.029  63.637  1.00  0.00    -0.494 C  
BRANCH   8   9
HETATM    9  C   UNL     2     -11.917  11.883  63.332  1.00  0.00    -0.528 C  
HETATM   10  O   UNL     2     -12.532  14.126  63.441  1.00  0.00    -0.797 OA 
HETATM   11  O   UNL     2     -13.022  12.731  65.203  1.00  0.00    -0.768 OA 
HETATM   12  C   UNL     2     -12.573  13.037  64.068  1.00  0.00    -0.209 C  
ENDBRANCH   8   9
ENDBRANCH   3   8
BRANCH   5  13
HETATM   13  C   UNL     3     -11.741  11.915  68.119  1.00  0.00    -0.388 C  
BRANCH  13  14
HETATM   14  C   UNL     3     -10.856  13.003  68.684  1.00  0.00    -0.287 C  
HETATM   15  C   UNL     3     -10.911  14.164  67.710  1.00  0.00    -0.252 C  
HETATM   16  O   UNL     3     -11.642  15.115  68.080  1.00  0.00    -0.333 OA 
HETATM   17  O   UNL     3     -10.196  13.995  66.685  1.00  0.00    -0.265 OA 
ENDBRANCH  13  14
ENDBRANCH   5  13
TORSDOF 4
ENDMDL
MODEL       36
REMARK 921   NORMALIZED FREE ENERGY PREDICTED BY IDOCK:   -5.08 KCAL/MOL
REMARK 922        TOTAL FREE ENERGY PREDICTED BY IDOCK:   -6.63 KCAL/MOL
REMARK 923 INTER-LIGAND FREE ENERGY PREDICTED BY IDOCK:   -6.10 KCAL/MOL
REMARK 924 INTRA-LIGAND FREE ENERGY PREDICTED BY IDOCK:   -0.53 KCAL/MOL
REMARK 927      BINDING AFFINITY PREDICTED BY RF-SCORE:    0.00 PKD
ROOT
HETATM    1 CA   UNL     1      -7.949  13.282  69.550  1.00  0.00    -0.321 Ca 
HETATM    2  C   UNL     2     -10.181  10.426  67.505  1.00  0.00    -0.251 C  
HETATM    3  C   UNL     2     -10.271  11.922  67.573  1.00  0.00    -0.196 C  
HETATM    4  C   UNL     3      -7.578  16.904  68.500  1.00  0.00    -0.221 C  
HETATM    5  C   UNL     3      -8.886  16.273  68.854  1.00  0.00    -0.253 C  
HETATM    6  O   UNL     3      -8.865  15.202  69.493  1.00  0.00    -0.208 OA 
HETATM    7  O   UNL     2      -9.331  12.542  68.097  1.00  0.00    -0.202 OA 
ENDROOT
BRANCH   3   8
HETATM    8  C   UNL     2     -11.495  12.608  67.029  1.00  0.00    -0.406 C  
BRANCH   8   9
HETATM    9  C   UNL     2     -11.334  12.923  65.554  1.00  0.00    -0.340 C  
HETATM   10  O   UNL     2     -13.180  14.316  65.279  1.00  0.00    -0.704 OA 
HETATM   11  O   UNL     2     -13.284  12.140  64.540  1.00  0.00    -0.724 OA 
HETATM   12  C   UNL     2     -12.751  13.155  65.058  1.00  0.00    -0.392 C  
ENDBRANCH   8   9
ENDBRANCH   3   8
BRANCH   5  13
HETATM   13  C   UNL     3     -10.162  16.890  68.330  1.00  0.00    -0.322 C  
BRANCH  13  14
HETATM   14  C   UNL     3     -10.744  15.999  67.256  1.00  0.00    -0.295 C  
HETATM   15  C   UNL     3     -10.061  16.373  65.956  1.00  0.00    -0.353 C  
HETATM   16  O   UNL     3      -9.172  15.567  65.587  1.00  0.00    -0.268 OA 
HETATM   17  O   UNL     3     -10.509  17.434  65.440  1.00  0.00    -0.648 OA 
ENDBRANCH  13  14
ENDBRANCH   5  13
TORSDOF 4
ENDMDL
MODEL       37
REMARK 921   NORMALIZED FREE ENERGY PREDICTED BY IDOCK:   -5.06 KCAL/MOL
REMARK 922        TOTAL FREE ENERGY PREDICTED BY IDOCK:   -6.61 KCAL/MOL
REMARK 923 INTER-LIGAND FREE ENERGY PREDICTED BY IDOCK:   -6.10 KCAL/MOL
REMARK 924 INTRA-LIGAND FREE ENERGY PREDICTED BY IDOCK:   -0.51 KCAL/MOL
REMARK 927      BINDING AFFINITY PREDICTED BY RF-SCORE:    0.00 PKD
ROOT
HETATM    1 CA   UNL     1      -9.943   9.905  67.576  1.00  0.00    -0.149 Ca 
HETATM    2  C   UNL     2     -12.305  11.464  70.628  1.00  0.00    -0.466 C  
HETATM    3  C   UNL     2     -11.890  12.006  69.292  1.00  0.00    -0.318 C  
HETATM    4  C   UNL     3     -10.183  10.896  63.927  1.00  0.00    -0.418 C  
HETATM    5  C   UNL     3      -9.830  11.849  65.024  1.00  0.00    -0.209 C  
HETATM    6  O   UNL     3      -9.457  11.373  66.114  1.00  0.00    -0.203 OA 
HETATM    7  O   UNL     2     -11.354  11.228  68.486  1.00  0.00    -0.226 OA 
ENDROOT
BRANCH   3   8
HETATM    8  C   UNL     2     -12.118  13.462  68.989  1.00  0.00    -0.299 C  
BRANCH   8   9
HETATM    9  C   UNL     2     -10.844  14.265  69.176  1.00  0.00    -0.264 C  
HETATM   10  O   UNL     2     -11.671  15.936  70.570  1.00  0.00    -0.341 OA 
HETATM   11  O   UNL     2     -11.325  16.390  68.342  1.00  0.00    -0.366 OA 
HETATM   12  C   UNL     2     -11.321  15.691  69.388  1.00  0.00    -0.330 C  
ENDBRANCH   8   9
ENDBRANCH   3   8
BRANCH   5  13
HETATM   13  C   UNL     3     -10.049  13.328  64.806  1.00  0.00    -0.250 C  
BRANCH  13  14
HETATM   14  C   UNL     3     -11.274  13.770  65.573  1.00  0.00    -0.303 C  
HETATM   15  C   UNL     3     -12.459  13.609  64.640  1.00  0.00    -0.314 C  
HETATM   16  O   UNL     3     -13.166  12.598  64.872  1.00  0.00    -0.819 OA 
HETATM   17  O   UNL     3     -12.555  14.531  63.785  1.00  0.00    -0.825 OA 
ENDBRANCH  13  14
ENDBRANCH   5  13
TORSDOF 4
ENDMDL
MODEL       38
REMARK 921   NORMALIZED FREE ENERGY PREDICTED BY IDOCK:   -5.06 KCAL/MOL
REMARK 922        TOTAL FREE ENERGY PREDICTED BY IDOCK:   -6.61 KCAL/MOL
REMARK 923 INTER-LIGAND FREE ENERGY PREDICTED BY IDOCK:   -6.12 KCAL/MOL
REMARK 924 INTRA-LIGAND FREE ENERGY PREDICTED BY IDOCK:   -0.49 KCAL/MOL
REMARK 927      BINDING AFFINITY PREDICTED BY RF-SCORE:    0.00 PKD
ROOT
HETATM    1 CA   UNL     1     -10.278   7.796  65.863  1.00  0.00    -0.415 Ca 
HETATM    2  C   UNL     2      -9.901  10.953  63.177  1.00  0.00    -0.392 C  
HETATM    3  C   UNL     2     -10.051  10.906  64.670  1.00  0.00    -0.328 C  
HETATM    4  C   UNL     3      -9.314   7.937  69.525  1.00  0.00    -0.156 C  
HETATM    5  C   UNL     3     -10.365   8.805  68.909  1.00  0.00    -0.212 C  
HETATM    6  O   UNL     3     -10.834   8.462  67.806  1.00  0.00    -0.142 OA 
HETATM    7  O   UNL     2      -9.923   9.808  65.236  1.00  0.00    -0.318 OA 
ENDROOT
BRANCH   3   8
HETATM    8  C   UNL     2     -10.368  12.174  65.415  1.00  0.00    -0.301 C  
BRANCH   8   9
HETATM    9  C   UNL     2     -11.741  12.102  66.057  1.00  0.00    -0.388 C  
HETATM   10  O   UNL     2     -13.047  12.415  64.155  1.00  0.00    -0.762 OA 
HETATM   11  O   UNL     2     -12.738  14.164  65.616  1.00  0.00    -0.514 OA 
HETATM   12  C   UNL     2     -12.615  12.988  65.187  1.00  0.00    -0.469 C  
ENDBRANCH   8   9
ENDBRANCH   3   8
BRANCH   5  13
HETATM   13  C   UNL     3     -10.726  10.107  69.585  1.00  0.00    -0.295 C  
BRANCH  13  14
HETATM   14  C   UNL     3     -10.953   9.859  71.059  1.00  0.00    -0.360 C  
HETATM   15  C   UNL     3     -12.453   9.789  71.268  1.00  0.00    -0.367 C  
HETATM   16  O   UNL     3     -12.903   8.626  71.408  1.00  0.00    -0.314 OA 
HETATM   17  O   UNL     3     -13.011  10.920  71.285  1.00  0.00    -0.384 OA 
ENDBRANCH  13  14
ENDBRANCH   5  13
TORSDOF 4
ENDMDL
MODEL       39
REMARK 921   NORMALIZED FREE ENERGY PREDICTED BY IDOCK:   -5.03 KCAL/MOL
REMARK 922        TOTAL FREE ENERGY PREDICTED BY IDOCK:   -6.58 KCAL/MOL
REMARK 923 INTER-LIGAND FREE ENERGY PREDICTED BY IDOCK:   -5.99 KCAL/MOL
REMARK 924 INTRA-LIGAND FREE ENERGY PREDICTED BY IDOCK:   -0.58 KCAL/MOL
REMARK 927      BINDING AFFINITY PREDICTED BY RF-SCORE:    0.00 PKD
ROOT
HETATM    1 CA   UNL     1      -8.445  14.902  70.206  1.00  0.00    -0.383 Ca 
HETATM    2  C   UNL     2     -12.002  12.771  69.857  1.00  0.00    -0.368 C  
HETATM    3  C   UNL     2     -11.353  13.805  68.986  1.00  0.00    -0.289 C  
HETATM    4  C   UNL     3      -6.507  16.377  67.303  1.00  0.00    -0.222 C  
HETATM    5  C   UNL     3      -7.905  16.776  67.655  1.00  0.00    -0.175 C  
HETATM    6  O   UNL     3      -8.324  16.490  68.794  1.00  0.00    -0.227 OA 
HETATM    7  O   UNL     2     -10.175  14.118  69.227  1.00  0.00    -0.114 OA 
ENDROOT
BRANCH   3   8
HETATM    8  C   UNL     2     -12.151  14.435  67.877  1.00  0.00    -0.280 C  
BRANCH   8   9
HETATM    9  C   UNL     2     -11.471  14.238  66.535  1.00  0.00    -0.368 C  
HETATM   10  O   UNL     2     -13.360  14.214  65.174  1.00  0.00    -0.684 OA 
HETATM   11  O   UNL     2     -12.320  12.231  65.701  1.00  0.00    -0.619 OA 
HETATM   12  C   UNL     2     -12.488  13.478  65.702  1.00  0.00    -0.479 C  
ENDBRANCH   8   9
ENDBRANCH   3   8
BRANCH   5  13
HETATM   13  C   UNL     3      -8.779  17.396  66.591  1.00  0.00    -0.286 C  
BRANCH  13  14
HETATM   14  C   UNL     3     -10.053  17.905  67.225  1.00  0.00    -0.344 C  
HETATM   15  C   UNL     3     -10.109  19.398  66.966  1.00  0.00    -0.387 C  
HETATM   16  O   UNL     3     -10.899  19.734  66.049  1.00  0.00    -0.428 OA 
HETATM   17  O   UNL     3      -9.361  20.069  67.727  1.00  0.00    -0.344 OA 
ENDBRANCH  13  14
ENDBRANCH   5  13
TORSDOF 4
ENDMDL
MODEL       40
REMARK 921   NORMALIZED FREE ENERGY PREDICTED BY IDOCK:   -5.03 KCAL/MOL
REMARK 922        TOTAL FREE ENERGY PREDICTED BY IDOCK:   -6.57 KCAL/MOL
REMARK 923 INTER-LIGAND FREE ENERGY PREDICTED BY IDOCK:   -6.16 KCAL/MOL
REMARK 924 INTRA-LIGAND FREE ENERGY PREDICTED BY IDOCK:   -0.41 KCAL/MOL
REMARK 927      BINDING AFFINITY PREDICTED BY RF-SCORE:    0.00 PKD
ROOT
HETATM    1 CA   UNL     1      -9.796  12.230  69.748  1.00  0.00    -0.338 Ca 
HETATM    2  C   UNL     2     -11.500  15.953  70.490  1.00  0.00    -0.412 C  
HETATM    3  C   UNL     2     -11.255  15.186  69.223  1.00  0.00    -0.278 C  
HETATM    4  C   UNL     3     -10.522  10.078  66.714  1.00  0.00    -0.267 C  
HETATM    5  C   UNL     3      -9.918  11.443  66.637  1.00  0.00    -0.208 C  
HETATM    6  O   UNL     3      -9.420  11.922  67.676  1.00  0.00    -0.175 OA 
HETATM    7  O   UNL     2     -10.923  13.993  69.317  1.00  0.00    -0.250 OA 
ENDROOT
BRANCH   3   8
HETATM    8  C   UNL     2     -11.400  15.890  67.901  1.00  0.00    -0.252 C  
BRANCH   8   9
HETATM    9  C   UNL     2     -10.045  16.273  67.335  1.00  0.00    -0.260 C  
HETATM   10  O   UNL     2     -10.453  18.527  66.916  1.00  0.00    -0.378 OA 
HETATM   11  O   UNL     2     -10.471  17.029  65.170  1.00  0.00    -0.667 OA 
HETATM   12  C   UNL     2     -10.344  17.402  66.365  1.00  0.00    -0.317 C  
ENDBRANCH   8   9
ENDBRANCH   3   8
BRANCH   5  13
HETATM   13  C   UNL     3     -10.038  12.224  65.350  1.00  0.00    -0.292 C  
BRANCH  13  14
HETATM   14  C   UNL     3     -10.958  11.489  64.403  1.00  0.00    -0.390 C  
HETATM   15  C   UNL     3     -12.116  12.420  64.101  1.00  0.00    -0.453 C  
HETATM   16  O   UNL     3     -12.053  12.977  62.978  1.00  0.00    -0.448 OA 
HETATM   17  O   UNL     3     -12.971  12.475  65.027  1.00  0.00    -0.779 OA 
ENDBRANCH  13  14
ENDBRANCH   5  13
TORSDOF 4
ENDMDL
MODEL       41
REMARK 921   NORMALIZED FREE ENERGY PREDICTED BY IDOCK:   -5.02 KCAL/MOL
REMARK 922        TOTAL FREE ENERGY PREDICTED BY IDOCK:   -6.56 KCAL/MOL
REMARK 923 INTER-LIGAND FREE ENERGY PREDICTED BY IDOCK:   -5.93 KCAL/MOL
REMARK 924 INTRA-LIGAND FREE ENERGY PREDICTED BY IDOCK:   -0.63 KCAL/MOL
REMARK 927      BINDING AFFINITY PREDICTED BY RF-SCORE:    0.00 PKD
ROOT
HETATM    1 CA   UNL     1      -8.684  12.735  69.450  1.00  0.00    -0.342 Ca 
HETATM    2  C   UNL     2     -12.023  12.603  66.970  1.00  0.00    -0.330 C  
HETATM    3  C   UNL     2     -10.898  13.588  67.102  1.00  0.00    -0.284 C  
HETATM    4  C   UNL     3      -5.458  14.555  68.651  1.00  0.00    -0.094 C  
HETATM    5  C   UNL     3      -6.783  15.235  68.785  1.00  0.00    -0.103 C  
HETATM    6  O   UNL     3      -7.699  14.620  69.365  1.00  0.00    -0.131 OA 
HETATM    7  O   UNL     2      -9.912  13.262  67.783  1.00  0.00    -0.213 OA 
ENDROOT
BRANCH   3   8
HETATM    8  C   UNL     2     -11.015  14.928  66.428  1.00  0.00    -0.336 C  
BRANCH   8   9
HETATM    9  C   UNL     2     -10.565  14.853  64.981  1.00  0.00    -0.446 C  
HETATM   10  O   UNL     2     -11.408  16.892  64.236  1.00  0.00    -1.202 OA 
HETATM   11  O   UNL     2     -12.526  14.949  63.719  1.00  0.00    -0.768 OA 
HETATM   12  C   UNL     2     -11.608  15.651  64.218  1.00  0.00    -0.189 C  
ENDBRANCH   8   9
ENDBRANCH   3   8
BRANCH   5  13
HETATM   13  C   UNL     3      -6.988  16.576  68.121  1.00  0.00    -0.149 C  
BRANCH  13  14
HETATM   14  C   UNL     3      -7.509  16.364  66.717  1.00  0.00    -0.278 C  
HETATM   15  C   UNL     3      -7.974  17.715  66.211  1.00  0.00    -0.257 C  
HETATM   16  O   UNL     3      -7.182  18.268  65.409  1.00  0.00    -0.541 OA 
HETATM   17  O   UNL     3      -9.096  18.064  66.668  1.00  0.00    -0.266 OA 
ENDBRANCH  13  14
ENDBRANCH   5  13
TORSDOF 4
ENDMDL
MODEL       42
REMARK 921   NORMALIZED FREE ENERGY PREDICTED BY IDOCK:   -4.98 KCAL/MOL
REMARK 922        TOTAL FREE ENERGY PREDICTED BY IDOCK:   -6.51 KCAL/MOL
REMARK 923 INTER-LIGAND FREE ENERGY PREDICTED BY IDOCK:   -6.02 KCAL/MOL
REMARK 924 INTRA-LIGAND FREE ENERGY PREDICTED BY IDOCK:   -0.49 KCAL/MOL
REMARK 927      BINDING AFFINITY PREDICTED BY RF-SCORE:    0.00 PKD
ROOT
HETATM    1 CA   UNL     1     -12.674  16.197  64.029  1.00  0.00    -0.522 Ca 
HETATM    2  C   UNL     2     -12.693  12.091  63.353  1.00  0.00    -0.527 C  
HETATM    3  C   UNL     2     -11.729  12.995  64.064  1.00  0.00    -0.436 C  
HETATM    4  C   UNL     3     -10.886  17.915  66.894  1.00  0.00    -0.063 C  
HETATM    5  C   UNL     3     -10.189  17.111  65.844  1.00  0.00    -0.276 C  
HETATM    6  O   UNL     3     -10.803  16.874  64.785  1.00  0.00    -0.787 OA 
HETATM    7  O   UNL     2     -12.087  14.160  64.302  1.00  0.00    -0.454 OA 
ENDROOT
BRANCH   3   8
HETATM    8  C   UNL     2     -10.371  12.468  64.441  1.00  0.00    -0.378 C  
BRANCH   8   9
HETATM    9  C   UNL     2     -10.479  11.116  65.123  1.00  0.00    -0.341 C  
HETATM   10  O   UNL     2     -11.692  11.757  67.004  1.00  0.00    -0.555 OA 
HETATM   11  O   UNL     2      -9.430  11.382  67.190  1.00  0.00    -0.173 OA 
HETATM   12  C   UNL     2     -10.543  11.442  66.604  1.00  0.00    -0.258 C  
ENDBRANCH   8   9
ENDBRANCH   3   8
BRANCH   5  13
HETATM   13  C   UNL     3      -8.829  16.529  66.151  1.00  0.00    -0.342 C  
BRANCH  13  14
HETATM   14  C   UNL     3      -8.994  15.116  66.662  1.00  0.00    -0.319 C  
HETATM   15  C   UNL     3      -7.924  14.901  67.715  1.00  0.00    -0.150 C  
HETATM   16  O   UNL     3      -8.344  14.955  68.897  1.00  0.00    -0.164 OA 
HETATM   17  O   UNL     3      -6.780  14.685  67.232  1.00  0.00    -0.280 OA 
ENDBRANCH  13  14
ENDBRANCH   5  13
TORSDOF 4
ENDMDL
MODEL       43
REMARK 921   NORMALIZED FREE ENERGY PREDICTED BY IDOCK:   -4.97 KCAL/MOL
REMARK 922        TOTAL FREE ENERGY PREDICTED BY IDOCK:   -6.50 KCAL/MOL
REMARK 923 INTER-LIGAND FREE ENERGY PREDICTED BY IDOCK:   -6.10 KCAL/MOL
REMARK 924 INTRA-LIGAND FREE ENERGY PREDICTED BY IDOCK:   -0.40 KCAL/MOL
REMARK 927      BINDING AFFINITY PREDICTED BY RF-SCORE:    0.00 PKD
ROOT
HETATM    1 CA   UNL     1     -10.753  12.946  69.728  1.00  0.00    -0.402 Ca 
HETATM    2  C   UNL     2     -10.057   9.089  71.128  1.00  0.00    -0.365 C  
HETATM    3  C   UNL     2     -10.143   9.663  69.744  1.00  0.00    -0.233 C  
HETATM    4  C   UNL     3      -9.613  14.272  66.366  1.00  0.00    -0.317 C  
HETATM    5  C   UNL     3     -10.556  13.123  66.528  1.00  0.00    -0.284 C  
HETATM    6  O   UNL     3     -11.120  12.981  67.631  1.00  0.00    -0.250 OA 
HETATM    7  O   UNL     2     -10.146  10.900  69.623  1.00  0.00    -0.103 OA 
ENDROOT
BRANCH   3   8
HETATM    8  C   UNL     2     -10.242   8.730  68.568  1.00  0.00    -0.220 C  
BRANCH   8   9
HETATM    9  C   UNL     2      -9.730   7.347  68.924  1.00  0.00    -0.150 C  
HETATM   10  O   UNL     2     -11.109   6.084  67.536  1.00  0.00    -0.302 OA 
HETATM   11  O   UNL     2     -11.575   6.208  69.785  1.00  0.00    -0.405 OA 
HETATM   12  C   UNL     2     -10.930   6.436  68.729  1.00  0.00    -0.334 C  
ENDBRANCH   8   9
ENDBRANCH   3   8
BRANCH   5  13
HETATM   13  C   UNL     3     -10.698  12.129  65.400  1.00  0.00    -0.323 C  
BRANCH  13  14
HETATM   14  C   UNL     3     -10.718  12.868  64.082  1.00  0.00    -0.443 C  
HETATM   15  C   UNL     3     -12.169  13.184  63.775  1.00  0.00    -0.456 C  
HETATM   16  O   UNL     3     -12.496  14.376  63.995  1.00  0.00    -0.748 OA 
HETATM   17  O   UNL     3     -12.815  12.197  63.330  1.00  0.00    -0.765 OA 
ENDBRANCH  13  14
ENDBRANCH   5  13
TORSDOF 4
ENDMDL
MODEL       44
REMARK 921   NORMALIZED FREE ENERGY PREDICTED BY IDOCK:   -4.94 KCAL/MOL
REMARK 922        TOTAL FREE ENERGY PREDICTED BY IDOCK:   -6.46 KCAL/MOL
REMARK 923 INTER-LIGAND FREE ENERGY PREDICTED BY IDOCK:   -6.01 KCAL/MOL
REMARK 924 INTRA-LIGAND FREE ENERGY PREDICTED BY IDOCK:   -0.45 KCAL/MOL
REMARK 927      BINDING AFFINITY PREDICTED BY RF-SCORE:    0.00 PKD
ROOT
HETATM    1 CA   UNL     1     -12.831  14.214  71.821  1.00  0.00    -0.279 Ca 
HETATM    2  C   UNL     2     -12.570  10.084  71.379  1.00  0.00    -0.518 C  
HETATM    3  C   UNL     2     -12.243  11.223  70.459  1.00  0.00    -0.383 C  
HETATM    4  C   UNL     3     -10.746  16.736  69.910  1.00  0.00    -0.123 C  
HETATM    5  C   UNL     3     -11.692  15.777  69.259  1.00  0.00    -0.374 C  
HETATM    6  O   UNL     3     -12.557  15.234  69.974  1.00  0.00    -0.318 OA 
HETATM    7  O   UNL     2     -12.214  12.370  70.935  1.00  0.00    -0.355 OA 
ENDROOT
BRANCH   3   8
HETATM    8  C   UNL     2     -11.985  10.939  69.004  1.00  0.00    -0.322 C  
BRANCH   8   9
HETATM    9  C   UNL     2     -11.020  11.950  68.413  1.00  0.00    -0.273 C  
HETATM   10  O   UNL     2     -12.121  12.369  66.404  1.00  0.00    -0.607 OA 
HETATM   11  O   UNL     2     -10.273  10.998  66.418  1.00  0.00    -0.221 OA 
HETATM   12  C   UNL     2     -11.144  11.761  66.911  1.00  0.00    -0.307 C  
ENDBRANCH   8   9
ENDBRANCH   3   8
BRANCH   5  13
HETATM   13  C   UNL     3     -11.488  15.424  67.805  1.00  0.00    -0.284 C  
BRANCH  13  14
HETATM   14  C   UNL     3     -10.630  16.481  67.148  1.00  0.00    -0.270 C  
HETATM   15  C   UNL     3     -10.224  15.939  65.792  1.00  0.00    -0.365 C  
HETATM   16  O   UNL     3     -10.864  16.424  64.828  1.00  0.00    -0.697 OA 
HETATM   17  O   UNL     3      -9.290  15.093  65.848  1.00  0.00    -0.317 OA 
ENDBRANCH  13  14
ENDBRANCH   5  13
TORSDOF 4
ENDMDL
MODEL       45
REMARK 921   NORMALIZED FREE ENERGY PREDICTED BY IDOCK:   -4.93 KCAL/MOL
REMARK 922        TOTAL FREE ENERGY PREDICTED BY IDOCK:   -6.44 KCAL/MOL
REMARK 923 INTER-LIGAND FREE ENERGY PREDICTED BY IDOCK:   -5.90 KCAL/MOL
REMARK 924 INTRA-LIGAND FREE ENERGY PREDICTED BY IDOCK:   -0.54 KCAL/MOL
REMARK 927      BINDING AFFINITY PREDICTED BY RF-SCORE:    0.00 PKD
ROOT
HETATM    1 CA   UNL     1      -9.192  13.439  68.458  1.00  0.00    -0.165 Ca 
HETATM    2  C   UNL     2     -10.612   9.527  68.414  1.00  0.00    -0.261 C  
HETATM    3  C   UNL     2     -11.209  10.815  68.899  1.00  0.00    -0.268 C  
HETATM    4  C   UNL     3     -11.372  16.538  68.498  1.00  0.00    -0.231 C  
HETATM    5  C   UNL     3     -11.378  15.505  69.579  1.00  0.00    -0.313 C  
HETATM    6  O   UNL     3     -10.412  14.719  69.642  1.00  0.00    -0.201 OA 
HETATM    7  O   UNL     2     -10.644  11.877  68.587  1.00  0.00    -0.223 OA 
ENDROOT
BRANCH   3   8
HETATM    8  C   UNL     2     -12.447  10.774  69.753  1.00  0.00    -0.231 C  
BRANCH   8   9
HETATM    9  C   UNL     2     -12.095  10.858  71.227  1.00  0.00    -0.322 C  
HETATM   10  O   UNL     2     -11.957   8.581  71.696  1.00  0.00    -0.283 OA 
HETATM   11  O   UNL     2     -13.827   9.757  72.339  1.00  0.00    -0.330 OA 
HETATM   12  C   UNL     2     -12.686   9.596  71.831  1.00  0.00    -0.411 C  
ENDBRANCH   8   9
ENDBRANCH   3   8
BRANCH   5  13
HETATM   13  C   UNL     3     -12.593  15.385  70.469  1.00  0.00    -0.471 C  
BRANCH  13  14
HETATM   14  C   UNL     3     -12.185  14.780  71.793  1.00  0.00    -0.416 C  
HETATM   15  C   UNL     3     -13.428  14.740  72.660  1.00  0.00    -0.471 C  
HETATM   16  O   UNL     3     -13.957  13.606  72.755  1.00  0.00    -0.725 OA 
HETATM   17  O   UNL     3     -13.725  15.857  73.164  1.00  0.00    -0.576 OA 
ENDBRANCH  13  14
ENDBRANCH   5  13
TORSDOF 4
ENDMDL
MODEL       46
REMARK 921   NORMALIZED FREE ENERGY PREDICTED BY IDOCK:   -4.92 KCAL/MOL
REMARK 922        TOTAL FREE ENERGY PREDICTED BY IDOCK:   -6.44 KCAL/MOL
REMARK 923 INTER-LIGAND FREE ENERGY PREDICTED BY IDOCK:   -6.02 KCAL/MOL
REMARK 924 INTRA-LIGAND FREE ENERGY PREDICTED BY IDOCK:   -0.42 KCAL/MOL
REMARK 927      BINDING AFFINITY PREDICTED BY RF-SCORE:    0.00 PKD
ROOT
HETATM    1 CA   UNL     1     -11.499  17.148  63.957  1.00  0.00    -0.401 Ca 
HETATM    2  C   UNL     2     -12.259  13.059  63.800  1.00  0.00    -0.536 C  
HETATM    3  C   UNL     2     -11.536  13.916  64.796  1.00  0.00    -0.362 C  
HETATM    4  C   UNL     3     -10.856  19.114  67.132  1.00  0.00    -0.507 C  
HETATM    5  C   UNL     3      -9.987  17.992  66.660  1.00  0.00    -0.362 C  
HETATM    6  O   UNL     3     -10.084  17.640  65.468  1.00  0.00    -0.566 OA 
HETATM    7  O   UNL     2     -11.649  15.150  64.699  1.00  0.00    -0.404 OA 
ENDROOT
BRANCH   3   8
HETATM    8  C   UNL     2     -10.690  13.258  65.852  1.00  0.00    -0.284 C  
BRANCH   8   9
HETATM    9  C   UNL     2     -11.528  12.352  66.736  1.00  0.00    -0.423 C  
HETATM   10  O   UNL     2     -12.168  13.908  68.346  1.00  0.00    -0.339 OA 
HETATM   11  O   UNL     2     -10.496  12.403  68.828  1.00  0.00    -0.218 OA 
HETATM   12  C   UNL     2     -11.390  12.944  68.127  1.00  0.00    -0.289 C  
ENDBRANCH   8   9
ENDBRANCH   3   8
BRANCH   5  13
HETATM   13  C   UNL     3      -9.123  17.265  67.663  1.00  0.00    -0.228 C  
BRANCH  13  14
HETATM   14  C   UNL     3      -7.680  17.674  67.470  1.00  0.00    -0.210 C  
HETATM   15  C   UNL     3      -7.204  18.246  68.791  1.00  0.00    -0.279 C  
HETATM   16  O   UNL     3      -6.480  17.469  69.460  1.00  0.00    -0.251 OA 
HETATM   17  O   UNL     3      -7.600  19.425  69.000  1.00  0.00    -0.360 OA 
ENDBRANCH  13  14
ENDBRANCH   5  13
TORSDOF 4
ENDMDL
MODEL       47
REMARK 921   NORMALIZED FREE ENERGY PREDICTED BY IDOCK:   -4.92 KCAL/MOL
REMARK 922        TOTAL FREE ENERGY PREDICTED BY IDOCK:   -6.44 KCAL/MOL
REMARK 923 INTER-LIGAND FREE ENERGY PREDICTED BY IDOCK:   -6.10 KCAL/MOL
REMARK 924 INTRA-LIGAND FREE ENERGY PREDICTED BY IDOCK:   -0.34 KCAL/MOL
REMARK 927      BINDING AFFINITY PREDICTED BY RF-SCORE:    0.00 PKD
ROOT
HETATM    1 CA   UNL     1     -14.224  11.917  73.028  1.00  0.00    -0.562 Ca 
HETATM    2  C   UNL     2     -13.240  15.479  71.113  1.00  0.00    -0.576 C  
HETATM    3  C   UNL     2     -12.830  14.056  70.875  1.00  0.00    -0.318 C  
HETATM    4  C   UNL     3     -14.105   8.487  71.423  1.00  0.00    -0.360 C  
HETATM    5  C   UNL     3     -12.908   9.368  71.587  1.00  0.00    -0.378 C  
HETATM    6  O   UNL     3     -12.981  10.306  72.406  1.00  0.00    -0.295 OA 
HETATM    7  O   UNL     2     -13.453  13.160  71.470  1.00  0.00    -0.284 OA 
ENDROOT
BRANCH   3   8
HETATM    8  C   UNL     2     -11.678  13.769  69.951  1.00  0.00    -0.353 C  
BRANCH   8   9
HETATM    9  C   UNL     2     -12.099  13.889  68.499  1.00  0.00    -0.331 C  
HETATM   10  O   UNL     2     -12.045  11.635  67.919  1.00  0.00    -0.613 OA 
HETATM   11  O   UNL     2     -10.323  13.012  67.265  1.00  0.00    -0.236 OA 
HETATM   12  C   UNL     2     -11.421  12.720  67.808  1.00  0.00    -0.326 C  
ENDBRANCH   8   9
ENDBRANCH   3   8
BRANCH   5  13
HETATM   13  C   UNL     3     -11.716   9.158  70.683  1.00  0.00    -0.256 C  
BRANCH  13  14
HETATM   14  C   UNL     3     -10.960   7.928  71.130  1.00  0.00    -0.262 C  
HETATM   15  C   UNL     3     -10.264   8.287  72.428  1.00  0.00    -0.327 C  
HETATM   16  O   UNL     3     -10.821   7.832  73.457  1.00  0.00    -0.275 OA 
HETATM   17  O   UNL     3      -9.220   8.975  72.266  1.00  0.00    -0.344 OA 
ENDBRANCH  13  14
ENDBRANCH   5  13
TORSDOF 4
ENDMDL
MODEL       48
REMARK 921   NORMALIZED FREE ENERGY PREDICTED BY IDOCK:   -4.91 KCAL/MOL
REMARK 922        TOTAL FREE ENERGY PREDICTED BY IDOCK:   -6.43 KCAL/MOL
REMARK 923 INTER-LIGAND FREE ENERGY PREDICTED BY IDOCK:   -6.36 KCAL/MOL
REMARK 924 INTRA-LIGAND FREE ENERGY PREDICTED BY IDOCK:   -0.07 KCAL/MOL
REMARK 927      BINDING AFFINITY PREDICTED BY RF-SCORE:    0.00 PKD
ROOT
HETATM    1 CA   UNL     1      -8.879  15.854  70.329  1.00  0.00    -0.161 Ca 
HETATM    2  C   UNL     2      -8.475  16.122  66.196  1.00  0.00    -0.288 C  
HETATM    3  C   UNL     2      -9.654  15.844  67.082  1.00  0.00    -0.218 C  
HETATM    4  C   UNL     3     -12.095  16.460  72.238  1.00  0.00    -0.462 C  
HETATM    5  C   UNL     3     -11.927  15.381  71.217  1.00  0.00    -0.374 C  
HETATM    6  O   UNL     3     -10.767  15.054  70.898  1.00  0.00    -0.143 OA 
HETATM    7  O   UNL     2      -9.528  16.040  68.302  1.00  0.00    -0.202 OA 
ENDROOT
BRANCH   3   8
HETATM    8  C   UNL     2     -10.925  15.323  66.468  1.00  0.00    -0.295 C  
BRANCH   8   9
HETATM    9  C   UNL     2     -10.683  14.812  65.060  1.00  0.00    -0.452 C  
HETATM   10  O   UNL     2     -11.517  16.631  63.868  1.00  0.00    -1.186 OA 
HETATM   11  O   UNL     2     -12.791  14.726  64.064  1.00  0.00    -0.697 OA 
HETATM   12  C   UNL     2     -11.779  15.455  64.229  1.00  0.00    -0.206 C  
ENDBRANCH   8   9
ENDBRANCH   3   8
BRANCH   5  13
HETATM   13  C   UNL     3     -13.154  14.818  70.539  1.00  0.00    -0.275 C  
BRANCH  13  14
HETATM   14  C   UNL     3     -14.200  14.498  71.583  1.00  0.00    -0.554 C  
HETATM   15  C   UNL     3     -13.655  13.354  72.416  1.00  0.00    -0.606 C  
HETATM   16  O   UNL     3     -13.211  13.697  73.538  1.00  0.00    -0.026 OA 
HETATM   17  O   UNL     3     -13.751  12.231  71.850  1.00  0.00    -0.211 OA 
ENDBRANCH  13  14
ENDBRANCH   5  13
TORSDOF 4
ENDMDL
MODEL       49
REMARK 921   NORMALIZED FREE ENERGY PREDICTED BY IDOCK:   -4.90 KCAL/MOL
REMARK 922        TOTAL FREE ENERGY PREDICTED BY IDOCK:   -6.42 KCAL/MOL
REMARK 923 INTER-LIGAND FREE ENERGY PREDICTED BY IDOCK:   -6.09 KCAL/MOL
REMARK 924 INTRA-LIGAND FREE ENERGY PREDICTED BY IDOCK:   -0.32 KCAL/MOL
REMARK 927      BINDING AFFINITY PREDICTED BY RF-SCORE:    0.00 PKD
ROOT
HETATM    1 CA   UNL     1     -11.580  15.263  68.395  1.00  0.00    -0.252 Ca 
HETATM    2  C   UNL     2     -12.332  14.819  64.326  1.00  0.00    -0.345 C  
HETATM    3  C   UNL     2     -12.335  13.845  65.468  1.00  0.00    -0.480 C  
HETATM    4  C   UNL     3     -12.933  12.993  71.111  1.00  0.00    -0.265 C  
HETATM    5  C   UNL     3     -12.032  12.527  70.013  1.00  0.00    -0.299 C  
HETATM    6  O   UNL     3     -11.387  13.387  69.381  1.00  0.00    -0.260 OA 
HETATM    7  O   UNL     2     -12.285  14.298  66.624  1.00  0.00    -0.449 OA 
ENDROOT
BRANCH   3   8
HETATM    8  C   UNL     2     -12.375  12.370  65.173  1.00  0.00    -0.403 C  
BRANCH   8   9
HETATM    9  C   UNL     2     -12.109  12.099  63.704  1.00  0.00    -0.648 C  
HETATM   10  O   UNL     2     -10.402  10.531  63.931  1.00  0.00    -0.262 OA 
HETATM   11  O   UNL     2      -9.880  12.698  63.361  1.00  0.00    -0.262 OA 
HETATM   12  C   UNL     2     -10.636  11.733  63.647  1.00  0.00    -0.439 C  
ENDBRANCH   8   9
ENDBRANCH   3   8
BRANCH   5  13
HETATM   13  C   UNL     3     -12.029  11.062  69.642  1.00  0.00    -0.424 C  
BRANCH  13  14
HETATM   14  C   UNL     3     -11.243  10.287  70.674  1.00  0.00    -0.406 C  
HETATM   15  C   UNL     3     -12.142   9.167  71.162  1.00  0.00    -0.299 C  
HETATM   16  O   UNL     3     -11.869   8.039  70.685  1.00  0.00    -0.223 OA 
HETATM   17  O   UNL     3     -13.016   9.548  71.988  1.00  0.00    -0.379 OA 
ENDBRANCH  13  14
ENDBRANCH   5  13
TORSDOF 4
ENDMDL
MODEL       50
REMARK 921   NORMALIZED FREE ENERGY PREDICTED BY IDOCK:   -4.89 KCAL/MOL
REMARK 922        TOTAL FREE ENERGY PREDICTED BY IDOCK:   -6.40 KCAL/MOL
REMARK 923 INTER-LIGAND FREE ENERGY PREDICTED BY IDOCK:   -5.97 KCAL/MOL
REMARK 924 INTRA-LIGAND FREE ENERGY PREDICTED BY IDOCK:   -0.43 KCAL/MOL
REMARK 927      BINDING AFFINITY PREDICTED BY RF-SCORE:    0.00 PKD
ROOT
HETATM    1 CA   UNL     1      -7.766  12.318  67.668  1.00  0.00    -0.094 Ca 
HETATM    2  C   UNL     2      -6.495  16.267  67.329  1.00  0.00    -0.223 C  
HETATM    3  C   UNL     2      -7.796  15.591  67.007  1.00  0.00    -0.225 C  
HETATM    4  C   UNL     3     -11.375  11.225  68.035  1.00  0.00    -0.372 C  
HETATM    5  C   UNL     3     -10.850  11.967  66.848  1.00  0.00    -0.263 C  
HETATM    6  O   UNL     3      -9.616  11.986  66.670  1.00  0.00    -0.205 OA 
HETATM    7  O   UNL     2      -7.969  14.430  67.415  1.00  0.00    -0.182 OA 
ENDROOT
BRANCH   3   8
HETATM    8  C   UNL     2      -8.823  16.328  66.192  1.00  0.00    -0.362 C  
BRANCH   8   9
HETATM    9  C   UNL     2      -8.577  17.825  66.229  1.00  0.00    -0.217 C  
HETATM   10  O   UNL     2      -9.982  18.378  68.001  1.00  0.00    -0.317 OA 
HETATM   11  O   UNL     2     -10.661  18.802  65.845  1.00  0.00    -0.438 OA 
HETATM   12  C   UNL     2      -9.878  18.411  66.749  1.00  0.00    -0.342 C  
ENDBRANCH   8   9
ENDBRANCH   3   8
BRANCH   5  13
HETATM   13  C   UNL     3     -11.815  12.750  65.989  1.00  0.00    -0.495 C  
BRANCH  13  14
HETATM   14  C   UNL     3     -11.161  13.066  64.663  1.00  0.00    -0.357 C  
HETATM   15  C   UNL     3     -12.267  13.119  63.628  1.00  0.00    -0.479 C  
HETATM   16  O   UNL     3     -12.603  14.279  63.289  1.00  0.00    -0.716 OA 
HETATM   17  O   UNL     3     -12.664  11.980  63.258  1.00  0.00    -0.685 OA 
ENDBRANCH  13  14
ENDBRANCH   5  13
TORSDOF 4
ENDMDL
MODEL       51
REMARK 921   NORMALIZED FREE ENERGY PREDICTED BY IDOCK:   -4.87 KCAL/MOL
REMARK 922        TOTAL FREE ENERGY PREDICTED BY IDOCK:   -6.37 KCAL/MOL
REMARK 923 INTER-LIGAND FREE ENERGY PREDICTED BY IDOCK:   -6.01 KCAL/MOL
REMARK 924 INTRA-LIGAND FREE ENERGY PREDICTED BY IDOCK:   -0.36 KCAL/MOL
REMARK 927      BINDING AFFINITY PREDICTED BY RF-SCORE:    0.00 PKD
ROOT
HETATM    1 CA   UNL     1     -10.019   9.871  64.581  1.00  0.00    -0.256 Ca 
HETATM    2  C   UNL     2     -10.122   8.209  68.395  1.00  0.00    -0.226 C  
HETATM    3  C   UNL     2     -10.422   9.587  67.883  1.00  0.00    -0.241 C  
HETATM    4  C   UNL     3     -12.047  12.871  63.467  1.00  0.00    -0.633 C  
HETATM    5  C   UNL     3     -11.031  12.917  64.563  1.00  0.00    -0.351 C  
HETATM    6  O   UNL     3     -10.199  11.991  64.628  1.00  0.00    -0.267 OA 
HETATM    7  O   UNL     2     -10.518   9.747  66.655  1.00  0.00    -0.218 OA 
ENDROOT
BRANCH   3   8
HETATM    8  C   UNL     2     -10.573  10.717  68.866  1.00  0.00    -0.241 C  
BRANCH   8   9
HETATM    9  C   UNL     2     -12.019  11.165  68.965  1.00  0.00    -0.389 C  
HETATM   10  O   UNL     2     -11.738  12.974  70.403  1.00  0.00    -0.210 OA 
HETATM   11  O   UNL     2     -12.566  10.992  71.226  1.00  0.00    -0.385 OA 
HETATM   12  C   UNL     2     -12.132  11.782  70.348  1.00  0.00    -0.352 C  
ENDBRANCH   8   9
ENDBRANCH   3   8
BRANCH   5  13
HETATM   13  C   UNL     3     -11.125  14.010  65.602  1.00  0.00    -0.302 C  
BRANCH  13  14
HETATM   14  C   UNL     3     -10.075  15.060  65.320  1.00  0.00    -0.378 C  
HETATM   15  C   UNL     3     -10.760  16.408  65.428  1.00  0.00    -0.296 C  
HETATM   16  O   UNL     3     -10.522  17.025  66.495  1.00  0.00    -0.305 OA 
HETATM   17  O   UNL     3     -11.451  16.703  64.415  1.00  0.00    -0.959 OA 
ENDBRANCH  13  14
ENDBRANCH   5  13
TORSDOF 4
ENDMDL
MODEL       52
REMARK 921   NORMALIZED FREE ENERGY PREDICTED BY IDOCK:   -4.86 KCAL/MOL
REMARK 922        TOTAL FREE ENERGY PREDICTED BY IDOCK:   -6.36 KCAL/MOL
REMARK 923 INTER-LIGAND FREE ENERGY PREDICTED BY IDOCK:   -6.05 KCAL/MOL
REMARK 924 INTRA-LIGAND FREE ENERGY PREDICTED BY IDOCK:   -0.31 KCAL/MOL
REMARK 927      BINDING AFFINITY PREDICTED BY RF-SCORE:    0.00 PKD
ROOT
HETATM    1 CA   UNL     1     -13.584   9.975  73.238  1.00  0.00    -0.577 Ca 
HETATM    2  C   UNL     2     -14.026  13.979  72.194  1.00  0.00    -0.633 C  
HETATM    3  C   UNL     2     -13.227  12.859  71.595  1.00  0.00    -0.324 C  
HETATM    4  C   UNL     3     -12.615   7.203  70.843  1.00  0.00    -0.268 C  
HETATM    5  C   UNL     3     -11.742   8.378  71.149  1.00  0.00    -0.280 C  
HETATM    6  O   UNL     3     -11.994   9.042  72.174  1.00  0.00    -0.357 OA 
HETATM    7  O   UNL     2     -13.454  11.703  71.988  1.00  0.00    -0.411 OA 
ENDROOT
BRANCH   3   8
HETATM    8  C   UNL     2     -12.176  13.177  70.566  1.00  0.00    -0.405 C  
BRANCH   8   9
HETATM    9  C   UNL     2     -12.198  14.650  70.200  1.00  0.00    -0.391 C  
HETATM   10  O   UNL     2     -12.004  14.450  67.888  1.00  0.00    -0.353 OA 
HETATM   11  O   UNL     2     -10.163  15.050  69.130  1.00  0.00    -0.228 OA 
HETATM   12  C   UNL     2     -11.367  14.738  68.932  1.00  0.00    -0.282 C  
ENDBRANCH   8   9
ENDBRANCH   3   8
BRANCH   5  13
HETATM   13  C   UNL     3     -10.675   8.775  70.156  1.00  0.00    -0.239 C  
BRANCH  13  14
HETATM   14  C   UNL     3     -10.696  10.276  69.974  1.00  0.00    -0.345 C  
HETATM   15  C   UNL     3     -10.795  10.537  68.484  1.00  0.00    -0.234 C  
HETATM   16  O   UNL     3     -11.940  10.872  68.093  1.00  0.00    -0.581 OA 
HETATM   17  O   UNL     3      -9.701  10.391  67.874  1.00  0.00    -0.148 OA 
ENDBRANCH  13  14
ENDBRANCH   5  13
TORSDOF 4
ENDMDL
MODEL       53
REMARK 921   NORMALIZED FREE ENERGY PREDICTED BY IDOCK:   -4.84 KCAL/MOL
REMARK 922        TOTAL FREE ENERGY PREDICTED BY IDOCK:   -6.33 KCAL/MOL
REMARK 923 INTER-LIGAND FREE ENERGY PREDICTED BY IDOCK:   -5.89 KCAL/MOL
REMARK 924 INTRA-LIGAND FREE ENERGY PREDICTED BY IDOCK:   -0.44 KCAL/MOL
REMARK 927      BINDING AFFINITY PREDICTED BY RF-SCORE:    0.00 PKD
ROOT
HETATM    1 CA   UNL     1     -12.648  15.606  68.566  1.00  0.00    -0.532 Ca 
HETATM    2  C   UNL     2     -13.034  13.827  72.308  1.00  0.00    -0.432 C  
HETATM    3  C   UNL     2     -12.616  13.290  70.971  1.00  0.00    -0.324 C  
HETATM    4  C   UNL     3     -10.373  14.368  65.800  1.00  0.00    -0.340 C  
HETATM    5  C   UNL     3     -11.498  13.565  66.371  1.00  0.00    -0.331 C  
HETATM    6  O   UNL     3     -12.375  14.167  67.022  1.00  0.00    -0.396 OA 
HETATM    7  O   UNL     2     -12.381  14.103  70.061  1.00  0.00    -0.332 OA 
ENDROOT
BRANCH   3   8
HETATM    8  C   UNL     2     -12.519  11.802  70.777  1.00  0.00    -0.405 C  
BRANCH   8   9
HETATM    9  C   UNL     2     -13.124  11.057  71.951  1.00  0.00    -0.525 C  
HETATM   10  O   UNL     2     -11.705   9.211  71.979  1.00  0.00    -0.357 OA 
HETATM   11  O   UNL     2     -13.816   9.002  71.089  1.00  0.00    -0.258 OA 
HETATM   12  C   UNL     2     -12.857   9.592  71.651  1.00  0.00    -0.405 C  
ENDBRANCH   8   9
ENDBRANCH   3   8
BRANCH   5  13
HETATM   13  C   UNL     3     -11.465  12.061  66.236  1.00  0.00    -0.408 C  
BRANCH  13  14
HETATM   14  C   UNL     3     -11.171  11.444  67.584  1.00  0.00    -0.346 C  
HETATM   15  C   UNL     3      -9.710  11.037  67.573  1.00  0.00    -0.172 C  
HETATM   16  O   UNL     3      -8.953  11.813  68.206  1.00  0.00    -0.171 OA 
HETATM   17  O   UNL     3      -9.491   9.969  66.940  1.00  0.00    -0.158 OA 
ENDBRANCH  13  14
ENDBRANCH   5  13
TORSDOF 4
ENDMDL
MODEL       54
REMARK 921   NORMALIZED FREE ENERGY PREDICTED BY IDOCK:   -4.83 KCAL/MOL
REMARK 922        TOTAL FREE ENERGY PREDICTED BY IDOCK:   -6.33 KCAL/MOL
REMARK 923 INTER-LIGAND FREE ENERGY PREDICTED BY IDOCK:   -6.00 KCAL/MOL
REMARK 924 INTRA-LIGAND FREE ENERGY PREDICTED BY IDOCK:   -0.33 KCAL/MOL
REMARK 927      BINDING AFFINITY PREDICTED BY RF-SCORE:    0.00 PKD
ROOT
HETATM    1 CA   UNL     1     -11.564   9.643  67.102  1.00  0.00    -0.281 Ca 
HETATM    2  C   UNL     2     -10.289  11.945  63.878  1.00  0.00    -0.426 C  
HETATM    3  C   UNL     2     -10.784  12.308  65.247  1.00  0.00    -0.292 C  
HETATM    4  C   UNL     3     -11.467  10.744  70.726  1.00  0.00    -0.216 C  
HETATM    5  C   UNL     3     -12.262  11.440  69.668  1.00  0.00    -0.249 C  
HETATM    6  O   UNL     3     -12.492  10.824  68.609  1.00  0.00    -0.348 OA 
HETATM    7  O   UNL     2     -10.892  11.401  66.089  1.00  0.00    -0.274 OA 
ENDROOT
BRANCH   3   8
HETATM    8  C   UNL     2     -11.148  13.738  65.540  1.00  0.00    -0.300 C  
BRANCH   8   9
HETATM    9  C   UNL     2     -10.186  14.696  64.863  1.00  0.00    -0.322 C  
HETATM   10  O   UNL     2     -10.529  16.564  66.211  1.00  0.00    -0.308 OA 
HETATM   11  O   UNL     2     -11.503  16.477  64.129  1.00  0.00    -1.059 OA 
HETATM   12  C   UNL     2     -10.797  16.068  65.087  1.00  0.00    -0.395 C  
ENDBRANCH   8   9
ENDBRANCH   3   8
BRANCH   5  13
HETATM   13  C   UNL     3     -12.650  12.885  69.878  1.00  0.00     0.129 C  
BRANCH  13  14
HETATM   14  C   UNL     3     -12.385  13.271  71.315  1.00  0.00    -0.254 C  
HETATM   15  C   UNL     3     -13.694  13.783  71.882  1.00  0.00    -0.426 C  
HETATM   16  O   UNL     3     -14.290  12.967  72.627  1.00  0.00    -0.565 OA 
HETATM   17  O   UNL     3     -13.969  14.961  71.526  1.00  0.00    -0.412 OA 
ENDBRANCH  13  14
ENDBRANCH   5  13
TORSDOF 4
ENDMDL
MODEL       55
REMARK 921   NORMALIZED FREE ENERGY PREDICTED BY IDOCK:   -4.82 KCAL/MOL
REMARK 922        TOTAL FREE ENERGY PREDICTED BY IDOCK:   -6.32 KCAL/MOL
REMARK 923 INTER-LIGAND FREE ENERGY PREDICTED BY IDOCK:   -5.93 KCAL/MOL
REMARK 924 INTRA-LIGAND FREE ENERGY PREDICTED BY IDOCK:   -0.38 KCAL/MOL
REMARK 927      BINDING AFFINITY PREDICTED BY RF-SCORE:    0.00 PKD
ROOT
HETATM    1 CA   UNL     1     -10.659   9.733  65.399  1.00  0.00    -0.284 Ca 
HETATM    2  C   UNL     2     -12.001  13.171  63.476  1.00  0.00    -0.580 C  
HETATM    3  C   UNL     2     -11.904  12.795  64.925  1.00  0.00    -0.379 C  
HETATM    4  C   UNL     3      -9.329   9.610  68.945  1.00  0.00    -0.151 C  
HETATM    5  C   UNL     3     -10.719  10.035  68.594  1.00  0.00    -0.226 C  
HETATM    6  O   UNL     3     -11.157   9.729  67.468  1.00  0.00    -0.234 OA 
HETATM    7  O   UNL     2     -11.257  11.777  65.224  1.00  0.00    -0.307 OA 
ENDROOT
BRANCH   3   8
HETATM    8  C   UNL     2     -12.606  13.643  65.952  1.00  0.00    -0.478 C  
BRANCH   8   9
HETATM    9  C   UNL     2     -12.044  13.396  67.340  1.00  0.00    -0.338 C  
HETATM   10  O   UNL     2     -11.591  15.599  67.942  1.00  0.00    -0.305 OA 
HETATM   11  O   UNL     2      -9.866  14.229  67.282  1.00  0.00    -0.237 OA 
HETATM   12  C   UNL     2     -11.057  14.529  67.557  1.00  0.00    -0.307 C  
ENDBRANCH   8   9
ENDBRANCH   3   8
BRANCH   5  13
HETATM   13  C   UNL     3     -11.484  10.905  69.563  1.00  0.00    -0.372 C  
BRANCH  13  14
HETATM   14  C   UNL     3     -11.567  10.210  70.903  1.00  0.00    -0.459 C  
HETATM   15  C   UNL     3     -12.988  10.379  71.401  1.00  0.00    -0.443 C  
HETATM   16  O   UNL     3     -13.707   9.358  71.272  1.00  0.00    -0.346 OA 
HETATM   17  O   UNL     3     -13.219  11.522  71.883  1.00  0.00    -0.485 OA 
ENDBRANCH  13  14
ENDBRANCH   5  13
TORSDOF 4
ENDMDL
MODEL       56
REMARK 921   NORMALIZED FREE ENERGY PREDICTED BY IDOCK:   -4.82 KCAL/MOL
REMARK 922        TOTAL FREE ENERGY PREDICTED BY IDOCK:   -6.32 KCAL/MOL
REMARK 923 INTER-LIGAND FREE ENERGY PREDICTED BY IDOCK:   -5.86 KCAL/MOL
REMARK 924 INTRA-LIGAND FREE ENERGY PREDICTED BY IDOCK:   -0.45 KCAL/MOL
REMARK 927      BINDING AFFINITY PREDICTED BY RF-SCORE:    0.00 PKD
ROOT
HETATM    1 CA   UNL     1      -9.018   8.287  66.683  1.00  0.00    -0.115 Ca 
HETATM    2  C   UNL     2     -10.711   7.432  70.387  1.00  0.00    -0.250 C  
HETATM    3  C   UNL     2     -10.747   8.652  69.516  1.00  0.00    -0.182 C  
HETATM    4  C   UNL     3     -10.350  10.848  64.229  1.00  0.00    -0.436 C  
HETATM    5  C   UNL     3      -9.873  11.187  65.605  1.00  0.00    -0.235 C  
HETATM    6  O   UNL     3      -9.160  10.354  66.198  1.00  0.00    -0.154 OA 
HETATM    7  O   UNL     2     -10.327   8.552  68.351  1.00  0.00    -0.206 OA 
ENDROOT
BRANCH   3   8
HETATM    8  C   UNL     2     -11.266   9.945  70.086  1.00  0.00    -0.347 C  
BRANCH   8   9
HETATM    9  C   UNL     2     -11.608   9.795  71.556  1.00  0.00    -0.424 C  
HETATM   10  O   UNL     2     -13.862   9.245  71.348  1.00  0.00    -0.350 OA 
HETATM   11  O   UNL     2     -13.270  11.380  71.968  1.00  0.00    -0.503 OA 
HETATM   12  C   UNL     2     -13.075  10.179  71.646  1.00  0.00    -0.447 C  
ENDBRANCH   8   9
ENDBRANCH   3   8
BRANCH   5  13
HETATM   13  C   UNL     3     -10.364  12.458  66.256  1.00  0.00    -0.267 C  
BRANCH  13  14
HETATM   14  C   UNL     3     -11.861  12.375  66.450  1.00  0.00    -0.421 C  
HETATM   15  C   UNL     3     -12.409  13.776  66.257  1.00  0.00    -0.433 C  
HETATM   16  O   UNL     3     -12.962  13.966  65.146  1.00  0.00    -0.744 OA 
HETATM   17  O   UNL     3     -12.234  14.526  67.256  1.00  0.00    -0.347 OA 
ENDBRANCH  13  14
ENDBRANCH   5  13
TORSDOF 4
ENDMDL
MODEL       57
REMARK 921   NORMALIZED FREE ENERGY PREDICTED BY IDOCK:   -4.82 KCAL/MOL
REMARK 922        TOTAL FREE ENERGY PREDICTED BY IDOCK:   -6.31 KCAL/MOL
REMARK 923 INTER-LIGAND FREE ENERGY PREDICTED BY IDOCK:   -5.85 KCAL/MOL
REMARK 924 INTRA-LIGAND FREE ENERGY PREDICTED BY IDOCK:   -0.46 KCAL/MOL
REMARK 927      BINDING AFFINITY PREDICTED BY RF-SCORE:    0.00 PKD
ROOT
HETATM    1 CA   UNL     1     -10.230  11.255  69.902  1.00  0.00    -0.364 Ca 
HETATM    2  C   UNL     2     -12.260  14.886  70.039  1.00  0.00    -0.381 C  
HETATM    3  C   UNL     2     -11.638  14.117  68.911  1.00  0.00    -0.310 C  
HETATM    4  C   UNL     3      -9.982   9.023  66.850  1.00  0.00    -0.313 C  
HETATM    5  C   UNL     3      -9.451  10.420  66.902  1.00  0.00    -0.168 C  
HETATM    6  O   UNL     3      -9.283  10.940  68.022  1.00  0.00    -0.148 OA 
HETATM    7  O   UNL     2     -11.284  12.946  69.127  1.00  0.00    -0.256 OA 
ENDROOT
BRANCH   3   8
HETATM    8  C   UNL     2     -11.448  14.792  67.580  1.00  0.00    -0.369 C  
BRANCH   8   9
HETATM    9  C   UNL     2     -11.359  13.773  66.459  1.00  0.00    -0.336 C  
HETATM   10  O   UNL     2     -11.442  15.229  64.642  1.00  0.00    -0.406 OA 
HETATM   11  O   UNL     2     -13.322  14.039  65.227  1.00  0.00    -0.741 OA 
HETATM   12  C   UNL     2     -12.122  14.407  65.309  1.00  0.00    -0.380 C  
ENDBRANCH   8   9
ENDBRANCH   3   8
BRANCH   5  13
HETATM   13  C   UNL     3      -9.251  11.175  65.608  1.00  0.00    -0.238 C  
BRANCH  13  14
HETATM   14  C   UNL     3     -10.290  10.731  64.604  1.00  0.00    -0.394 C  
HETATM   15  C   UNL     3      -9.926  11.373  63.280  1.00  0.00    -0.401 C  
HETATM   16  O   UNL     3      -9.377  10.596  62.462  1.00  0.00    -0.278 OA 
HETATM   17  O   UNL     3     -10.249  12.590  63.206  1.00  0.00    -0.370 OA 
ENDBRANCH  13  14
ENDBRANCH   5  13
TORSDOF 4
ENDMDL
MODEL       58
REMARK 921   NORMALIZED FREE ENERGY PREDICTED BY IDOCK:   -4.79 KCAL/MOL
REMARK 922        TOTAL FREE ENERGY PREDICTED BY IDOCK:   -6.28 KCAL/MOL
REMARK 923 INTER-LIGAND FREE ENERGY PREDICTED BY IDOCK:   -5.82 KCAL/MOL
REMARK 924 INTRA-LIGAND FREE ENERGY PREDICTED BY IDOCK:   -0.46 KCAL/MOL
REMARK 927      BINDING AFFINITY PREDICTED BY RF-SCORE:    0.00 PKD
ROOT
HETATM    1 CA   UNL     1     -10.160   9.445  62.995  1.00  0.00    -0.502 Ca 
HETATM    2  C   UNL     2      -7.848   7.602  65.923  1.00  0.00    -0.103 C  
HETATM    3  C   UNL     2      -8.355   9.005  65.769  1.00  0.00    -0.128 C  
HETATM    4  C   UNL     3     -12.316  12.512  63.545  1.00  0.00    -0.623 C  
HETATM    5  C   UNL     3     -10.832  12.497  63.730  1.00  0.00    -0.446 C  
HETATM    6  O   UNL     3     -10.188  11.562  63.214  1.00  0.00    -0.366 OA 
HETATM    7  O   UNL     2      -9.212   9.225  64.897  1.00  0.00    -0.225 OA 
ENDROOT
BRANCH   3   8
HETATM    8  C   UNL     2      -7.797  10.087  66.653  1.00  0.00    -0.111 C  
BRANCH   8   9
HETATM    9  C   UNL     2      -8.536  10.147  67.977  1.00  0.00    -0.118 C  
HETATM   10  O   UNL     2     -10.590  10.929  67.209  1.00  0.00    -0.221 OA 
HETATM   11  O   UNL     2      -9.141  12.384  68.247  1.00  0.00    -0.195 OA 
HETATM   12  C   UNL     2      -9.538  11.275  67.803  1.00  0.00    -0.174 C  
ENDBRANCH   8   9
ENDBRANCH   3   8
BRANCH   5  13
HETATM   13  C   UNL     3     -10.195  13.538  64.620  1.00  0.00    -0.341 C  
BRANCH  13  14
HETATM   14  C   UNL     3     -11.278  14.363  65.278  1.00  0.00    -0.345 C  
HETATM   15  C   UNL     3     -11.120  15.783  64.772  1.00  0.00    -0.400 C  
HETATM   16  O   UNL     3     -11.954  16.114  63.894  1.00  0.00    -0.947 OA 
HETATM   17  O   UNL     3     -10.181  16.414  65.328  1.00  0.00    -0.575 OA 
ENDBRANCH  13  14
ENDBRANCH   5  13
TORSDOF 4
ENDMDL
MODEL       59
REMARK 921   NORMALIZED FREE ENERGY PREDICTED BY IDOCK:   -4.79 KCAL/MOL
REMARK 922        TOTAL FREE ENERGY PREDICTED BY IDOCK:   -6.27 KCAL/MOL
REMARK 923 INTER-LIGAND FREE ENERGY PREDICTED BY IDOCK:   -5.79 KCAL/MOL
REMARK 924 INTRA-LIGAND FREE ENERGY PREDICTED BY IDOCK:   -0.49 KCAL/MOL
REMARK 927      BINDING AFFINITY PREDICTED BY RF-SCORE:    0.00 PKD
ROOT
HETATM    1 CA   UNL     1     -11.554  17.053  71.072  1.00  0.00    -0.563 Ca 
HETATM    2  C   UNL     2     -10.413  17.795  67.139  1.00  0.00    -0.338 C  
HETATM    3  C   UNL     2     -10.897  16.557  67.836  1.00  0.00    -0.326 C  
HETATM    4  C   UNL     3     -13.913  14.295  72.163  1.00  0.00    -0.618 C  
HETATM    5  C   UNL     3     -12.607  14.047  71.478  1.00  0.00    -0.349 C  
HETATM    6  O   UNL     3     -11.771  14.972  71.462  1.00  0.00    -0.336 OA 
HETATM    7  O   UNL     2     -11.376  16.677  68.976  1.00  0.00    -0.238 OA 
ENDROOT
BRANCH   3   8
HETATM    8  C   UNL     2     -10.766  15.227  67.144  1.00  0.00    -0.316 C  
BRANCH   8   9
HETATM    9  C   UNL     2      -9.439  15.119  66.416  1.00  0.00    -0.325 C  
HETATM   10  O   UNL     2      -9.086  12.829  66.648  1.00  0.00    -0.226 OA 
HETATM   11  O   UNL     2      -7.933  14.294  67.996  1.00  0.00    -0.120 OA 
HETATM   12  C   UNL     2      -8.732  13.953  67.086  1.00  0.00    -0.221 C  
ENDBRANCH   8   9
ENDBRANCH   3   8
BRANCH   5  13
HETATM   13  C   UNL     3     -12.403  12.743  70.743  1.00  0.00    -0.375 C  
BRANCH  13  14
HETATM   14  C   UNL     3     -11.645  13.005  69.461  1.00  0.00    -0.342 C  
HETATM   15  C   UNL     3     -11.421  11.660  68.799  1.00  0.00    -0.285 C  
HETATM   16  O   UNL     3     -12.186  11.425  67.832  1.00  0.00    -0.592 OA 
HETATM   17  O   UNL     3     -10.484  10.994  69.318  1.00  0.00    -0.219 OA 
ENDBRANCH  13  14
ENDBRANCH   5  13
TORSDOF 4
ENDMDL
MODEL       60
REMARK 921   NORMALIZED FREE ENERGY PREDICTED BY IDOCK:   -4.78 KCAL/MOL
REMARK 922        TOTAL FREE ENERGY PREDICTED BY IDOCK:   -6.27 KCAL/MOL
REMARK 923 INTER-LIGAND FREE ENERGY PREDICTED BY IDOCK:   -5.62 KCAL/MOL
REMARK 924 INTRA-LIGAND FREE ENERGY PREDICTED BY IDOCK:   -0.64 KCAL/MOL
REMARK 927      BINDING AFFINITY PREDICTED BY RF-SCORE:    0.00 PKD
ROOT
HETATM    1 CA   UNL     1     -10.692  11.133  70.729  1.00  0.00    -0.420 Ca 
HETATM    2  C   UNL     2     -13.032  14.350  71.949  1.00  0.00    -0.426 C  
HETATM    3  C   UNL     2     -12.525  13.920  70.604  1.00  0.00    -0.366 C  
HETATM    4  C   UNL     3     -10.712   9.631  67.251  1.00  0.00    -0.284 C  
HETATM    5  C   UNL     3     -10.325  11.045  67.541  1.00  0.00    -0.198 C  
HETATM    6  O   UNL     3     -10.033  11.342  68.717  1.00  0.00    -0.205 OA 
HETATM    7  O   UNL     2     -12.023  12.789  70.502  1.00  0.00    -0.320 OA 
ENDROOT
BRANCH   3   8
HETATM    8  C   UNL     2     -12.622  14.874  69.445  1.00  0.00     0.030 C  
BRANCH   8   9
HETATM    9  C   UNL     2     -11.593  15.984  69.562  1.00  0.00    -0.304 C  
HETATM   10  O   UNL     2     -10.886  16.057  67.345  1.00  0.00    -0.319 OA 
HETATM   11  O   UNL     2      -9.568  15.019  68.920  1.00  0.00    -0.208 OA 
HETATM   12  C   UNL     2     -10.563  15.662  68.494  1.00  0.00    -0.256 C  
ENDBRANCH   8   9
ENDBRANCH   3   8
BRANCH   5  13
HETATM   13  C   UNL     3     -10.414  12.070  66.435  1.00  0.00    -0.267 C  
BRANCH  13  14
HETATM   14  C   UNL     3     -11.703  12.847  66.575  1.00  0.00    -0.453 C  
HETATM   15  C   UNL     3     -12.192  13.146  65.172  1.00  0.00    -0.450 C  
HETATM   16  O   UNL     3     -13.137  12.415  64.786  1.00  0.00    -0.806 OA 
HETATM   17  O   UNL     3     -11.578  14.098  64.618  1.00  0.00    -0.373 OA 
ENDBRANCH  13  14
ENDBRANCH   5  13
TORSDOF 4
ENDMDL
MODEL       61
REMARK 921   NORMALIZED FREE ENERGY PREDICTED BY IDOCK:   -4.76 KCAL/MOL
REMARK 922        TOTAL FREE ENERGY PREDICTED BY IDOCK:   -6.24 KCAL/MOL
REMARK 923 INTER-LIGAND FREE ENERGY PREDICTED BY IDOCK:   -5.84 KCAL/MOL
REMARK 924 INTRA-LIGAND FREE ENERGY PREDICTED BY IDOCK:   -0.40 KCAL/MOL
REMARK 927      BINDING AFFINITY PREDICTED BY RF-SCORE:    0.00 PKD
ROOT
HETATM    1 CA   UNL     1      -9.444   8.310  64.508  1.00  0.00    -0.397 Ca 
HETATM    2  C   UNL     2     -10.272   6.246  68.026  1.00  0.00    -0.205 C  
HETATM    3  C   UNL     2     -10.369   7.697  67.658  1.00  0.00    -0.237 C  
HETATM    4  C   UNL     3     -11.008  11.615  63.514  1.00  0.00    -0.485 C  
HETATM    5  C   UNL     3     -10.171  11.429  64.739  1.00  0.00    -0.286 C  
HETATM    6  O   UNL     3      -9.443  10.418  64.801  1.00  0.00    -0.223 OA 
HETATM    7  O   UNL     2     -10.262   8.005  66.459  1.00  0.00    -0.264 OA 
ENDROOT
BRANCH   3   8
HETATM    8  C   UNL     2     -10.568   8.718  68.745  1.00  0.00    -0.174 C  
BRANCH   8   9
HETATM    9  C   UNL     2     -10.682   8.053  70.104  1.00  0.00    -0.244 C  
HETATM   10  O   UNL     2     -11.285   9.914  71.367  1.00  0.00    -0.348 OA 
HETATM   11  O   UNL     2      -9.121   9.138  71.456  1.00  0.00    -0.309 OA 
HETATM   12  C   UNL     2     -10.326   9.148  71.094  1.00  0.00    -0.317 C  
ENDBRANCH   8   9
ENDBRANCH   3   8
BRANCH   5  13
HETATM   13  C   UNL     3     -10.326  12.400  65.885  1.00  0.00    -0.282 C  
BRANCH  13  14
HETATM   14  C   UNL     3     -11.753  12.362  66.383  1.00  0.00    -0.453 C  
HETATM   15  C   UNL     3     -12.312  13.763  66.223  1.00  0.00    -0.433 C  
HETATM   16  O   UNL     3     -13.078  13.905  65.239  1.00  0.00    -0.777 OA 
HETATM   17  O   UNL     3     -11.929  14.562  67.120  1.00  0.00    -0.406 OA 
ENDBRANCH  13  14
ENDBRANCH   5  13
TORSDOF 4
ENDMDL
MODEL       62
REMARK 921   NORMALIZED FREE ENERGY PREDICTED BY IDOCK:   -4.76 KCAL/MOL
REMARK 922        TOTAL FREE ENERGY PREDICTED BY IDOCK:   -6.24 KCAL/MOL
REMARK 923 INTER-LIGAND FREE ENERGY PREDICTED BY IDOCK:   -5.88 KCAL/MOL
REMARK 924 INTRA-LIGAND FREE ENERGY PREDICTED BY IDOCK:   -0.35 KCAL/MOL
REMARK 927      BINDING AFFINITY PREDICTED BY RF-SCORE:    0.00 PKD
ROOT
HETATM    1 CA   UNL     1     -13.645  12.411  71.892  1.00  0.00    -0.361 Ca 
HETATM    2  C   UNL     2     -11.687  14.499  68.871  1.00  0.00    -0.354 C  
HETATM    3  C   UNL     2     -11.656  13.058  69.289  1.00  0.00    -0.310 C  
HETATM    4  C   UNL     3     -14.369   8.692  71.840  1.00  0.00    -0.492 C  
HETATM    5  C   UNL     3     -12.990   9.269  71.809  1.00  0.00    -0.396 C  
HETATM    6  O   UNL     3     -12.846  10.457  72.160  1.00  0.00    -0.392 OA 
HETATM    7  O   UNL     2     -12.515  12.665  70.096  1.00  0.00    -0.163 OA 
ENDROOT
BRANCH   3   8
HETATM    8  C   UNL     2     -10.585  12.158  68.738  1.00  0.00    -0.230 C  
BRANCH   8   9
HETATM    9  C   UNL     2     -11.166  11.149  67.765  1.00  0.00    -0.359 C  
HETATM   10  O   UNL     2      -9.961  11.747  65.864  1.00  0.00    -0.222 OA 
HETATM   11  O   UNL     2     -12.151  12.420  66.073  1.00  0.00    -0.600 OA 
HETATM   12  C   UNL     2     -11.088  11.837  66.413  1.00  0.00    -0.307 C  
ENDBRANCH   8   9
ENDBRANCH   3   8
BRANCH   5  13
HETATM   13  C   UNL     3     -11.861   8.436  71.251  1.00  0.00    -0.327 C  
BRANCH  13  14
HETATM   14  C   UNL     3     -12.319   7.002  71.111  1.00  0.00    -0.423 C  
HETATM   15  C   UNL     3     -11.204   6.249  70.413  1.00  0.00    -0.373 C  
HETATM   16  O   UNL     3     -10.506   5.535  71.174  1.00  0.00    -0.223 OA 
HETATM   17  O   UNL     3     -11.165   6.449  69.168  1.00  0.00    -0.353 OA 
ENDBRANCH  13  14
ENDBRANCH   5  13
TORSDOF 4
ENDMDL
MODEL       63
REMARK 921   NORMALIZED FREE ENERGY PREDICTED BY IDOCK:   -4.74 KCAL/MOL
REMARK 922        TOTAL FREE ENERGY PREDICTED BY IDOCK:   -6.22 KCAL/MOL
REMARK 923 INTER-LIGAND FREE ENERGY PREDICTED BY IDOCK:   -5.73 KCAL/MOL
REMARK 924 INTRA-LIGAND FREE ENERGY PREDICTED BY IDOCK:   -0.49 KCAL/MOL
REMARK 927      BINDING AFFINITY PREDICTED BY RF-SCORE:    0.00 PKD
ROOT
HETATM    1 CA   UNL     1     -10.355   8.150  65.447  1.00  0.00    -0.368 Ca 
HETATM    2  C   UNL     2     -10.175  11.672  63.237  1.00  0.00    -0.445 C  
HETATM    3  C   UNL     2     -10.185  11.403  64.713  1.00  0.00    -0.286 C  
HETATM    4  C   UNL     3      -9.050   7.738  68.980  1.00  0.00    -0.144 C  
HETATM    5  C   UNL     3     -10.137   8.693  68.603  1.00  0.00    -0.190 C  
HETATM    6  O   UNL     3     -10.714   8.520  67.512  1.00  0.00    -0.248 OA 
HETATM    7  O   UNL     2     -10.025  10.232  65.095  1.00  0.00    -0.299 OA 
ENDROOT
BRANCH   3   8
HETATM    8  C   UNL     2     -10.407  12.547  65.665  1.00  0.00    -0.294 C  
BRANCH   8   9
HETATM    9  C   UNL     2     -11.763  12.442  66.337  1.00  0.00    -0.453 C  
HETATM   10  O   UNL     2     -12.925  13.996  65.050  1.00  0.00    -0.728 OA 
HETATM   11  O   UNL     2     -12.212  14.580  67.158  1.00  0.00    -0.355 OA 
HETATM   12  C   UNL     2     -12.378  13.820  66.168  1.00  0.00    -0.452 C  
ENDBRANCH   8   9
ENDBRANCH   3   8
BRANCH   5  13
HETATM   13  C   UNL     3     -10.409   9.880  69.497  1.00  0.00    -0.248 C  
BRANCH  13  14
HETATM   14  C   UNL     3     -11.871  10.254  69.400  1.00  0.00    -0.109 C  
HETATM   15  C   UNL     3     -12.302  10.709  70.780  1.00  0.00    -0.376 C  
HETATM   16  O   UNL     3     -12.400  11.954  70.907  1.00  0.00    -0.373 OA 
HETATM   17  O   UNL     3     -12.510   9.757  71.581  1.00  0.00    -0.358 OA 
ENDBRANCH  13  14
ENDBRANCH   5  13
TORSDOF 4
ENDMDL
MODEL       64
REMARK 921   NORMALIZED FREE ENERGY PREDICTED BY IDOCK:   -4.74 KCAL/MOL
REMARK 922        TOTAL FREE ENERGY PREDICTED BY IDOCK:   -6.22 KCAL/MOL
REMARK 923 INTER-LIGAND FREE ENERGY PREDICTED BY IDOCK:   -5.78 KCAL/MOL
REMARK 924 INTRA-LIGAND FREE ENERGY PREDICTED BY IDOCK:   -0.43 KCAL/MOL
REMARK 927      BINDING AFFINITY PREDICTED BY RF-SCORE:    0.00 PKD
ROOT
HETATM    1 CA   UNL     1     -12.697  14.901  71.025  1.00  0.00    -0.265 Ca 
HETATM    2  C   UNL     2     -12.731  10.782  71.621  1.00  0.00    -0.520 C  
HETATM    3  C   UNL     2     -12.275  11.635  70.474  1.00  0.00    -0.361 C  
HETATM    4  C   UNL     3     -10.339  16.736  68.696  1.00  0.00    -0.318 C  
HETATM    5  C   UNL     3     -11.323  15.707  68.239  1.00  0.00    -0.356 C  
HETATM    6  O   UNL     3     -12.260  15.412  69.007  1.00  0.00    -0.257 OA 
HETATM    7  O   UNL     2     -12.181  12.860  70.657  1.00  0.00    -0.372 OA 
ENDROOT
BRANCH   3   8
HETATM    8  C   UNL     2     -11.971  10.984  69.152  1.00  0.00    -0.394 C  
BRANCH   8   9
HETATM    9  C   UNL     2     -10.539  10.483  69.106  1.00  0.00    -0.258 C  
HETATM   10  O   UNL     2     -10.718   9.047  67.282  1.00  0.00    -0.269 OA 
HETATM   11  O   UNL     2     -10.682   8.174  69.411  1.00  0.00    -0.224 OA 
HETATM   12  C   UNL     2     -10.646   9.080  68.537  1.00  0.00    -0.155 C  
ENDBRANCH   8   9
ENDBRANCH   3   8
BRANCH   5  13
HETATM   13  C   UNL     3     -11.079  14.992  66.931  1.00  0.00    -0.331 C  
BRANCH  13  14
HETATM   14  C   UNL     3     -12.301  14.180  66.568  1.00  0.00    -0.405 C  
HETATM   15  C   UNL     3     -12.286  14.009  65.062  1.00  0.00    -0.433 C  
HETATM   16  O   UNL     3     -11.907  12.877  64.674  1.00  0.00    -0.336 OA 
HETATM   17  O   UNL     3     -12.674  15.033  64.436  1.00  0.00    -0.529 OA 
ENDBRANCH  13  14
ENDBRANCH   5  13
TORSDOF 4
ENDMDL
MODEL       65
REMARK 921   NORMALIZED FREE ENERGY PREDICTED BY IDOCK:   -4.72 KCAL/MOL
REMARK 922        TOTAL FREE ENERGY PREDICTED BY IDOCK:   -6.19 KCAL/MOL
REMARK 923 INTER-LIGAND FREE ENERGY PREDICTED BY IDOCK:   -5.58 KCAL/MOL
REMARK 924 INTRA-LIGAND FREE ENERGY PREDICTED BY IDOCK:   -0.61 KCAL/MOL
REMARK 927      BINDING AFFINITY PREDICTED BY RF-SCORE:    0.00 PKD
ROOT
HETATM    1 CA   UNL     1     -10.956  15.940  63.623  1.00  0.00    -0.650 Ca 
HETATM    2  C   UNL     2     -12.613  12.129  63.399  1.00  0.00    -0.584 C  
HETATM    3  C   UNL     2     -11.953  12.881  64.517  1.00  0.00    -0.395 C  
HETATM    4  C   UNL     3     -10.604  17.969  66.804  1.00  0.00    -0.281 C  
HETATM    5  C   UNL     3      -9.944  16.645  66.586  1.00  0.00    -0.283 C  
HETATM    6  O   UNL     3      -9.847  16.225  65.416  1.00  0.00    -0.496 OA 
HETATM    7  O   UNL     2     -11.744  14.096  64.361  1.00  0.00    -0.399 OA 
ENDROOT
BRANCH   3   8
HETATM    8  C   UNL     2     -11.552  12.140  65.763  1.00  0.00    -0.414 C  
BRANCH   8   9
HETATM    9  C   UNL     2     -10.047  11.959  65.831  1.00  0.00    -0.265 C  
HETATM   10  O   UNL     2      -9.830  10.180  64.344  1.00  0.00    -0.322 OA 
HETATM   11  O   UNL     2      -9.722   9.782  66.607  1.00  0.00    -0.178 OA 
HETATM   12  C   UNL     2      -9.830  10.480  65.565  1.00  0.00    -0.265 C  
ENDBRANCH   8   9
ENDBRANCH   3   8
BRANCH   5  13
HETATM   13  C   UNL     3      -9.529  15.828  67.788  1.00  0.00    -0.212 C  
BRANCH  13  14
HETATM   14  C   UNL     3     -10.706  15.007  68.264  1.00  0.00    -0.253 C  
HETATM   15  C   UNL     3     -11.163  15.613  69.577  1.00  0.00    -0.313 C  
HETATM   16  O   UNL     3     -12.198  16.318  69.489  1.00  0.00    -0.028 OA 
HETATM   17  O   UNL     3     -10.435  15.297  70.557  1.00  0.00    -0.242 OA 
ENDBRANCH  13  14
ENDBRANCH   5  13
TORSDOF 4
ENDMDL
MODEL       66
REMARK 921   NORMALIZED FREE ENERGY PREDICTED BY IDOCK:   -4.71 KCAL/MOL
REMARK 922        TOTAL FREE ENERGY PREDICTED BY IDOCK:   -6.17 KCAL/MOL
REMARK 923 INTER-LIGAND FREE ENERGY PREDICTED BY IDOCK:   -5.40 KCAL/MOL
REMARK 924 INTRA-LIGAND FREE ENERGY PREDICTED BY IDOCK:   -0.78 KCAL/MOL
REMARK 927      BINDING AFFINITY PREDICTED BY RF-SCORE:    0.00 PKD
ROOT
HETATM    1 CA   UNL     1     -13.249  12.477  70.917  1.00  0.00    -0.280 Ca 
HETATM    2  C   UNL     2     -11.174   8.912  71.472  1.00  0.00    -0.396 C  
HETATM    3  C   UNL     2     -10.920  10.105  70.598  1.00  0.00    -0.285 C  
HETATM    4  C   UNL     3     -11.704  15.721  69.713  1.00  0.00    -0.355 C  
HETATM    5  C   UNL     3     -11.724  14.462  68.907  1.00  0.00    -0.322 C  
HETATM    6  O   UNL     3     -12.528  13.568  69.238  1.00  0.00    -0.179 OA 
HETATM    7  O   UNL     2     -11.594  11.130  70.796  1.00  0.00    -0.239 OA 
ENDROOT
BRANCH   3   8
HETATM    8  C   UNL     2      -9.884  10.011  69.511  1.00  0.00    -0.249 C  
BRANCH   8   9
HETATM    9  C   UNL     2     -10.454   9.351  68.270  1.00  0.00    -0.260 C  
HETATM   10  O   UNL     2      -9.511  10.742  66.657  1.00  0.00    -0.170 OA 
HETATM   11  O   UNL     2     -11.726  11.002  67.221  1.00  0.00    -0.504 OA 
HETATM   12  C   UNL     2     -10.581  10.481  67.263  1.00  0.00    -0.264 C  
ENDBRANCH   8   9
ENDBRANCH   3   8
BRANCH   5  13
HETATM   13  C   UNL     3     -10.702  14.281  67.809  1.00  0.00    -0.253 C  
BRANCH  13  14
HETATM   14  C   UNL     3     -11.114  15.095  66.604  1.00  0.00    -0.308 C  
HETATM   15  C   UNL     3     -11.665  14.120  65.581  1.00  0.00    -0.357 C  
HETATM   16  O   UNL     3     -12.917  14.105  65.504  1.00  0.00    -0.657 OA 
HETATM   17  O   UNL     3     -10.770  13.488  64.957  1.00  0.00    -0.317 OA 
ENDBRANCH  13  14
ENDBRANCH   5  13
TORSDOF 4
ENDMDL
MODEL       67
REMARK 921   NORMALIZED FREE ENERGY PREDICTED BY IDOCK:   -4.69 KCAL/MOL
REMARK 922        TOTAL FREE ENERGY PREDICTED BY IDOCK:   -6.15 KCAL/MOL
REMARK 923 INTER-LIGAND FREE ENERGY PREDICTED BY IDOCK:   -5.77 KCAL/MOL
REMARK 924 INTRA-LIGAND FREE ENERGY PREDICTED BY IDOCK:   -0.38 KCAL/MOL
REMARK 927      BINDING AFFINITY PREDICTED BY RF-SCORE:    0.00 PKD
ROOT
HETATM    1 CA   UNL     1     -11.292  17.020  70.596  1.00  0.00    -0.470 Ca 
HETATM    2  C   UNL     2     -10.179  17.041  66.586  1.00  0.00    -0.310 C  
HETATM    3  C   UNL     2     -10.810  15.993  67.456  1.00  0.00    -0.292 C  
HETATM    4  C   UNL     3     -13.979  14.805  72.090  1.00  0.00    -0.590 C  
HETATM    5  C   UNL     3     -12.742  14.281  71.433  1.00  0.00    -0.352 C  
HETATM    6  O   UNL     3     -11.785  15.066  71.278  1.00  0.00    -0.309 OA 
HETATM    7  O   UNL     2     -11.233  16.337  68.572  1.00  0.00    -0.350 OA 
ENDROOT
BRANCH   3   8
HETATM    8  C   UNL     2     -10.886  14.576  66.958  1.00  0.00    -0.297 C  
BRANCH   8   9
HETATM    9  C   UNL     2     -10.784  13.587  68.105  1.00  0.00    -0.265 C  
HETATM   10  O   UNL     2      -9.779  11.820  66.970  1.00  0.00    -0.183 OA 
HETATM   11  O   UNL     2     -12.030  11.732  67.434  1.00  0.00    -0.617 OA 
HETATM   12  C   UNL     2     -10.872  12.224  67.441  1.00  0.00    -0.239 C  
ENDBRANCH   8   9
ENDBRANCH   3   8
BRANCH   5  13
HETATM   13  C   UNL     3     -12.744  12.872  70.887  1.00  0.00    -0.291 C  
BRANCH  13  14
HETATM   14  C   UNL     3     -13.118  11.909  71.991  1.00  0.00    -0.441 C  
HETATM   15  C   UNL     3     -12.863  10.512  71.461  1.00  0.00    -0.463 C  
HETATM   16  O   UNL     3     -11.811   9.979  71.893  1.00  0.00    -0.239 OA 
HETATM   17  O   UNL     3     -13.761  10.099  70.678  1.00  0.00    -0.061 OA 
ENDBRANCH  13  14
ENDBRANCH   5  13
TORSDOF 4
ENDMDL
MODEL       68
REMARK 921   NORMALIZED FREE ENERGY PREDICTED BY IDOCK:   -4.68 KCAL/MOL
REMARK 922        TOTAL FREE ENERGY PREDICTED BY IDOCK:   -6.14 KCAL/MOL
REMARK 923 INTER-LIGAND FREE ENERGY PREDICTED BY IDOCK:   -5.72 KCAL/MOL
REMARK 924 INTRA-LIGAND FREE ENERGY PREDICTED BY IDOCK:   -0.42 KCAL/MOL
REMARK 927      BINDING AFFINITY PREDICTED BY RF-SCORE:    0.00 PKD
ROOT
HETATM    1 CA   UNL     1     -10.627  16.064  70.259  1.00  0.00    -0.229 Ca 
HETATM    2  C   UNL     2     -10.404  19.672  68.196  1.00  0.00    -0.561 C  
HETATM    3  C   UNL     2     -10.305  18.243  67.749  1.00  0.00    -0.401 C  
HETATM    4  C   UNL     3     -11.653  12.752  68.731  1.00  0.00    -0.353 C  
HETATM    5  C   UNL     3     -10.458  13.534  68.290  1.00  0.00    -0.253 C  
HETATM    6  O   UNL     3     -10.022  14.417  69.055  1.00  0.00    -0.209 OA 
HETATM    7  O   UNL     2     -10.627  17.354  68.555  1.00  0.00    -0.364 OA 
ENDROOT
BRANCH   3   8
HETATM    8  C   UNL     2      -9.803  17.941  66.363  1.00  0.00    -0.339 C  
BRANCH   8   9
HETATM    9  C   UNL     2      -8.558  17.076  66.409  1.00  0.00    -0.311 C  
HETATM   10  O   UNL     2      -7.164  18.512  67.600  1.00  0.00    -0.212 OA 
HETATM   11  O   UNL     2      -6.905  18.314  65.323  1.00  0.00    -0.505 OA 
HETATM   12  C   UNL     2      -7.408  18.067  66.450  1.00  0.00    -0.257 C  
ENDBRANCH   8   9
ENDBRANCH   3   8
BRANCH   5  13
HETATM   13  C   UNL     3      -9.905  13.305  66.903  1.00  0.00    -0.247 C  
BRANCH  13  14
HETATM   14  C   UNL     3     -11.048  13.092  65.937  1.00  0.00    -0.298 C  
HETATM   15  C   UNL     3     -10.630  13.710  64.617  1.00  0.00    -0.430 C  
HETATM   16  O   UNL     3     -10.266  12.879  63.750  1.00  0.00    -0.378 OA 
HETATM   17  O   UNL     3     -10.732  14.967  64.595  1.00  0.00    -0.371 OA 
ENDBRANCH  13  14
ENDBRANCH   5  13
TORSDOF 4
ENDMDL
MODEL       69
REMARK 921   NORMALIZED FREE ENERGY PREDICTED BY IDOCK:   -4.67 KCAL/MOL
REMARK 922        TOTAL FREE ENERGY PREDICTED BY IDOCK:   -6.13 KCAL/MOL
REMARK 923 INTER-LIGAND FREE ENERGY PREDICTED BY IDOCK:   -5.63 KCAL/MOL
REMARK 924 INTRA-LIGAND FREE ENERGY PREDICTED BY IDOCK:   -0.50 KCAL/MOL
REMARK 927      BINDING AFFINITY PREDICTED BY RF-SCORE:    0.00 PKD
ROOT
HETATM    1 CA   UNL     1      -9.402  14.615  64.630  1.00  0.00    -0.384 Ca 
HETATM    2  C   UNL     2      -6.987  17.653  66.132  1.00  0.00    -0.338 C  
HETATM    3  C   UNL     2      -8.176  16.933  66.697  1.00  0.00    -0.257 C  
HETATM    4  C   UNL     3     -11.393  12.181  66.744  1.00  0.00    -0.398 C  
HETATM    5  C   UNL     3     -11.608  13.661  66.758  1.00  0.00    -0.364 C  
HETATM    6  O   UNL     3     -11.150  14.327  65.809  1.00  0.00    -0.300 OA 
HETATM    7  O   UNL     2      -8.572  15.911  66.113  1.00  0.00    -0.330 OA 
ENDROOT
BRANCH   3   8
HETATM    8  C   UNL     2      -8.851  17.482  67.924  1.00  0.00    -0.247 C  
BRANCH   8   9
HETATM    9  C   UNL     2     -10.237  18.007  67.597  1.00  0.00    -0.376 C  
HETATM   10  O   UNL     2      -9.652  20.135  66.855  1.00  0.00    -0.379 OA 
HETATM   11  O   UNL     2     -10.530  19.874  68.965  1.00  0.00    -0.294 OA 
HETATM   12  C   UNL     2     -10.141  19.505  67.826  1.00  0.00    -0.415 C  
ENDBRANCH   8   9
ENDBRANCH   3   8
BRANCH   5  13
HETATM   13  C   UNL     3     -12.261  14.294  67.964  1.00  0.00    -0.168 C  
BRANCH  13  14
HETATM   14  C   UNL     3     -11.417  14.024  69.189  1.00  0.00    -0.340 C  
HETATM   15  C   UNL     3     -12.323  14.191  70.393  1.00  0.00    -0.359 C  
HETATM   16  O   UNL     3     -12.706  13.111  70.907  1.00  0.00    -0.307 OA 
HETATM   17  O   UNL     3     -12.536  15.396  70.699  1.00  0.00    -0.370 OA 
ENDBRANCH  13  14
ENDBRANCH   5  13
TORSDOF 4
ENDMDL
MODEL       70
REMARK 921   NORMALIZED FREE ENERGY PREDICTED BY IDOCK:   -4.64 KCAL/MOL
REMARK 922        TOTAL FREE ENERGY PREDICTED BY IDOCK:   -6.10 KCAL/MOL
REMARK 923 INTER-LIGAND FREE ENERGY PREDICTED BY IDOCK:   -5.62 KCAL/MOL
REMARK 924 INTRA-LIGAND FREE ENERGY PREDICTED BY IDOCK:   -0.48 KCAL/MOL
REMARK 927      BINDING AFFINITY PREDICTED BY RF-SCORE:    0.00 PKD
ROOT
HETATM    1 CA   UNL     1     -12.723  14.292  68.444  1.00  0.00    -0.507 Ca 
HETATM    2  C   UNL     2     -13.651  13.469  72.417  1.00  0.00    -0.709 C  
HETATM    3  C   UNL     2     -12.988  12.657  71.344  1.00  0.00    -0.258 C  
HETATM    4  C   UNL     3      -9.956  12.616  66.471  1.00  0.00    -0.256 C  
HETATM    5  C   UNL     3     -11.122  11.882  67.054  1.00  0.00    -0.302 C  
HETATM    6  O   UNL     3     -12.124  12.546  67.386  1.00  0.00    -0.466 OA 
HETATM    7  O   UNL     2     -12.642  13.237  70.301  1.00  0.00    -0.211 OA 
ENDROOT
BRANCH   3   8
HETATM    8  C   UNL     2     -12.788  11.181  71.559  1.00  0.00    -0.542 C  
BRANCH   8   9
HETATM    9  C   UNL     2     -11.624  10.662  70.735  1.00  0.00    -0.388 C  
HETATM   10  O   UNL     2     -12.241   8.420  70.614  1.00  0.00    -0.089 OA 
HETATM   11  O   UNL     2     -10.584   9.061  72.076  1.00  0.00    -0.345 OA 
HETATM   12  C   UNL     2     -11.456   9.221  71.182  1.00  0.00    -0.333 C  
ENDBRANCH   8   9
ENDBRANCH   3   8
BRANCH   5  13
HETATM   13  C   UNL     3     -10.994  10.400  67.320  1.00  0.00    -0.306 C  
BRANCH  13  14
HETATM   14  C   UNL     3      -9.558   9.977  67.115  1.00  0.00    -0.202 C  
HETATM   15  C   UNL     3      -9.564   8.902  66.046  1.00  0.00    -0.250 C  
HETATM   16  O   UNL     3      -9.194   9.296  64.913  1.00  0.00    -0.225 OA 
HETATM   17  O   UNL     3      -9.926   7.772  66.473  1.00  0.00    -0.230 OA 
ENDBRANCH  13  14
ENDBRANCH   5  13
TORSDOF 4
ENDMDL
MODEL       71
REMARK 921   NORMALIZED FREE ENERGY PREDICTED BY IDOCK:   -4.63 KCAL/MOL
REMARK 922        TOTAL FREE ENERGY PREDICTED BY IDOCK:   -6.08 KCAL/MOL
REMARK 923 INTER-LIGAND FREE ENERGY PREDICTED BY IDOCK:   -5.70 KCAL/MOL
REMARK 924 INTRA-LIGAND FREE ENERGY PREDICTED BY IDOCK:   -0.38 KCAL/MOL
REMARK 927      BINDING AFFINITY PREDICTED BY RF-SCORE:    0.00 PKD
ROOT
HETATM    1 CA   UNL     1     -10.630   6.584  65.710  1.00  0.00    -0.428 Ca 
HETATM    2  C   UNL     2      -9.668  10.460  64.538  1.00  0.00    -0.393 C  
HETATM    3  C   UNL     2      -9.988   9.856  65.874  1.00  0.00    -0.277 C  
HETATM    4  C   UNL     3     -10.075   5.166  69.179  1.00  0.00    -0.274 C  
HETATM    5  C   UNL     3     -10.966   6.332  68.892  1.00  0.00    -0.368 C  
HETATM    6  O   UNL     3     -11.338   6.508  67.715  1.00  0.00    -0.258 OA 
HETATM    7  O   UNL     2     -10.026   8.618  65.963  1.00  0.00    -0.222 OA 
ENDROOT
BRANCH   3   8
HETATM    8  C   UNL     2     -10.270  10.764  67.040  1.00  0.00    -0.261 C  
BRANCH   8   9
HETATM    9  C   UNL     2     -10.283  12.219  66.609  1.00  0.00    -0.235 C  
HETATM   10  O   UNL     2     -11.805  13.043  68.166  1.00  0.00    -0.334 OA 
HETATM   11  O   UNL     2     -12.492  12.664  66.004  1.00  0.00    -0.555 OA 
HETATM   12  C   UNL     2     -11.677  12.707  66.962  1.00  0.00    -0.369 C  
ENDBRANCH   8   9
ENDBRANCH   3   8
BRANCH   5  13
HETATM   13  C   UNL     3     -11.281   7.303  70.006  1.00  0.00    -0.234 C  
BRANCH  13  14
HETATM   14  C   UNL     3     -12.112   6.605  71.058  1.00  0.00    -0.384 C  
HETATM   15  C   UNL     3     -13.004   7.658  71.685  1.00  0.00    -0.350 C  
HETATM   16  O   UNL     3     -14.196   7.628  71.291  1.00  0.00    -0.381 OA 
HETATM   17  O   UNL     3     -12.407   8.391  72.519  1.00  0.00    -0.376 OA 
ENDBRANCH  13  14
ENDBRANCH   5  13
TORSDOF 4
ENDMDL
MODEL       72
REMARK 921   NORMALIZED FREE ENERGY PREDICTED BY IDOCK:   -4.63 KCAL/MOL
REMARK 922        TOTAL FREE ENERGY PREDICTED BY IDOCK:   -6.08 KCAL/MOL
REMARK 923 INTER-LIGAND FREE ENERGY PREDICTED BY IDOCK:   -5.59 KCAL/MOL
REMARK 924 INTRA-LIGAND FREE ENERGY PREDICTED BY IDOCK:   -0.49 KCAL/MOL
REMARK 927      BINDING AFFINITY PREDICTED BY RF-SCORE:    0.00 PKD
ROOT
HETATM    1 CA   UNL     1     -13.407  14.191  66.646  1.00  0.00    -0.491 Ca 
HETATM    2  C   UNL     2     -11.010  16.657  68.990  1.00  0.00    -0.279 C  
HETATM    3  C   UNL     2     -10.687  15.592  67.983  1.00  0.00    -0.287 C  
HETATM    4  C   UNL     3     -12.352  12.629  63.359  1.00  0.00    -0.553 C  
HETATM    5  C   UNL     3     -11.676  12.353  64.664  1.00  0.00    -0.365 C  
HETATM    6  O   UNL     3     -12.287  12.642  65.712  1.00  0.00    -0.594 OA 
HETATM    7  O   UNL     2     -11.609  15.163  67.269  1.00  0.00    -0.323 OA 
ENDROOT
BRANCH   3   8
HETATM    8  C   UNL     2      -9.278  15.074  67.890  1.00  0.00    -0.182 C  
BRANCH   8   9
HETATM    9  C   UNL     2      -8.744  15.195  66.475  1.00  0.00    -0.280 C  
HETATM   10  O   UNL     2      -7.075  16.775  66.852  1.00  0.00    -0.178 OA 
HETATM   11  O   UNL     2      -9.057  17.430  65.885  1.00  0.00    -0.515 OA 
HETATM   12  C   UNL     2      -8.231  16.621  66.382  1.00  0.00    -0.318 C  
ENDBRANCH   8   9
ENDBRANCH   3   8
BRANCH   5  13
HETATM   13  C   UNL     3     -10.252  11.849  64.658  1.00  0.00    -0.316 C  
BRANCH  13  14
HETATM   14  C   UNL     3     -10.246  10.363  64.931  1.00  0.00    -0.330 C  
HETATM   15  C   UNL     3      -9.717  10.176  66.340  1.00  0.00    -0.205 C  
HETATM   16  O   UNL     3     -10.601   9.929  67.196  1.00  0.00    -0.245 OA 
HETATM   17  O   UNL     3      -8.463  10.284  66.425  1.00  0.00    -0.126 OA 
ENDBRANCH  13  14
ENDBRANCH   5  13
TORSDOF 4
ENDMDL
MODEL       73
REMARK 921   NORMALIZED FREE ENERGY PREDICTED BY IDOCK:   -4.62 KCAL/MOL
REMARK 922        TOTAL FREE ENERGY PREDICTED BY IDOCK:   -6.07 KCAL/MOL
REMARK 923 INTER-LIGAND FREE ENERGY PREDICTED BY IDOCK:   -5.47 KCAL/MOL
REMARK 924 INTRA-LIGAND FREE ENERGY PREDICTED BY IDOCK:   -0.61 KCAL/MOL
REMARK 927      BINDING AFFINITY PREDICTED BY RF-SCORE:    0.00 PKD
ROOT
HETATM    1 CA   UNL     1      -8.006  16.645  65.278  1.00  0.00    -0.106 Ca 
HETATM    2  C   UNL     2     -10.543  13.450  64.459  1.00  0.00    -0.441 C  
HETATM    3  C   UNL     2     -10.601  14.554  65.474  1.00  0.00    -0.351 C  
HETATM    4  C   UNL     3      -9.065  19.888  66.928  1.00  0.00    -0.452 C  
HETATM    5  C   UNL     3      -9.168  18.550  67.586  1.00  0.00    -0.281 C  
HETATM    6  O   UNL     3      -8.502  17.610  67.109  1.00  0.00    -0.217 OA 
HETATM    7  O   UNL     2      -9.811  15.505  65.350  1.00  0.00    -0.322 OA 
ENDROOT
BRANCH   3   8
HETATM    8  C   UNL     2     -11.588  14.458  66.605  1.00  0.00    -0.396 C  
BRANCH   8   9
HETATM    9  C   UNL     2     -11.890  13.011  66.946  1.00  0.00    -0.442 C  
HETATM   10  O   UNL     2     -12.146  13.229  69.250  1.00  0.00    -0.301 OA 
HETATM   11  O   UNL     2     -10.193  12.354  68.406  1.00  0.00    -0.220 OA 
HETATM   12  C   UNL     2     -11.356  12.833  68.356  1.00  0.00    -0.295 C  
ENDBRANCH   8   9
ENDBRANCH   3   8
BRANCH   5  13
HETATM   13  C   UNL     3     -10.152  18.366  68.718  1.00  0.00    -0.393 C  
BRANCH  13  14
HETATM   14  C   UNL     3     -10.833  17.024  68.575  1.00  0.00    -0.310 C  
HETATM   15  C   UNL     3     -10.422  16.192  69.774  1.00  0.00    -0.286 C  
HETATM   16  O   UNL     3     -11.302  16.099  70.665  1.00  0.00    -0.375 OA 
HETATM   17  O   UNL     3      -9.261  15.710  69.678  1.00  0.00    -0.277 OA 
ENDBRANCH  13  14
ENDBRANCH   5  13
TORSDOF 4
ENDMDL
MODEL       74
REMARK 921   NORMALIZED FREE ENERGY PREDICTED BY IDOCK:   -4.62 KCAL/MOL
REMARK 922        TOTAL FREE ENERGY PREDICTED BY IDOCK:   -6.07 KCAL/MOL
REMARK 923 INTER-LIGAND FREE ENERGY PREDICTED BY IDOCK:   -5.56 KCAL/MOL
REMARK 924 INTRA-LIGAND FREE ENERGY PREDICTED BY IDOCK:   -0.51 KCAL/MOL
REMARK 927      BINDING AFFINITY PREDICTED BY RF-SCORE:    0.00 PKD
ROOT
HETATM    1 CA   UNL     1      -9.877   8.474  67.301  1.00  0.00    -0.140 Ca 
HETATM    2  C   UNL     2     -11.162  12.007  65.516  1.00  0.00    -0.372 C  
HETATM    3  C   UNL     2     -11.135  11.546  66.944  1.00  0.00    -0.307 C  
HETATM    4  C   UNL     3      -8.731   8.153  70.898  1.00  0.00    -0.152 C  
HETATM    5  C   UNL     3     -10.106   8.584  70.501  1.00  0.00    -0.192 C  
HETATM    6  O   UNL     3     -10.482   8.341  69.337  1.00  0.00    -0.220 OA 
HETATM    7  O   UNL     2     -10.491  10.519  67.215  1.00  0.00    -0.220 OA 
ENDROOT
BRANCH   3   8
HETATM    8  C   UNL     2     -11.899  12.324  67.980  1.00  0.00    -0.368 C  
BRANCH   8   9
HETATM    9  C   UNL     2     -10.979  13.245  68.760  1.00  0.00    -0.294 C  
HETATM   10  O   UNL     2     -12.568  14.287  70.107  1.00  0.00    -0.350 OA 
HETATM   11  O   UNL     2     -11.719  15.406  68.285  1.00  0.00    -0.360 OA 
HETATM   12  C   UNL     2     -11.841  14.450  69.094  1.00  0.00    -0.323 C  
ENDBRANCH   8   9
ENDBRANCH   3   8
BRANCH   5  13
HETATM   13  C   UNL     3     -10.931   9.388  71.478  1.00  0.00    -0.429 C  
BRANCH  13  14
HETATM   14  C   UNL     3     -12.156   9.927  70.774  1.00  0.00    -0.396 C  
HETATM   15  C   UNL     3     -13.155  10.300  71.852  1.00  0.00    -0.463 C  
HETATM   16  O   UNL     3     -13.232  11.532  72.081  1.00  0.00    -0.505 OA 
HETATM   17  O   UNL     3     -13.764   9.308  72.338  1.00  0.00    -0.465 OA 
ENDBRANCH  13  14
ENDBRANCH   5  13
TORSDOF 4
ENDMDL
MODEL       75
REMARK 921   NORMALIZED FREE ENERGY PREDICTED BY IDOCK:   -4.60 KCAL/MOL
REMARK 922        TOTAL FREE ENERGY PREDICTED BY IDOCK:   -6.05 KCAL/MOL
REMARK 923 INTER-LIGAND FREE ENERGY PREDICTED BY IDOCK:   -5.67 KCAL/MOL
REMARK 924 INTRA-LIGAND FREE ENERGY PREDICTED BY IDOCK:   -0.37 KCAL/MOL
REMARK 927      BINDING AFFINITY PREDICTED BY RF-SCORE:    0.00 PKD
ROOT
HETATM    1 CA   UNL     1     -11.414  12.017  70.998  1.00  0.00    -0.429 Ca 
HETATM    2  C   UNL     2     -12.026  14.341  67.600  1.00  0.00    -0.400 C  
HETATM    3  C   UNL     2     -11.723  12.884  67.788  1.00  0.00    -0.362 C  
HETATM    4  C   UNL     3     -11.991   8.277  71.200  1.00  0.00    -0.290 C  
HETATM    5  C   UNL     3     -10.999   8.915  70.280  1.00  0.00    -0.241 C  
HETATM    6  O   UNL     3     -10.651  10.088  70.519  1.00  0.00    -0.292 OA 
HETATM    7  O   UNL     2     -11.805  12.412  68.934  1.00  0.00    -0.305 OA 
ENDROOT
BRANCH   3   8
HETATM    8  C   UNL     2     -11.315  12.060  66.597  1.00  0.00    -0.399 C  
BRANCH   8   9
HETATM    9  C   UNL     2     -11.205  12.919  65.351  1.00  0.00    -0.314 C  
HETATM   10  O   UNL     2     -13.340  12.578  64.487  1.00  0.00    -0.780 OA 
HETATM   11  O   UNL     2     -11.554  11.462  63.563  1.00  0.00    -0.330 OA 
HETATM   12  C   UNL     2     -12.133  12.256  64.349  1.00  0.00    -0.399 C  
ENDBRANCH   8   9
ENDBRANCH   3   8
BRANCH   5  13
HETATM   13  C   UNL     3     -10.553   8.162  69.049  1.00  0.00    -0.167 C  
BRANCH  13  14
HETATM   14  C   UNL     3     -10.824   6.687  69.240  1.00  0.00    -0.335 C  
HETATM   15  C   UNL     3     -10.413   5.994  67.956  1.00  0.00    -0.233 C  
HETATM   16  O   UNL     3      -9.312   5.395  68.021  1.00  0.00    -0.109 OA 
HETATM   17  O   UNL     3     -11.256   6.116  67.026  1.00  0.00    -0.290 OA 
ENDBRANCH  13  14
ENDBRANCH   5  13
TORSDOF 4
ENDMDL
MODEL       76
REMARK 921   NORMALIZED FREE ENERGY PREDICTED BY IDOCK:   -4.60 KCAL/MOL
REMARK 922        TOTAL FREE ENERGY PREDICTED BY IDOCK:   -6.04 KCAL/MOL
REMARK 923 INTER-LIGAND FREE ENERGY PREDICTED BY IDOCK:   -5.65 KCAL/MOL
REMARK 924 INTRA-LIGAND FREE ENERGY PREDICTED BY IDOCK:   -0.39 KCAL/MOL
REMARK 927      BINDING AFFINITY PREDICTED BY RF-SCORE:    0.00 PKD
ROOT
HETATM    1 CA   UNL     1     -12.534  16.039  68.484  1.00  0.00    -0.470 Ca 
HETATM    2  C   UNL     2      -9.999  19.337  68.600  1.00  0.00    -0.506 C  
HETATM    3  C   UNL     2     -10.020  18.107  67.741  1.00  0.00    -0.327 C  
HETATM    4  C   UNL     3     -13.109  13.851  65.443  1.00  0.00    -0.236 C  
HETATM    5  C   UNL     3     -11.779  14.018  66.106  1.00  0.00    -0.384 C  
HETATM    6  O   UNL     3     -11.757  14.476  67.265  1.00  0.00    -0.380 OA 
HETATM    7  O   UNL     2     -11.029  17.383  67.781  1.00  0.00    -0.317 OA 
ENDROOT
BRANCH   3   8
HETATM    8  C   UNL     2      -8.822  17.787  66.889  1.00  0.00    -0.260 C  
BRANCH   8   9
HETATM    9  C   UNL     2      -8.452  16.319  66.995  1.00  0.00    -0.232 C  
HETATM   10  O   UNL     2      -7.168  16.409  68.935  1.00  0.00    -0.176 OA 
HETATM   11  O   UNL     2      -6.122  16.260  66.891  1.00  0.00    -0.313 OA 
HETATM   12  C   UNL     2      -7.099  16.317  67.683  1.00  0.00    -0.141 C  
ENDBRANCH   8   9
ENDBRANCH   3   8
BRANCH   5  13
HETATM   13  C   UNL     3     -10.526  13.737  65.311  1.00  0.00    -0.376 C  
BRANCH  13  14
HETATM   14  C   UNL     3     -10.336  12.242  65.189  1.00  0.00    -0.316 C  
HETATM   15  C   UNL     3     -10.502  11.896  63.722  1.00  0.00    -0.423 C  
HETATM   16  O   UNL     3      -9.424  11.682  63.116  1.00  0.00    -0.345 OA 
HETATM   17  O   UNL     3     -11.706  11.861  63.347  1.00  0.00    -0.447 OA 
ENDBRANCH  13  14
ENDBRANCH   5  13
TORSDOF 4
ENDMDL
MODEL       77
REMARK 921   NORMALIZED FREE ENERGY PREDICTED BY IDOCK:   -4.60 KCAL/MOL
REMARK 922        TOTAL FREE ENERGY PREDICTED BY IDOCK:   -6.04 KCAL/MOL
REMARK 923 INTER-LIGAND FREE ENERGY PREDICTED BY IDOCK:   -5.79 KCAL/MOL
REMARK 924 INTRA-LIGAND FREE ENERGY PREDICTED BY IDOCK:   -0.25 KCAL/MOL
REMARK 927      BINDING AFFINITY PREDICTED BY RF-SCORE:    0.00 PKD
ROOT
HETATM    1 CA   UNL     1      -8.027   9.156  67.520  1.00  0.00    -0.091 Ca 
HETATM    2  C   UNL     2      -9.873   8.943  71.243  1.00  0.00    -0.361 C  
HETATM    3  C   UNL     2     -10.167   9.750  70.013  1.00  0.00    -0.263 C  
HETATM    4  C   UNL     3      -9.733  10.226  64.310  1.00  0.00    -0.373 C  
HETATM    5  C   UNL     3      -9.587  11.110  65.508  1.00  0.00    -0.226 C  
HETATM    6  O   UNL     3      -8.740  10.796  66.367  1.00  0.00    -0.148 OA 
HETATM    7  O   UNL     2      -9.576   9.450  68.962  1.00  0.00    -0.158 OA 
ENDROOT
BRANCH   3   8
HETATM    8  C   UNL     2     -11.141  10.893  70.101  1.00  0.00    -0.238 C  
BRANCH   8   9
HETATM    9  C   UNL     2     -12.572  10.391  70.134  1.00  0.00    -0.197 C  
HETATM   10  O   UNL     2     -13.394  11.754  71.834  1.00  0.00    -0.448 OA 
HETATM   11  O   UNL     2     -12.885   9.558  72.291  1.00  0.00    -0.380 OA 
HETATM   12  C   UNL     2     -13.010  10.586  71.575  1.00  0.00    -0.460 C  
ENDBRANCH   8   9
ENDBRANCH   3   8
BRANCH   5  13
HETATM   13  C   UNL     3     -10.540  12.269  65.680  1.00  0.00    -0.295 C  
BRANCH  13  14
HETATM   14  C   UNL     3     -10.908  12.822  64.322  1.00  0.00    -0.419 C  
HETATM   15  C   UNL     3     -12.384  13.163  64.370  1.00  0.00    -0.360 C  
HETATM   16  O   UNL     3     -12.628  14.388  64.494  1.00  0.00    -0.651 OA 
HETATM   17  O   UNL     3     -13.136  12.157  64.260  1.00  0.00    -0.723 OA 
ENDBRANCH  13  14
ENDBRANCH   5  13
TORSDOF 4
ENDMDL
MODEL       78
REMARK 921   NORMALIZED FREE ENERGY PREDICTED BY IDOCK:   -4.59 KCAL/MOL
REMARK 922        TOTAL FREE ENERGY PREDICTED BY IDOCK:   -6.03 KCAL/MOL
REMARK 923 INTER-LIGAND FREE ENERGY PREDICTED BY IDOCK:   -5.53 KCAL/MOL
REMARK 924 INTRA-LIGAND FREE ENERGY PREDICTED BY IDOCK:   -0.50 KCAL/MOL
REMARK 927      BINDING AFFINITY PREDICTED BY RF-SCORE:    0.00 PKD
ROOT
HETATM    1 CA   UNL     1     -12.587  12.671  69.282  1.00  0.00    -0.233 Ca 
HETATM    2  C   UNL     2     -11.144  11.935  65.449  1.00  0.00    -0.360 C  
HETATM    3  C   UNL     2     -11.076  11.148  66.724  1.00  0.00    -0.214 C  
HETATM    4  C   UNL     3     -13.402  10.000  71.843  1.00  0.00    -0.516 C  
HETATM    5  C   UNL     3     -12.037  10.213  71.272  1.00  0.00    -0.394 C  
HETATM    6  O   UNL     3     -11.802  11.300  70.708  1.00  0.00    -0.322 OA 
HETATM    7  O   UNL     2     -11.787  11.512  67.675  1.00  0.00    -0.595 OA 
ENDROOT
BRANCH   3   8
HETATM    8  C   UNL     2     -10.142   9.971  66.810  1.00  0.00    -0.286 C  
BRANCH   8   9
HETATM    9  C   UNL     2     -10.546   9.034  67.933  1.00  0.00    -0.256 C  
HETATM   10  O   UNL     2      -8.900   7.411  67.659  1.00  0.00    -0.128 OA 
HETATM   11  O   UNL     2     -11.031   7.001  66.896  1.00  0.00    -0.371 OA 
HETATM   12  C   UNL     2     -10.115   7.659  67.454  1.00  0.00    -0.222 C  
ENDBRANCH   8   9
ENDBRANCH   3   8
BRANCH   5  13
HETATM   13  C   UNL     3     -11.046   9.073  71.302  1.00  0.00    -0.382 C  
BRANCH  13  14
HETATM   14  C   UNL     3     -11.665   7.891  72.011  1.00  0.00    -0.360 C  
HETATM   15  C   UNL     3     -11.205   6.647  71.276  1.00  0.00    -0.282 C  
HETATM   16  O   UNL     3     -10.291   6.011  71.856  1.00  0.00    -0.199 OA 
HETATM   17  O   UNL     3     -11.830   6.439  70.200  1.00  0.00    -0.409 OA 
ENDBRANCH  13  14
ENDBRANCH   5  13
TORSDOF 4
ENDMDL
MODEL       79
REMARK 921   NORMALIZED FREE ENERGY PREDICTED BY IDOCK:   -4.59 KCAL/MOL
REMARK 922        TOTAL FREE ENERGY PREDICTED BY IDOCK:   -6.03 KCAL/MOL
REMARK 923 INTER-LIGAND FREE ENERGY PREDICTED BY IDOCK:   -5.46 KCAL/MOL
REMARK 924 INTRA-LIGAND FREE ENERGY PREDICTED BY IDOCK:   -0.57 KCAL/MOL
REMARK 927      BINDING AFFINITY PREDICTED BY RF-SCORE:    0.00 PKD
ROOT
HETATM    1 CA   UNL     1     -10.168  13.735  69.457  1.00  0.00    -0.351 Ca 
HETATM    2  C   UNL     2     -10.312   9.618  70.042  1.00  0.00    -0.298 C  
HETATM    3  C   UNL     2     -10.283  10.463  68.803  1.00  0.00    -0.187 C  
HETATM    4  C   UNL     3      -8.796  15.440  66.364  1.00  0.00    -0.340 C  
HETATM    5  C   UNL     3      -9.965  14.508  66.348  1.00  0.00    -0.292 C  
HETATM    6  O   UNL     3     -10.536  14.268  67.430  1.00  0.00    -0.261 OA 
HETATM    7  O   UNL     2     -10.020  11.671  68.925  1.00  0.00    -0.168 OA 
ENDROOT
BRANCH   3   8
HETATM    8  C   UNL     2     -10.593   9.828  67.474  1.00  0.00    -0.335 C  
BRANCH   8   9
HETATM    9  C   UNL     2      -9.389   9.080  66.932  1.00  0.00    -0.203 C  
HETATM   10  O   UNL     2      -8.142  10.899  66.184  1.00  0.00    -0.161 OA 
HETATM   11  O   UNL     2      -9.299   9.617  64.664  1.00  0.00    -0.260 OA 
HETATM   12  C   UNL     2      -8.877   9.954  65.801  1.00  0.00    -0.147 C  
ENDBRANCH   8   9
ENDBRANCH   3   8
BRANCH   5  13
HETATM   13  C   UNL     3     -10.329  13.813  65.057  1.00  0.00    -0.402 C  
BRANCH  13  14
HETATM   14  C   UNL     3     -11.148  12.581  65.365  1.00  0.00    -0.337 C  
HETATM   15  C   UNL     3     -12.398  12.657  64.511  1.00  0.00    -0.464 C  
HETATM   16  O   UNL     3     -12.382  11.909  63.503  1.00  0.00    -0.540 OA 
HETATM   17  O   UNL     3     -13.267  13.452  64.961  1.00  0.00    -0.715 OA 
ENDBRANCH  13  14
ENDBRANCH   5  13
TORSDOF 4
ENDMDL
MODEL       80
REMARK 921   NORMALIZED FREE ENERGY PREDICTED BY IDOCK:   -4.59 KCAL/MOL
REMARK 922        TOTAL FREE ENERGY PREDICTED BY IDOCK:   -6.02 KCAL/MOL
REMARK 923 INTER-LIGAND FREE ENERGY PREDICTED BY IDOCK:   -5.55 KCAL/MOL
REMARK 924 INTRA-LIGAND FREE ENERGY PREDICTED BY IDOCK:   -0.48 KCAL/MOL
REMARK 927      BINDING AFFINITY PREDICTED BY RF-SCORE:    0.00 PKD
ROOT
HETATM    1 CA   UNL     1      -9.122  12.378  64.109  1.00  0.00    -0.437 Ca 
HETATM    2  C   UNL     2      -8.904   8.450  65.465  1.00  0.00    -0.172 C  
HETATM    3  C   UNL     2      -9.743   9.620  65.886  1.00  0.00    -0.275 C  
HETATM    4  C   UNL     3     -12.157  14.622  64.442  1.00  0.00    -0.481 C  
HETATM    5  C   UNL     3     -11.418  14.048  65.608  1.00  0.00    -0.319 C  
HETATM    6  O   UNL     3     -10.267  13.611  65.413  1.00  0.00    -0.310 OA 
HETATM    7  O   UNL     2      -9.754  10.625  65.156  1.00  0.00    -0.228 OA 
ENDROOT
BRANCH   3   8
HETATM    8  C   UNL     2     -10.517   9.543  67.174  1.00  0.00    -0.322 C  
BRANCH   8   9
HETATM    9  C   UNL     2     -10.445  10.854  67.934  1.00  0.00    -0.227 C  
HETATM   10  O   UNL     2     -10.818  10.046  70.086  1.00  0.00    -0.267 OA 
HETATM   11  O   UNL     2     -12.529  11.090  68.957  1.00  0.00    -0.449 OA 
HETATM   12  C   UNL     2     -11.361  10.652  69.128  1.00  0.00    -0.273 C  
ENDBRANCH   8   9
ENDBRANCH   3   8
BRANCH   5  13
HETATM   13  C   UNL     3     -12.131  13.917  66.933  1.00  0.00    -0.467 C  
BRANCH  13  14
HETATM   14  C   UNL     3     -11.164  14.223  68.054  1.00  0.00    -0.300 C  
HETATM   15  C   UNL     3     -11.589  15.549  68.653  1.00  0.00    -0.368 C  
HETATM   16  O   UNL     3     -12.204  15.451  69.743  1.00  0.00    -0.337 OA 
HETATM   17  O   UNL     3     -11.241  16.547  67.964  1.00  0.00    -0.314 OA 
ENDBRANCH  13  14
ENDBRANCH   5  13
TORSDOF 4
ENDMDL
MODEL       81
REMARK 921   NORMALIZED FREE ENERGY PREDICTED BY IDOCK:   -4.58 KCAL/MOL
REMARK 922        TOTAL FREE ENERGY PREDICTED BY IDOCK:   -6.02 KCAL/MOL
REMARK 923 INTER-LIGAND FREE ENERGY PREDICTED BY IDOCK:   -5.29 KCAL/MOL
REMARK 924 INTRA-LIGAND FREE ENERGY PREDICTED BY IDOCK:   -0.73 KCAL/MOL
REMARK 927      BINDING AFFINITY PREDICTED BY RF-SCORE:    0.00 PKD
ROOT
HETATM    1 CA   UNL     1     -11.652  10.400  68.880  1.00  0.00    -0.217 Ca 
HETATM    2  C   UNL     2      -9.141   8.734  66.010  1.00  0.00    -0.265 C  
HETATM    3  C   UNL     2      -9.663  10.126  66.212  1.00  0.00    -0.218 C  
HETATM    4  C   UNL     3     -11.694  14.059  69.864  1.00  0.00    -0.368 C  
HETATM    5  C   UNL     3     -12.003  13.567  68.486  1.00  0.00    -0.344 C  
HETATM    6  O   UNL     3     -12.285  12.360  68.347  1.00  0.00    -0.231 OA 
HETATM    7  O   UNL     2     -10.228  10.389  67.287  1.00  0.00    -0.190 OA 
ENDROOT
BRANCH   3   8
HETATM    8  C   UNL     2      -9.505  11.136  65.108  1.00  0.00    -0.257 C  
BRANCH   8   9
HETATM    9  C   UNL     2     -10.586  10.969  64.056  1.00  0.00    -0.395 C  
HETATM   10  O   UNL     2     -11.051  13.215  63.657  1.00  0.00    -0.324 OA 
HETATM   11  O   UNL     2     -12.487  11.976  64.959  1.00  0.00    -0.414 OA 
HETATM   12  C   UNL     2     -11.480  12.184  64.233  1.00  0.00    -0.367 C  
ENDBRANCH   8   9
ENDBRANCH   3   8
BRANCH   5  13
HETATM   13  C   UNL     3     -11.849  14.514  67.320  1.00  0.00    -0.419 C  
BRANCH  13  14
HETATM   14  C   UNL     3     -10.417  14.481  66.835  1.00  0.00    -0.269 C  
HETATM   15  C   UNL     3     -10.116  15.851  66.258  1.00  0.00    -0.301 C  
HETATM   16  O   UNL     3      -9.429  16.587  67.007  1.00  0.00    -0.230 OA 
HETATM   17  O   UNL     3     -10.594  16.027  65.105  1.00  0.00    -0.485 OA 
ENDBRANCH  13  14
ENDBRANCH   5  13
TORSDOF 4
ENDMDL
MODEL       82
REMARK 921   NORMALIZED FREE ENERGY PREDICTED BY IDOCK:   -4.57 KCAL/MOL
REMARK 922        TOTAL FREE ENERGY PREDICTED BY IDOCK:   -6.01 KCAL/MOL
REMARK 923 INTER-LIGAND FREE ENERGY PREDICTED BY IDOCK:   -5.48 KCAL/MOL
REMARK 924 INTRA-LIGAND FREE ENERGY PREDICTED BY IDOCK:   -0.52 KCAL/MOL
REMARK 927      BINDING AFFINITY PREDICTED BY RF-SCORE:    0.00 PKD
ROOT
HETATM    1 CA   UNL     1     -13.035  14.007  68.887  1.00  0.00    -0.504 Ca 
HETATM    2  C   UNL     2     -12.061  14.900  64.940  1.00  0.00    -0.275 C  
HETATM    3  C   UNL     2     -11.604  13.820  65.876  1.00  0.00    -0.333 C  
HETATM    4  C   UNL     3     -12.756  10.574  70.466  1.00  0.00    -0.385 C  
HETATM    5  C   UNL     3     -11.591  11.330  69.911  1.00  0.00    -0.334 C  
HETATM    6  O   UNL     3     -11.724  12.555  69.724  1.00  0.00    -0.307 OA 
HETATM    7  O   UNL     2     -12.228  13.663  66.938  1.00  0.00    -0.399 OA 
ENDROOT
BRANCH   3   8
HETATM    8  C   UNL     2     -10.404  12.990  65.507  1.00  0.00    -0.304 C  
BRANCH   8   9
HETATM    9  C   UNL     2     -10.811  11.576  65.137  1.00  0.00    -0.326 C  
HETATM   10  O   UNL     2      -9.909  11.491  62.992  1.00  0.00    -0.375 OA 
HETATM   11  O   UNL     2     -12.174  11.798  63.256  1.00  0.00    -0.489 OA 
HETATM   12  C   UNL     2     -10.986  11.614  63.629  1.00  0.00    -0.431 C  
ENDBRANCH   8   9
ENDBRANCH   3   8
BRANCH   5  13
HETATM   13  C   UNL     3     -10.354  10.567  69.497  1.00  0.00    -0.251 C  
BRANCH  13  14
HETATM   14  C   UNL     3     -10.688   9.672  68.325  1.00  0.00    -0.262 C  
HETATM   15  C   UNL     3     -10.027   8.334  68.590  1.00  0.00    -0.190 C  
HETATM   16  O   UNL     3     -10.812   7.439  68.988  1.00  0.00    -0.184 OA 
HETATM   17  O   UNL     3      -8.788   8.329  68.353  1.00  0.00    -0.136 OA 
ENDBRANCH  13  14
ENDBRANCH   5  13
TORSDOF 4
ENDMDL
MODEL       83
REMARK 921   NORMALIZED FREE ENERGY PREDICTED BY IDOCK:   -4.57 KCAL/MOL
REMARK 922        TOTAL FREE ENERGY PREDICTED BY IDOCK:   -6.01 KCAL/MOL
REMARK 923 INTER-LIGAND FREE ENERGY PREDICTED BY IDOCK:   -5.68 KCAL/MOL
REMARK 924 INTRA-LIGAND FREE ENERGY PREDICTED BY IDOCK:   -0.33 KCAL/MOL
REMARK 927      BINDING AFFINITY PREDICTED BY RF-SCORE:    0.00 PKD
ROOT
HETATM    1 CA   UNL     1      -8.996  11.440  67.580  1.00  0.00    -0.136 Ca 
HETATM    2  C   UNL     2     -10.963  15.098  67.846  1.00  0.00    -0.302 C  
HETATM    3  C   UNL     2     -10.985  13.872  68.710  1.00  0.00    -0.263 C  
HETATM    4  C   UNL     3      -8.249   9.161  70.513  1.00  0.00    -0.203 C  
HETATM    5  C   UNL     3      -9.632   9.542  70.089  1.00  0.00    -0.248 C  
HETATM    6  O   UNL     3      -9.784  10.009  68.943  1.00  0.00    -0.165 OA 
HETATM    7  O   UNL     2     -10.125  12.999  68.509  1.00  0.00    -0.234 OA 
ENDROOT
BRANCH   3   8
HETATM    8  C   UNL     2     -12.051  13.737  69.764  1.00  0.00    -0.400 C  
BRANCH   8   9
HETATM    9  C   UNL     2     -11.987  14.884  70.755  1.00  0.00    -0.372 C  
HETATM   10  O   UNL     2     -13.267  13.955  72.464  1.00  0.00    -0.462 OA 
HETATM   11  O   UNL     2     -14.202  15.540  71.084  1.00  0.00    -0.528 OA 
HETATM   12  C   UNL     2     -13.292  14.792  71.527  1.00  0.00    -0.374 C  
ENDBRANCH   8   9
ENDBRANCH   3   8
BRANCH   5  13
HETATM   13  C   UNL     3     -10.756   9.454  71.095  1.00  0.00    -0.417 C  
BRANCH  13  14
HETATM   14  C   UNL     3     -11.974  10.161  70.546  1.00  0.00    -0.400 C  
HETATM   15  C   UNL     3     -13.088   9.967  71.556  1.00  0.00    -0.418 C  
HETATM   16  O   UNL     3     -13.317  10.971  72.273  1.00  0.00    -0.390 OA 
HETATM   17  O   UNL     3     -13.620   8.824  71.505  1.00  0.00    -0.362 OA 
ENDBRANCH  13  14
ENDBRANCH   5  13
TORSDOF 4
ENDMDL
MODEL       84
REMARK 921   NORMALIZED FREE ENERGY PREDICTED BY IDOCK:   -4.56 KCAL/MOL
REMARK 922        TOTAL FREE ENERGY PREDICTED BY IDOCK:   -6.00 KCAL/MOL
REMARK 923 INTER-LIGAND FREE ENERGY PREDICTED BY IDOCK:   -5.46 KCAL/MOL
REMARK 924 INTRA-LIGAND FREE ENERGY PREDICTED BY IDOCK:   -0.54 KCAL/MOL
REMARK 927      BINDING AFFINITY PREDICTED BY RF-SCORE:    0.00 PKD
ROOT
HETATM    1 CA   UNL     1     -10.341  17.533  65.375  1.00  0.00    -0.300 Ca 
HETATM    2  C   UNL     2      -6.302  18.524  65.248  1.00  0.00    -0.263 C  
HETATM    3  C   UNL     2      -7.114  17.711  66.212  1.00  0.00    -0.301 C  
HETATM    4  C   UNL     3     -11.772  14.479  67.104  1.00  0.00    -0.420 C  
HETATM    5  C   UNL     3     -11.025  15.563  67.816  1.00  0.00    -0.317 C  
HETATM    6  O   UNL     3     -10.891  16.658  67.235  1.00  0.00    -0.273 OA 
HETATM    7  O   UNL     2      -8.270  17.397  65.883  1.00  0.00    -0.537 OA 
ENDROOT
BRANCH   3   8
HETATM    8  C   UNL     2      -6.512  17.326  67.536  1.00  0.00    -0.161 C  
BRANCH   8   9
HETATM    9  C   UNL     2      -7.320  17.892  68.689  1.00  0.00    -0.271 C  
HETATM   10  O   UNL     2      -6.296  19.977  68.858  1.00  0.00    -0.281 OA 
HETATM   11  O   UNL     2      -5.769  18.330  70.375  1.00  0.00    -0.237 OA 
HETATM   12  C   UNL     2      -6.366  18.841  69.392  1.00  0.00    -0.272 C  
ENDBRANCH   8   9
ENDBRANCH   3   8
BRANCH   5  13
HETATM   13  C   UNL     3     -10.373  15.252  69.142  1.00  0.00    -0.248 C  
BRANCH  13  14
HETATM   14  C   UNL     3     -10.807  16.277  70.165  1.00  0.00    -0.299 C  
HETATM   15  C   UNL     3     -11.781  15.584  71.097  1.00  0.00    -0.391 C  
HETATM   16  O   UNL     3     -11.295  15.263  72.209  1.00  0.00    -0.449 OA 
HETATM   17  O   UNL     3     -12.937  15.455  70.610  1.00  0.00    -0.435 OA 
ENDBRANCH  13  14
ENDBRANCH   5  13
TORSDOF 4
ENDMDL
MODEL       85
REMARK 921   NORMALIZED FREE ENERGY PREDICTED BY IDOCK:   -4.56 KCAL/MOL
REMARK 922        TOTAL FREE ENERGY PREDICTED BY IDOCK:   -6.00 KCAL/MOL
REMARK 923 INTER-LIGAND FREE ENERGY PREDICTED BY IDOCK:   -5.53 KCAL/MOL
REMARK 924 INTRA-LIGAND FREE ENERGY PREDICTED BY IDOCK:   -0.47 KCAL/MOL
REMARK 927      BINDING AFFINITY PREDICTED BY RF-SCORE:    0.00 PKD
ROOT
HETATM    1 CA   UNL     1     -11.886  10.217  70.132  1.00  0.00    -0.218 Ca 
HETATM    2  C   UNL     2     -10.524   6.326  69.561  1.00  0.00    -0.293 C  
HETATM    3  C   UNL     2     -10.637   7.504  68.639  1.00  0.00    -0.142 C  
HETATM    4  C   UNL     3     -10.826  13.211  68.066  1.00  0.00    -0.261 C  
HETATM    5  C   UNL     3     -11.531  12.020  67.500  1.00  0.00    -0.333 C  
HETATM    6  O   UNL     3     -12.121  11.259  68.291  1.00  0.00    -0.619 OA 
HETATM    7  O   UNL     2     -10.879   8.616  69.137  1.00  0.00    -0.165 OA 
ENDROOT
BRANCH   3   8
HETATM    8  C   UNL     2     -10.475   7.294  67.158  1.00  0.00    -0.394 C  
BRANCH   8   9
HETATM    9  C   UNL     2      -9.760   8.467  66.514  1.00  0.00    -0.330 C  
HETATM   10  O   UNL     2      -8.290   7.288  65.146  1.00  0.00    -0.134 OA 
HETATM   11  O   UNL     2      -7.515   8.219  67.102  1.00  0.00    -0.087 OA 
HETATM   12  C   UNL     2      -8.366   7.945  66.216  1.00  0.00    -0.126 C  
ENDBRANCH   8   9
ENDBRANCH   3   8
BRANCH   5  13
HETATM   13  C   UNL     3     -11.402  11.727  66.023  1.00  0.00    -0.335 C  
BRANCH  13  14
HETATM   14  C   UNL     3     -12.128  12.794  65.237  1.00  0.00    -0.505 C  
HETATM   15  C   UNL     3     -12.052  12.394  63.776  1.00  0.00    -0.529 C  
HETATM   16  O   UNL     3     -13.110  11.897  63.320  1.00  0.00    -0.674 OA 
HETATM   17  O   UNL     3     -10.935  12.641  63.245  1.00  0.00    -0.386 OA 
ENDBRANCH  13  14
ENDBRANCH   5  13
TORSDOF 4
ENDMDL
MODEL       86
REMARK 921   NORMALIZED FREE ENERGY PREDICTED BY IDOCK:   -4.56 KCAL/MOL
REMARK 922        TOTAL FREE ENERGY PREDICTED BY IDOCK:   -6.00 KCAL/MOL
REMARK 923 INTER-LIGAND FREE ENERGY PREDICTED BY IDOCK:   -5.62 KCAL/MOL
REMARK 924 INTRA-LIGAND FREE ENERGY PREDICTED BY IDOCK:   -0.37 KCAL/MOL
REMARK 927      BINDING AFFINITY PREDICTED BY RF-SCORE:    0.00 PKD
ROOT
HETATM    1 CA   UNL     1     -10.540  19.166  69.504  1.00  0.00    -0.516 Ca 
HETATM    2  C   UNL     2     -12.049  15.322  68.984  1.00  0.00    -0.244 C  
HETATM    3  C   UNL     2     -11.042  16.127  68.215  1.00  0.00    -0.348 C  
HETATM    4  C   UNL     3      -7.167  20.359  68.255  1.00  0.00    -0.183 C  
HETATM    5  C   UNL     3      -8.258  19.868  67.358  1.00  0.00    -0.320 C  
HETATM    6  O   UNL     3      -9.415  19.817  67.818  1.00  0.00    -0.325 OA 
HETATM    7  O   UNL     2     -10.619  17.177  68.726  1.00  0.00    -0.343 OA 
ENDROOT
BRANCH   3   8
HETATM    8  C   UNL     2     -10.604  15.648  66.858  1.00  0.00    -0.311 C  
BRANCH   8   9
HETATM    9  C   UNL     2     -11.322  14.368  66.472  1.00  0.00    -0.353 C  
HETATM   10  O   UNL     2     -10.421  14.077  64.344  1.00  0.00    -0.368 OA 
HETATM   11  O   UNL     2     -12.557  14.903  64.566  1.00  0.00    -0.519 OA 
HETATM   12  C   UNL     2     -11.452  14.446  64.961  1.00  0.00    -0.372 C  
ENDBRANCH   8   9
ENDBRANCH   3   8
BRANCH   5  13
HETATM   13  C   UNL     3      -7.898  19.351  65.985  1.00  0.00    -0.294 C  
BRANCH  13  14
HETATM   14  C   UNL     3      -6.619  20.010  65.522  1.00  0.00    -0.298 C  
HETATM   15  C   UNL     3      -5.817  18.950  64.792  1.00  0.00    -0.274 C  
HETATM   16  O   UNL     3      -5.852  19.045  63.541  1.00  0.00    -0.398 OA 
HETATM   17  O   UNL     3      -5.225  18.147  65.563  1.00  0.00    -0.159 OA 
ENDBRANCH  13  14
ENDBRANCH   5  13
TORSDOF 4
ENDMDL
MODEL       87
REMARK 921   NORMALIZED FREE ENERGY PREDICTED BY IDOCK:   -4.55 KCAL/MOL
REMARK 922        TOTAL FREE ENERGY PREDICTED BY IDOCK:   -5.98 KCAL/MOL
REMARK 923 INTER-LIGAND FREE ENERGY PREDICTED BY IDOCK:   -5.31 KCAL/MOL
REMARK 924 INTRA-LIGAND FREE ENERGY PREDICTED BY IDOCK:   -0.67 KCAL/MOL
REMARK 927      BINDING AFFINITY PREDICTED BY RF-SCORE:    0.00 PKD
ROOT
HETATM    1 CA   UNL     1      -9.100  10.810  63.688  1.00  0.00    -0.161 Ca 
HETATM    2  C   UNL     2      -8.846   7.475  66.164  1.00  0.00    -0.185 C  
HETATM    3  C   UNL     2      -9.690   8.714  66.219  1.00  0.00    -0.251 C  
HETATM    4  C   UNL     3     -12.148  13.037  63.356  1.00  0.00    -0.591 C  
HETATM    5  C   UNL     3     -11.396  12.844  64.634  1.00  0.00    -0.323 C  
HETATM    6  O   UNL     3     -10.243  12.374  64.569  1.00  0.00    -0.301 OA 
HETATM    7  O   UNL     2      -9.712   9.452  65.220  1.00  0.00    -0.263 OA 
ENDROOT
BRANCH   3   8
HETATM    8  C   UNL     2     -10.453   9.026  67.478  1.00  0.00    -0.338 C  
BRANCH   8   9
HETATM    9  C   UNL     2     -10.266  10.475  67.885  1.00  0.00    -0.213 C  
HETATM   10  O   UNL     2     -10.675  10.264  70.168  1.00  0.00    -0.280 OA 
HETATM   11  O   UNL     2     -12.311  11.128  68.801  1.00  0.00    -0.539 OA 
HETATM   12  C   UNL     2     -11.180  10.653  69.085  1.00  0.00    -0.265 C  
ENDBRANCH   8   9
ENDBRANCH   3   8
BRANCH   5  13
HETATM   13  C   UNL     3     -12.099  13.116  65.943  1.00  0.00    -0.501 C  
BRANCH  13  14
HETATM   14  C   UNL     3     -11.814  14.536  66.378  1.00  0.00    -0.361 C  
HETATM   15  C   UNL     3     -10.756  14.460  67.462  1.00  0.00    -0.271 C  
HETATM   16  O   UNL     3      -9.600  14.766  67.079  1.00  0.00    -0.227 OA 
HETATM   17  O   UNL     3     -11.211  14.115  68.586  1.00  0.00    -0.241 OA 
ENDBRANCH  13  14
ENDBRANCH   5  13
TORSDOF 4
ENDMDL
MODEL       88
REMARK 921   NORMALIZED FREE ENERGY PREDICTED BY IDOCK:   -4.54 KCAL/MOL
REMARK 922        TOTAL FREE ENERGY PREDICTED BY IDOCK:   -5.97 KCAL/MOL
REMARK 923 INTER-LIGAND FREE ENERGY PREDICTED BY IDOCK:   -5.56 KCAL/MOL
REMARK 924 INTRA-LIGAND FREE ENERGY PREDICTED BY IDOCK:   -0.41 KCAL/MOL
REMARK 927      BINDING AFFINITY PREDICTED BY RF-SCORE:    0.00 PKD
ROOT
HETATM    1 CA   UNL     1     -11.999  16.579  64.061  1.00  0.00    -0.523 Ca 
HETATM    2  C   UNL     2     -12.482  12.447  64.174  1.00  0.00    -0.534 C  
HETATM    3  C   UNL     2     -11.605  13.385  64.950  1.00  0.00    -0.330 C  
HETATM    4  C   UNL     3     -10.760  18.698  66.949  1.00  0.00    -0.367 C  
HETATM    5  C   UNL     3      -9.951  17.618  66.305  1.00  0.00    -0.318 C  
HETATM    6  O   UNL     3     -10.303  17.216  65.178  1.00  0.00    -0.603 OA 
HETATM    7  O   UNL     2     -11.826  14.604  64.858  1.00  0.00    -0.381 OA 
ENDROOT
BRANCH   3   8
HETATM    8  C   UNL     2     -10.487  12.821  65.785  1.00  0.00    -0.294 C  
BRANCH   8   9
HETATM    9  C   UNL     2     -10.562  11.307  65.847  1.00  0.00    -0.309 C  
HETATM   10  O   UNL     2      -8.283  10.837  65.934  1.00  0.00    -0.157 OA 
HETATM   11  O   UNL     2      -9.422  10.555  63.955  1.00  0.00    -0.241 OA 
HETATM   12  C   UNL     2      -9.284  10.836  65.174  1.00  0.00    -0.209 C  
ENDBRANCH   8   9
ENDBRANCH   3   8
BRANCH   5  13
HETATM   13  C   UNL     3      -8.823  16.985  67.086  1.00  0.00    -0.232 C  
BRANCH  13  14
HETATM   14  C   UNL     3      -8.744  17.622  68.454  1.00  0.00    -0.284 C  
HETATM   15  C   UNL     3      -7.386  18.289  68.552  1.00  0.00    -0.286 C  
HETATM   16  O   UNL     3      -7.412  19.536  68.409  1.00  0.00    -0.301 OA 
HETATM   17  O   UNL     3      -6.444  17.482  68.777  1.00  0.00    -0.188 OA 
ENDBRANCH  13  14
ENDBRANCH   5  13
TORSDOF 4
ENDMDL
MODEL       89
REMARK 921   NORMALIZED FREE ENERGY PREDICTED BY IDOCK:   -4.53 KCAL/MOL
REMARK 922        TOTAL FREE ENERGY PREDICTED BY IDOCK:   -5.96 KCAL/MOL
REMARK 923 INTER-LIGAND FREE ENERGY PREDICTED BY IDOCK:   -5.60 KCAL/MOL
REMARK 924 INTRA-LIGAND FREE ENERGY PREDICTED BY IDOCK:   -0.36 KCAL/MOL
REMARK 927      BINDING AFFINITY PREDICTED BY RF-SCORE:    0.00 PKD
ROOT
HETATM    1 CA   UNL     1      -7.707   9.211  66.853  1.00  0.00    -0.087 Ca 
HETATM    2  C   UNL     2      -9.713   9.202  70.499  1.00  0.00    -0.287 C  
HETATM    3  C   UNL     2      -9.980   9.902  69.199  1.00  0.00    -0.198 C  
HETATM    4  C   UNL     3      -9.303   9.969  63.501  1.00  0.00    -0.301 C  
HETATM    5  C   UNL     3      -9.246  10.945  64.632  1.00  0.00    -0.197 C  
HETATM    6  O   UNL     3      -8.428  10.730  65.548  1.00  0.00    -0.174 OA 
HETATM    7  O   UNL     2      -9.331   9.549  68.200  1.00  0.00    -0.133 OA 
ENDROOT
BRANCH   3   8
HETATM    8  C   UNL     2     -10.999  11.009  69.158  1.00  0.00    -0.289 C  
BRANCH   8   9
HETATM    9  C   UNL     2     -10.953  11.744  67.831  1.00  0.00    -0.272 C  
HETATM   10  O   UNL     2      -9.731  13.611  68.494  1.00  0.00    -0.227 OA 
HETATM   11  O   UNL     2     -12.008  13.788  68.221  1.00  0.00    -0.357 OA 
HETATM   12  C   UNL     2     -10.889  13.212  68.212  1.00  0.00    -0.253 C  
ENDBRANCH   8   9
ENDBRANCH   3   8
BRANCH   5  13
HETATM   13  C   UNL     3     -10.248  12.074  64.675  1.00  0.00    -0.313 C  
BRANCH  13  14
HETATM   14  C   UNL     3     -11.355  11.799  63.683  1.00  0.00    -0.525 C  
HETATM   15  C   UNL     3     -12.432  12.838  63.925  1.00  0.00    -0.367 C  
HETATM   16  O   UNL     3     -12.450  13.770  63.085  1.00  0.00    -0.786 OA 
HETATM   17  O   UNL     3     -13.153  12.589  64.930  1.00  0.00    -0.833 OA 
ENDBRANCH  13  14
ENDBRANCH   5  13
TORSDOF 4
ENDMDL
MODEL       90
REMARK 921   NORMALIZED FREE ENERGY PREDICTED BY IDOCK:   -4.53 KCAL/MOL
REMARK 922        TOTAL FREE ENERGY PREDICTED BY IDOCK:   -5.95 KCAL/MOL
REMARK 923 INTER-LIGAND FREE ENERGY PREDICTED BY IDOCK:   -5.59 KCAL/MOL
REMARK 924 INTRA-LIGAND FREE ENERGY PREDICTED BY IDOCK:   -0.37 KCAL/MOL
REMARK 927      BINDING AFFINITY PREDICTED BY RF-SCORE:    0.00 PKD
ROOT
HETATM    1 CA   UNL     1     -12.703  12.535  70.791  1.00  0.00    -0.292 Ca 
HETATM    2  C   UNL     2     -11.891  13.521  66.830  1.00  0.00    -0.452 C  
HETATM    3  C   UNL     2     -11.744  12.245  67.606  1.00  0.00    -0.334 C  
HETATM    4  C   UNL     3     -13.474   9.042  72.042  1.00  0.00    -0.498 C  
HETATM    5  C   UNL     3     -12.183   9.425  71.392  1.00  0.00    -0.356 C  
HETATM    6  O   UNL     3     -11.900  10.637  71.323  1.00  0.00    -0.302 OA 
HETATM    7  O   UNL     2     -12.272  12.179  68.729  1.00  0.00    -0.204 OA 
ENDROOT
BRANCH   3   8
HETATM    8  C   UNL     2     -10.953  11.112  67.011  1.00  0.00    -0.348 C  
BRANCH   8   9
HETATM    9  C   UNL     2      -9.874  11.630  66.078  1.00  0.00    -0.258 C  
HETATM   10  O   UNL     2     -11.013  11.424  64.058  1.00  0.00    -0.364 OA 
HETATM   11  O   UNL     2      -9.417   9.866  64.621  1.00  0.00    -0.276 OA 
HETATM   12  C   UNL     2     -10.119  10.900  64.770  1.00  0.00    -0.321 C  
ENDBRANCH   8   9
ENDBRANCH   3   8
BRANCH   5  13
HETATM   13  C   UNL     3     -11.339   8.348  70.753  1.00  0.00    -0.290 C  
BRANCH  13  14
HETATM   14  C   UNL     3     -12.103   7.043  70.760  1.00  0.00    -0.374 C  
HETATM   15  C   UNL     3     -11.200   6.000  70.132  1.00  0.00    -0.342 C  
HETATM   16  O   UNL     3     -10.652   5.226  70.955  1.00  0.00    -0.236 OA 
HETATM   17  O   UNL     3     -11.155   6.066  68.873  1.00  0.00    -0.343 OA 
ENDBRANCH  13  14
ENDBRANCH   5  13
TORSDOF 4
ENDMDL
MODEL       91
REMARK 921   NORMALIZED FREE ENERGY PREDICTED BY IDOCK:   -4.53 KCAL/MOL
REMARK 922        TOTAL FREE ENERGY PREDICTED BY IDOCK:   -5.95 KCAL/MOL
REMARK 923 INTER-LIGAND FREE ENERGY PREDICTED BY IDOCK:   -5.41 KCAL/MOL
REMARK 924 INTRA-LIGAND FREE ENERGY PREDICTED BY IDOCK:   -0.54 KCAL/MOL
REMARK 927      BINDING AFFINITY PREDICTED BY RF-SCORE:    0.00 PKD
ROOT
HETATM    1 CA   UNL     1      -9.478  13.810  69.274  1.00  0.00    -0.334 Ca 
HETATM    2  C   UNL     2      -9.944  16.049  65.797  1.00  0.00    -0.382 C  
HETATM    3  C   UNL     2     -10.099  14.585  66.086  1.00  0.00    -0.305 C  
HETATM    4  C   UNL     3     -11.183  10.498  69.967  1.00  0.00    -0.386 C  
HETATM    5  C   UNL     3     -10.234  10.722  68.833  1.00  0.00    -0.203 C  
HETATM    6  O   UNL     3      -9.486  11.718  68.885  1.00  0.00    -0.083 OA 
HETATM    7  O   UNL     2     -10.108  14.221  67.274  1.00  0.00    -0.248 OA 
ENDROOT
BRANCH   3   8
HETATM    8  C   UNL     2     -10.215  13.619  64.939  1.00  0.00    -0.363 C  
BRANCH   8   9
HETATM    9  C   UNL     2     -11.290  12.581  65.204  1.00  0.00    -0.352 C  
HETATM   10  O   UNL     2     -12.576  12.895  63.288  1.00  0.00    -0.685 OA 
HETATM   11  O   UNL     2     -13.293  13.775  65.289  1.00  0.00    -0.710 OA 
HETATM   12  C   UNL     2     -12.529  13.134  64.521  1.00  0.00    -0.342 C  
ENDBRANCH   8   9
ENDBRANCH   3   8
BRANCH   5  13
HETATM   13  C   UNL     3     -10.300   9.807  67.633  1.00  0.00    -0.281 C  
BRANCH  13  14
HETATM   14  C   UNL     3      -9.344   8.653  67.831  1.00  0.00    -0.155 C  
HETATM   15  C   UNL     3     -10.171   7.383  67.786  1.00  0.00    -0.196 C  
HETATM   16  O   UNL     3     -10.087   6.749  66.705  1.00  0.00    -0.189 OA 
HETATM   17  O   UNL     3     -10.802   7.156  68.853  1.00  0.00    -0.200 OA 
ENDBRANCH  13  14
ENDBRANCH   5  13
TORSDOF 4
ENDMDL
MODEL       92
REMARK 921   NORMALIZED FREE ENERGY PREDICTED BY IDOCK:   -4.52 KCAL/MOL
REMARK 922        TOTAL FREE ENERGY PREDICTED BY IDOCK:   -5.94 KCAL/MOL
REMARK 923 INTER-LIGAND FREE ENERGY PREDICTED BY IDOCK:   -5.48 KCAL/MOL
REMARK 924 INTRA-LIGAND FREE ENERGY PREDICTED BY IDOCK:   -0.46 KCAL/MOL
REMARK 927      BINDING AFFINITY PREDICTED BY RF-SCORE:    0.00 PKD
ROOT
HETATM    1 CA   UNL     1     -12.885  16.216  68.353  1.00  0.00    -0.420 Ca 
HETATM    2  C   UNL     2     -10.033  19.176  69.003  1.00  0.00    -0.422 C  
HETATM    3  C   UNL     2      -9.971  17.845  68.314  1.00  0.00    -0.360 C  
HETATM    4  C   UNL     3     -12.786  13.690  65.530  1.00  0.00    -0.514 C  
HETATM    5  C   UNL     3     -11.733  13.795  66.587  1.00  0.00    -0.394 C  
HETATM    6  O   UNL     3     -12.015  14.412  67.633  1.00  0.00    -0.377 OA 
HETATM    7  O   UNL     2     -11.039  17.257  68.078  1.00  0.00    -0.289 OA 
ENDROOT
BRANCH   3   8
HETATM    8  C   UNL     2      -8.628  17.266  67.957  1.00  0.00    -0.234 C  
BRANCH   8   9
HETATM    9  C   UNL     2      -8.519  17.018  66.464  1.00  0.00    -0.306 C  
HETATM   10  O   UNL     2      -6.203  17.125  66.249  1.00  0.00    -0.208 OA 
HETATM   11  O   UNL     2      -7.485  18.920  65.596  1.00  0.00    -0.479 OA 
HETATM   12  C   UNL     2      -7.266  17.765  66.046  1.00  0.00    -0.287 C  
ENDBRANCH   8   9
ENDBRANCH   3   8
BRANCH   5  13
HETATM   13  C   UNL     3     -10.352  13.256  66.299  1.00  0.00    -0.290 C  
BRANCH  13  14
HETATM   14  C   UNL     3     -10.471  11.898  65.647  1.00  0.00    -0.302 C  
HETATM   15  C   UNL     3     -10.250  10.865  66.734  1.00  0.00    -0.231 C  
HETATM   16  O   UNL     3     -11.301  10.318  67.150  1.00  0.00    -0.230 OA 
HETATM   17  O   UNL     3      -9.036  10.708  67.039  1.00  0.00    -0.143 OA 
ENDBRANCH  13  14
ENDBRANCH   5  13
TORSDOF 4
ENDMDL
MODEL       93
REMARK 921   NORMALIZED FREE ENERGY PREDICTED BY IDOCK:   -4.52 KCAL/MOL
REMARK 922        TOTAL FREE ENERGY PREDICTED BY IDOCK:   -5.94 KCAL/MOL
REMARK 923 INTER-LIGAND FREE ENERGY PREDICTED BY IDOCK:   -5.38 KCAL/MOL
REMARK 924 INTRA-LIGAND FREE ENERGY PREDICTED BY IDOCK:   -0.56 KCAL/MOL
REMARK 927      BINDING AFFINITY PREDICTED BY RF-SCORE:    0.00 PKD
ROOT
HETATM    1 CA   UNL     1     -13.964   5.644  72.706  1.00  0.00    -0.562 Ca 
HETATM    2  C   UNL     2     -10.839   3.132  73.823  1.00  0.00    -0.305 C  
HETATM    3  C   UNL     2     -10.867   4.493  73.191  1.00  0.00    -0.254 C  
HETATM    4  C   UNL     3     -13.714   9.412  72.399  1.00  0.00    -0.469 C  
HETATM    5  C   UNL     3     -12.908   8.457  71.578  1.00  0.00    -0.303 C  
HETATM    6  O   UNL     3     -13.292   7.273  71.513  1.00  0.00    -0.379 OA 
HETATM    7  O   UNL     2     -11.948   5.105  73.168  1.00  0.00    -0.206 OA 
ENDROOT
BRANCH   3   8
HETATM    8  C   UNL     2      -9.603   5.051  72.596  1.00  0.00    -0.165 C  
BRANCH   8   9
HETATM    9  C   UNL     2      -9.384   4.528  71.189  1.00  0.00    -0.212 C  
HETATM   10  O   UNL     2      -8.800   6.527  70.147  1.00  0.00    -0.142 OA 
HETATM   11  O   UNL     2     -10.918   5.677  69.858  1.00  0.00    -0.339 OA 
HETATM   12  C   UNL     2      -9.736   5.699  70.289  1.00  0.00    -0.178 C  
ENDBRANCH   8   9
ENDBRANCH   3   8
BRANCH   5  13
HETATM   13  C   UNL     3     -11.613   8.935  70.962  1.00  0.00    -0.347 C  
BRANCH  13  14
HETATM   14  C   UNL     3     -11.672  10.434  70.774  1.00  0.00    -0.464 C  
HETATM   15  C   UNL     3     -11.239  10.716  69.349  1.00  0.00    -0.270 C  
HETATM   16  O   UNL     3     -12.182  10.978  68.563  1.00  0.00    -0.582 OA 
HETATM   17  O   UNL     3      -9.990  10.657  69.182  1.00  0.00    -0.208 OA 
ENDBRANCH  13  14
ENDBRANCH   5  13
TORSDOF 4
ENDMDL
MODEL       94
REMARK 921   NORMALIZED FREE ENERGY PREDICTED BY IDOCK:   -4.51 KCAL/MOL
REMARK 922        TOTAL FREE ENERGY PREDICTED BY IDOCK:   -5.94 KCAL/MOL
REMARK 923 INTER-LIGAND FREE ENERGY PREDICTED BY IDOCK:   -5.57 KCAL/MOL
REMARK 924 INTRA-LIGAND FREE ENERGY PREDICTED BY IDOCK:   -0.37 KCAL/MOL
REMARK 927      BINDING AFFINITY PREDICTED BY RF-SCORE:    0.00 PKD
ROOT
HETATM    1 CA   UNL     1      -7.935  13.892  65.986  1.00  0.00    -0.229 Ca 
HETATM    2  C   UNL     2     -11.815  12.415  66.271  1.00  0.00    -0.431 C  
HETATM    3  C   UNL     2     -11.170  13.670  66.781  1.00  0.00    -0.314 C  
HETATM    4  C   UNL     3      -6.987  17.555  66.195  1.00  0.00    -0.323 C  
HETATM    5  C   UNL     3      -7.651  16.805  67.306  1.00  0.00    -0.175 C  
HETATM    6  O   UNL     3      -7.618  15.559  67.271  1.00  0.00    -0.181 OA 
HETATM    7  O   UNL     2     -10.038  13.959  66.360  1.00  0.00    -0.279 OA 
ENDROOT
BRANCH   3   8
HETATM    8  C   UNL     2     -11.902  14.512  67.791  1.00  0.00    -0.390 C  
BRANCH   8   9
HETATM    9  C   UNL     2     -11.438  14.199  69.202  1.00  0.00    -0.338 C  
HETATM   10  O   UNL     2     -13.013  15.443  70.383  1.00  0.00    -0.367 OA 
HETATM   11  O   UNL     2     -10.877  16.261  70.139  1.00  0.00    -0.334 OA 
HETATM   12  C   UNL     2     -11.814  15.431  70.007  1.00  0.00    -0.343 C  
ENDBRANCH   8   9
ENDBRANCH   3   8
BRANCH   5  13
HETATM   13  C   UNL     3      -8.424  17.576  68.349  1.00  0.00    -0.275 C  
BRANCH  13  14
HETATM   14  C   UNL     3      -8.620  18.999  67.877  1.00  0.00    -0.333 C  
HETATM   15  C   UNL     3     -10.068  19.357  68.149  1.00  0.00    -0.425 C  
HETATM   16  O   UNL     3     -10.240  20.088  69.155  1.00  0.00    -0.376 OA 
HETATM   17  O   UNL     3     -10.873  18.875  67.306  1.00  0.00    -0.458 OA 
ENDBRANCH  13  14
ENDBRANCH   5  13
TORSDOF 4
ENDMDL
MODEL       95
REMARK 921   NORMALIZED FREE ENERGY PREDICTED BY IDOCK:   -4.50 KCAL/MOL
REMARK 922        TOTAL FREE ENERGY PREDICTED BY IDOCK:   -5.92 KCAL/MOL
REMARK 923 INTER-LIGAND FREE ENERGY PREDICTED BY IDOCK:   -5.44 KCAL/MOL
REMARK 924 INTRA-LIGAND FREE ENERGY PREDICTED BY IDOCK:   -0.48 KCAL/MOL
REMARK 927      BINDING AFFINITY PREDICTED BY RF-SCORE:    0.00 PKD
ROOT
HETATM    1 CA   UNL     1      -9.555   9.938  64.558  1.00  0.00    -0.207 Ca 
HETATM    2  C   UNL     2      -9.421   7.901  68.184  1.00  0.00    -0.154 C  
HETATM    3  C   UNL     2     -10.182   9.112  67.731  1.00  0.00    -0.224 C  
HETATM    4  C   UNL     3     -12.465  12.049  63.362  1.00  0.00    -0.625 C  
HETATM    5  C   UNL     3     -11.681  12.343  64.601  1.00  0.00    -0.365 C  
HETATM    6  O   UNL     3     -10.563  11.804  64.726  1.00  0.00    -0.274 OA 
HETATM    7  O   UNL     2     -10.195   9.375  66.517  1.00  0.00    -0.258 OA 
ENDROOT
BRANCH   3   8
HETATM    8  C   UNL     2     -10.878   9.967  68.756  1.00  0.00    -0.240 C  
BRANCH   8   9
HETATM    9  C   UNL     2     -10.317   9.720  70.144  1.00  0.00    -0.335 C  
HETATM   10  O   UNL     2     -11.789   8.055  70.838  1.00  0.00    -0.288 OA 
HETATM   11  O   UNL     2     -12.065  10.204  71.612  1.00  0.00    -0.375 OA 
HETATM   12  C   UNL     2     -11.514   9.275  70.965  1.00  0.00    -0.319 C  
ENDBRANCH   8   9
ENDBRANCH   3   8
BRANCH   5  13
HETATM   13  C   UNL     3     -12.316  13.178  65.687  1.00  0.00    -0.519 C  
BRANCH  13  14
HETATM   14  C   UNL     3     -11.531  13.011  66.969  1.00  0.00    -0.381 C  
HETATM   15  C   UNL     3     -11.592  14.339  67.698  1.00  0.00    -0.368 C  
HETATM   16  O   UNL     3     -12.398  14.364  68.661  1.00  0.00    -0.202 OA 
HETATM   17  O   UNL     3     -10.806  15.206  67.229  1.00  0.00    -0.301 OA 
ENDBRANCH  13  14
ENDBRANCH   5  13
TORSDOF 4
ENDMDL
MODEL       96
REMARK 921   NORMALIZED FREE ENERGY PREDICTED BY IDOCK:   -4.41 KCAL/MOL
REMARK 922        TOTAL FREE ENERGY PREDICTED BY IDOCK:   -5.81 KCAL/MOL
REMARK 923 INTER-LIGAND FREE ENERGY PREDICTED BY IDOCK:   -5.44 KCAL/MOL
REMARK 924 INTRA-LIGAND FREE ENERGY PREDICTED BY IDOCK:   -0.37 KCAL/MOL
REMARK 927      BINDING AFFINITY PREDICTED BY RF-SCORE:    0.00 PKD
ROOT
HETATM    1 CA   UNL     1      -7.625  12.284  67.739  1.00  0.00    -0.086 Ca 
HETATM    2  C   UNL     2      -5.227  15.588  68.547  1.00  0.00    -0.095 C  
HETATM    3  C   UNL     2      -6.645  15.458  68.075  1.00  0.00    -0.147 C  
HETATM    4  C   UNL     3     -11.413  12.270  67.864  1.00  0.00    -0.390 C  
HETATM    5  C   UNL     3     -10.616  13.130  66.935  1.00  0.00    -0.263 C  
HETATM    6  O   UNL     3      -9.423  12.827  66.737  1.00  0.00    -0.230 OA 
HETATM    7  O   UNL     2      -7.179  14.338  68.127  1.00  0.00    -0.101 OA 
ENDROOT
BRANCH   3   8
HETATM    8  C   UNL     2      -7.354  16.673  67.541  1.00  0.00    -0.173 C  
BRANCH   8   9
HETATM    9  C   UNL     2      -8.189  17.337  68.621  1.00  0.00    -0.262 C  
HETATM   10  O   UNL     2      -8.442  19.435  67.643  1.00  0.00    -0.291 OA 
HETATM   11  O   UNL     2      -6.923  19.157  69.348  1.00  0.00    -0.303 OA 
HETATM   12  C   UNL     2      -7.819  18.807  68.537  1.00  0.00    -0.336 C  
ENDBRANCH   8   9
ENDBRANCH   3   8
BRANCH   5  13
HETATM   13  C   UNL     3     -11.249  14.380  66.371  1.00  0.00    -0.345 C  
BRANCH  13  14
HETATM   14  C   UNL     3     -10.777  14.583  64.950  1.00  0.00    -0.448 C  
HETATM   15  C   UNL     3     -11.644  15.672  64.349  1.00  0.00    -0.249 C  
HETATM   16  O   UNL     3     -11.086  16.795  64.274  1.00  0.00    -1.106 OA 
HETATM   17  O   UNL     3     -12.788  15.271  64.003  1.00  0.00    -0.613 OA 
ENDBRANCH  13  14
ENDBRANCH   5  13
TORSDOF 4
ENDMDL
MODEL       97
REMARK 921   NORMALIZED FREE ENERGY PREDICTED BY IDOCK:   -4.41 KCAL/MOL
REMARK 922        TOTAL FREE ENERGY PREDICTED BY IDOCK:   -5.81 KCAL/MOL
REMARK 923 INTER-LIGAND FREE ENERGY PREDICTED BY IDOCK:   -5.21 KCAL/MOL
REMARK 924 INTRA-LIGAND FREE ENERGY PREDICTED BY IDOCK:   -0.59 KCAL/MOL
REMARK 927      BINDING AFFINITY PREDICTED BY RF-SCORE:    0.00 PKD
ROOT
HETATM    1 CA   UNL     1      -7.155  11.814  68.304  1.00  0.00    -0.061 Ca 
HETATM    2  C   UNL     2      -6.225  15.860  68.591  1.00  0.00    -0.104 C  
HETATM    3  C   UNL     2      -7.226  15.109  67.764  1.00  0.00    -0.167 C  
HETATM    4  C   UNL     3     -10.501  10.432  67.184  1.00  0.00    -0.311 C  
HETATM    5  C   UNL     3      -9.623  11.280  66.321  1.00  0.00    -0.209 C  
HETATM    6  O   UNL     3      -8.425  11.402  66.647  1.00  0.00    -0.163 OA 
HETATM    7  O   UNL     2      -7.437  13.916  68.042  1.00  0.00    -0.105 OA 
ENDROOT
BRANCH   3   8
HETATM    8  C   UNL     2      -7.914  15.813  66.626  1.00  0.00    -0.233 C  
BRANCH   8   9
HETATM    9  C   UNL     2      -9.374  15.412  66.539  1.00  0.00    -0.311 C  
HETATM   10  O   UNL     2     -10.177  17.234  65.331  1.00  0.00    -0.604 OA 
HETATM   11  O   UNL     2     -10.550  17.125  67.599  1.00  0.00    -0.350 OA 
HETATM   12  C   UNL     2     -10.128  16.729  66.482  1.00  0.00    -0.315 C  
ENDBRANCH   8   9
ENDBRANCH   3   8
BRANCH   5  13
HETATM   13  C   UNL     3     -10.241  12.037  65.169  1.00  0.00    -0.308 C  
BRANCH  13  14
HETATM   14  C   UNL     3     -11.627  12.497  65.559  1.00  0.00    -0.429 C  
HETATM   15  C   UNL     3     -12.230  13.162  64.337  1.00  0.00    -0.398 C  
HETATM   16  O   UNL     3     -13.068  12.456  63.724  1.00  0.00    -0.756 OA 
HETATM   17  O   UNL     3     -11.803  14.332  64.140  1.00  0.00    -0.389 OA 
ENDBRANCH  13  14
ENDBRANCH   5  13
TORSDOF 4
ENDMDL
MODEL       98
REMARK 921   NORMALIZED FREE ENERGY PREDICTED BY IDOCK:   -4.40 KCAL/MOL
REMARK 922        TOTAL FREE ENERGY PREDICTED BY IDOCK:   -5.80 KCAL/MOL
REMARK 923 INTER-LIGAND FREE ENERGY PREDICTED BY IDOCK:   -5.21 KCAL/MOL
REMARK 924 INTRA-LIGAND FREE ENERGY PREDICTED BY IDOCK:   -0.59 KCAL/MOL
REMARK 927      BINDING AFFINITY PREDICTED BY RF-SCORE:    0.00 PKD
ROOT
HETATM    1 CA   UNL     1      -9.491  13.201  64.121  1.00  0.00    -0.540 Ca 
HETATM    2  C   UNL     2     -10.283  16.700  66.231  1.00  0.00    -0.344 C  
HETATM    3  C   UNL     2     -10.037  15.287  66.671  1.00  0.00    -0.261 C  
HETATM    4  C   UNL     3      -7.654  10.195  65.517  1.00  0.00    -0.146 C  
HETATM    5  C   UNL     3      -8.943  10.712  66.073  1.00  0.00    -0.172 C  
HETATM    6  O   UNL     3      -9.623  11.475  65.359  1.00  0.00    -0.226 OA 
HETATM    7  O   UNL     2      -9.609  14.478  65.831  1.00  0.00    -0.301 OA 
ENDROOT
BRANCH   3   8
HETATM    8  C   UNL     2     -10.336  14.899  68.094  1.00  0.00    -0.237 C  
BRANCH   8   9
HETATM    9  C   UNL     2     -11.770  15.232  68.461  1.00  0.00    -0.352 C  
HETATM   10  O   UNL     2     -11.401  16.135  70.575  1.00  0.00    -0.371 OA 
HETATM   11  O   UNL     2     -12.218  13.993  70.387  1.00  0.00    -0.319 OA 
HETATM   12  C   UNL     2     -11.813  15.111  69.974  1.00  0.00    -0.325 C  
ENDBRANCH   8   9
ENDBRANCH   3   8
BRANCH   5  13
HETATM   13  C   UNL     3      -9.307  10.384  67.502  1.00  0.00    -0.163 C  
BRANCH  13  14
HETATM   14  C   UNL     3     -10.763   9.985  67.568  1.00  0.00    -0.339 C  
HETATM   15  C   UNL     3     -11.488  11.085  68.319  1.00  0.00    -0.304 C  
HETATM   16  O   UNL     3     -12.145  11.864  67.586  1.00  0.00    -0.568 OA 
HETATM   17  O   UNL     3     -11.327  11.031  69.568  1.00  0.00    -0.239 OA 
ENDBRANCH  13  14
ENDBRANCH   5  13
TORSDOF 4
ENDMDL
MODEL       99
REMARK 921   NORMALIZED FREE ENERGY PREDICTED BY IDOCK:   -4.40 KCAL/MOL
REMARK 922        TOTAL FREE ENERGY PREDICTED BY IDOCK:   -5.80 KCAL/MOL
REMARK 923 INTER-LIGAND FREE ENERGY PREDICTED BY IDOCK:   -5.33 KCAL/MOL
REMARK 924 INTRA-LIGAND FREE ENERGY PREDICTED BY IDOCK:   -0.46 KCAL/MOL
REMARK 927      BINDING AFFINITY PREDICTED BY RF-SCORE:    0.00 PKD
ROOT
HETATM    1 CA   UNL     1     -11.054  16.235  64.661  1.00  0.00    -0.343 Ca 
HETATM    2  C   UNL     2     -12.050  12.999  67.080  1.00  0.00    -0.325 C  
HETATM    3  C   UNL     2     -11.394  14.316  67.372  1.00  0.00    -0.332 C  
HETATM    4  C   UNL     3     -10.660  19.805  65.868  1.00  0.00    -0.557 C  
HETATM    5  C   UNL     3      -9.815  18.669  66.349  1.00  0.00    -0.367 C  
HETATM    6  O   UNL     3      -9.795  17.626  65.666  1.00  0.00    -0.536 OA 
HETATM    7  O   UNL     2     -11.416  15.190  66.489  1.00  0.00    -0.291 OA 
ENDROOT
BRANCH   3   8
HETATM    8  C   UNL     2     -10.720  14.521  68.702  1.00  0.00    -0.257 C  
BRANCH   8   9
HETATM    9  C   UNL     2      -9.940  15.823  68.725  1.00  0.00    -0.214 C  
HETATM   10  O   UNL     2      -8.148  15.192  67.378  1.00  0.00    -0.156 OA 
HETATM   11  O   UNL     2      -7.871  15.286  69.660  1.00  0.00    -0.220 OA 
HETATM   12  C   UNL     2      -8.490  15.399  68.570  1.00  0.00    -0.163 C  
ENDBRANCH   8   9
ENDBRANCH   3   8
BRANCH   5  13
HETATM   13  C   UNL     3      -9.121  18.788  67.685  1.00  0.00    -0.304 C  
BRANCH  13  14
HETATM   14  C   UNL     3      -7.626  18.834  67.470  1.00  0.00    -0.243 C  
HETATM   15  C   UNL     3      -7.143  20.165  68.014  1.00  0.00    -0.284 C  
HETATM   16  O   UNL     3      -6.581  20.092  69.134  1.00  0.00    -0.311 OA 
HETATM   17  O   UNL     3      -7.372  21.136  67.243  1.00  0.00    -0.430 OA 
ENDBRANCH  13  14
ENDBRANCH   5  13
TORSDOF 4
ENDMDL
MODEL      100
REMARK 921   NORMALIZED FREE ENERGY PREDICTED BY IDOCK:   -4.38 KCAL/MOL
REMARK 922        TOTAL FREE ENERGY PREDICTED BY IDOCK:   -5.77 KCAL/MOL
REMARK 923 INTER-LIGAND FREE ENERGY PREDICTED BY IDOCK:   -5.28 KCAL/MOL
REMARK 924 INTRA-LIGAND FREE ENERGY PREDICTED BY IDOCK:   -0.49 KCAL/MOL
REMARK 927      BINDING AFFINITY PREDICTED BY RF-SCORE:    0.00 PKD
ROOT
HETATM    1 CA   UNL     1      -8.054  12.125  68.386  1.00  0.00    -0.110 Ca 
HETATM    2  C   UNL     2      -8.970   8.702  70.569  1.00  0.00    -0.185 C  
HETATM    3  C   UNL     2      -9.804   9.860  70.105  1.00  0.00    -0.219 C  
HETATM    4  C   UNL     3     -10.530  14.096  66.302  1.00  0.00    -0.286 C  
HETATM    5  C   UNL     3     -10.657  13.904  67.780  1.00  0.00    -0.246 C  
HETATM    6  O   UNL     3      -9.645  13.538  68.410  1.00  0.00    -0.217 OA 
HETATM    7  O   UNL     2      -9.309  10.643  69.277  1.00  0.00    -0.187 OA 
ENDROOT
BRANCH   3   8
HETATM    8  C   UNL     2     -11.187  10.040  70.669  1.00  0.00    -0.425 C  
BRANCH   8   9
HETATM    9  C   UNL     2     -11.909   8.710  70.782  1.00  0.00    -0.197 C  
HETATM   10  O   UNL     2     -13.365   9.236  72.522  1.00  0.00    -0.457 OA 
HETATM   11  O   UNL     2     -11.496   7.966  72.955  1.00  0.00    -0.383 OA 
HETATM   12  C   UNL     2     -12.306   8.617  72.245  1.00  0.00    -0.382 C  
ENDBRANCH   8   9
ENDBRANCH   3   8
BRANCH   5  13
HETATM   13  C   UNL     3     -12.016  14.047  68.421  1.00  0.00    -0.378 C  
BRANCH  13  14
HETATM   14  C   UNL     3     -11.869  13.982  69.925  1.00  0.00    -0.393 C  
HETATM   15  C   UNL     3     -12.134  15.378  70.454  1.00  0.00    -0.372 C  
HETATM   16  O   UNL     3     -13.269  15.529  70.969  1.00  0.00    -0.498 OA 
HETATM   17  O   UNL     3     -11.160  16.165  70.306  1.00  0.00    -0.348 OA 
ENDBRANCH  13  14
ENDBRANCH   5  13
TORSDOF 4
ENDMDL
MODEL      101
REMARK 921   NORMALIZED FREE ENERGY PREDICTED BY IDOCK:   -4.37 KCAL/MOL
REMARK 922        TOTAL FREE ENERGY PREDICTED BY IDOCK:   -5.75 KCAL/MOL
REMARK 923 INTER-LIGAND FREE ENERGY PREDICTED BY IDOCK:   -5.38 KCAL/MOL
REMARK 924 INTRA-LIGAND FREE ENERGY PREDICTED BY IDOCK:   -0.37 KCAL/MOL
REMARK 927      BINDING AFFINITY PREDICTED BY RF-SCORE:    0.00 PKD
ROOT
HETATM    1 CA   UNL     1     -13.009  12.055  70.870  1.00  0.00    -0.305 Ca 
HETATM    2  C   UNL     2     -11.760  12.910  66.994  1.00  0.00    -0.447 C  
HETATM    3  C   UNL     2     -11.746  11.648  67.806  1.00  0.00    -0.245 C  
HETATM    4  C   UNL     3     -14.046   8.627  72.109  1.00  0.00    -0.511 C  
HETATM    5  C   UNL     3     -12.681   8.942  71.586  1.00  0.00    -0.349 C  
HETATM    6  O   UNL     3     -12.343  10.141  71.520  1.00  0.00    -0.372 OA 
HETATM    7  O   UNL     2     -12.386  11.631  68.871  1.00  0.00    -0.355 OA 
ENDROOT
BRANCH   3   8
HETATM    8  C   UNL     2     -10.946  10.471  67.319  1.00  0.00    -0.325 C  
BRANCH   8   9
HETATM    9  C   UNL     2      -9.734  10.924  66.526  1.00  0.00    -0.235 C  
HETATM   10  O   UNL     2     -10.637  10.802  64.383  1.00  0.00    -0.347 OA 
HETATM   11  O   UNL     2      -9.220   9.142  65.111  1.00  0.00    -0.219 OA 
HETATM   12  C   UNL     2      -9.868  10.218  65.189  1.00  0.00    -0.321 C  
ENDBRANCH   8   9
ENDBRANCH   3   8
BRANCH   5  13
HETATM   13  C   UNL     3     -11.822   7.817  71.058  1.00  0.00    -0.290 C  
BRANCH  13  14
HETATM   14  C   UNL     3     -12.085   6.567  71.866  1.00  0.00    -0.388 C  
HETATM   15  C   UNL     3     -10.770   6.178  72.514  1.00  0.00    -0.224 C  
HETATM   16  O   UNL     3     -10.688   6.470  73.732  1.00  0.00    -0.283 OA 
HETATM   17  O   UNL     3      -9.971   5.604  71.725  1.00  0.00    -0.168 OA 
ENDBRANCH  13  14
ENDBRANCH   5  13
TORSDOF 4
ENDMDL
MODEL      102
REMARK 921   NORMALIZED FREE ENERGY PREDICTED BY IDOCK:   -4.36 KCAL/MOL
REMARK 922        TOTAL FREE ENERGY PREDICTED BY IDOCK:   -5.75 KCAL/MOL
REMARK 923 INTER-LIGAND FREE ENERGY PREDICTED BY IDOCK:   -5.32 KCAL/MOL
REMARK 924 INTRA-LIGAND FREE ENERGY PREDICTED BY IDOCK:   -0.43 KCAL/MOL
REMARK 927      BINDING AFFINITY PREDICTED BY RF-SCORE:    0.00 PKD
ROOT
HETATM    1 CA   UNL     1      -6.469  14.370  68.580  1.00  0.00    -0.077 Ca 
HETATM    2  C   UNL     2      -6.409  18.489  69.171  1.00  0.00    -0.264 C  
HETATM    3  C   UNL     2      -7.328  17.592  68.397  1.00  0.00    -0.230 C  
HETATM    4  C   UNL     3      -9.558  12.346  67.734  1.00  0.00    -0.202 C  
HETATM    5  C   UNL     3      -9.015  13.434  66.864  1.00  0.00    -0.209 C  
HETATM    6  O   UNL     3      -7.839  13.802  67.054  1.00  0.00    -0.071 OA 
HETATM    7  O   UNL     2      -7.234  16.365  68.573  1.00  0.00    -0.155 OA 
ENDROOT
BRANCH   3   8
HETATM    8  C   UNL     2      -8.306  18.202  67.430  1.00  0.00    -0.239 C  
BRANCH   8   9
HETATM    9  C   UNL     2      -9.737  17.955  67.870  1.00  0.00    -0.288 C  
HETATM   10  O   UNL     2     -10.785  19.640  66.651  1.00  0.00    -0.465 OA 
HETATM   11  O   UNL     2     -10.415  19.935  68.902  1.00  0.00    -0.329 OA 
HETATM   12  C   UNL     2     -10.395  19.322  67.803  1.00  0.00    -0.429 C  
ENDBRANCH   8   9
ENDBRANCH   3   8
BRANCH   5  13
HETATM   13  C   UNL     3      -9.938  14.112  65.879  1.00  0.00    -0.331 C  
BRANCH  13  14
HETATM   14  C   UNL     3     -10.409  13.102  64.858  1.00  0.00    -0.352 C  
HETATM   15  C   UNL     3     -11.925  13.133  64.875  1.00  0.00    -0.388 C  
HETATM   16  O   UNL     3     -12.441  13.754  63.914  1.00  0.00    -0.695 OA 
HETATM   17  O   UNL     3     -12.429  12.511  65.850  1.00  0.00    -0.596 OA 
ENDBRANCH  13  14
ENDBRANCH   5  13
TORSDOF 4
ENDMDL
MODEL      103
REMARK 921   NORMALIZED FREE ENERGY PREDICTED BY IDOCK:   -4.36 KCAL/MOL
REMARK 922        TOTAL FREE ENERGY PREDICTED BY IDOCK:   -5.74 KCAL/MOL
REMARK 923 INTER-LIGAND FREE ENERGY PREDICTED BY IDOCK:   -5.30 KCAL/MOL
REMARK 924 INTRA-LIGAND FREE ENERGY PREDICTED BY IDOCK:   -0.44 KCAL/MOL
REMARK 927      BINDING AFFINITY PREDICTED BY RF-SCORE:    0.00 PKD
ROOT
HETATM    1 CA   UNL     1     -11.013  11.939  70.424  1.00  0.00    -0.457 Ca 
HETATM    2  C   UNL     2     -11.994  14.678  67.449  1.00  0.00    -0.309 C  
HETATM    3  C   UNL     2     -11.563  13.242  67.400  1.00  0.00    -0.353 C  
HETATM    4  C   UNL     3     -11.270   8.174  70.077  1.00  0.00    -0.084 C  
HETATM    5  C   UNL     3     -10.384   9.028  69.226  1.00  0.00    -0.219 C  
HETATM    6  O   UNL     3     -10.121  10.178  69.627  1.00  0.00    -0.218 OA 
HETATM    7  O   UNL     2     -11.545  12.600  68.463  1.00  0.00    -0.278 OA 
ENDROOT
BRANCH   3   8
HETATM    8  C   UNL     2     -11.153  12.644  66.081  1.00  0.00    -0.327 C  
BRANCH   8   9
HETATM    9  C   UNL     2     -12.361  12.374  65.204  1.00  0.00    -0.403 C  
HETATM   10  O   UNL     2     -11.322  12.456  63.122  1.00  0.00    -0.386 OA 
HETATM   11  O   UNL     2     -12.565  14.254  63.838  1.00  0.00    -0.787 OA 
HETATM   12  C   UNL     2     -12.060  13.104  63.907  1.00  0.00    -0.470 C  
ENDBRANCH   8   9
ENDBRANCH   3   8
BRANCH   5  13
HETATM   13  C   UNL     3      -9.944   8.508  67.878  1.00  0.00    -0.225 C  
BRANCH  13  14
HETATM   14  C   UNL     3     -10.344   9.496  66.806  1.00  0.00    -0.298 C  
HETATM   15  C   UNL     3      -9.129   9.704  65.923  1.00  0.00    -0.178 C  
HETATM   16  O   UNL     3      -9.177   9.098  64.825  1.00  0.00    -0.174 OA 
HETATM   17  O   UNL     3      -8.265  10.471  66.430  1.00  0.00    -0.130 OA 
ENDBRANCH  13  14
ENDBRANCH   5  13
TORSDOF 4
ENDMDL
MODEL      104
REMARK 921   NORMALIZED FREE ENERGY PREDICTED BY IDOCK:   -4.35 KCAL/MOL
REMARK 922        TOTAL FREE ENERGY PREDICTED BY IDOCK:   -5.73 KCAL/MOL
REMARK 923 INTER-LIGAND FREE ENERGY PREDICTED BY IDOCK:   -5.25 KCAL/MOL
REMARK 924 INTRA-LIGAND FREE ENERGY PREDICTED BY IDOCK:   -0.48 KCAL/MOL
REMARK 927      BINDING AFFINITY PREDICTED BY RF-SCORE:    0.00 PKD
ROOT
HETATM    1 CA   UNL     1      -9.591   6.779  68.559  1.00  0.00    -0.131 Ca 
HETATM    2  C   UNL     2     -11.991   6.945  71.955  1.00  0.00    -0.363 C  
HETATM    3  C   UNL     2     -11.476   8.006  71.027  1.00  0.00    -0.279 C  
HETATM    4  C   UNL     3      -9.585   9.354  65.779  1.00  0.00    -0.340 C  
HETATM    5  C   UNL     3      -9.224   9.663  67.197  1.00  0.00    -0.134 C  
HETATM    6  O   UNL     3      -8.937   8.710  67.948  1.00  0.00    -0.139 OA 
HETATM    7  O   UNL     2     -10.954   7.645  69.959  1.00  0.00    -0.255 OA 
ENDROOT
BRANCH   3   8
HETATM    8  C   UNL     2     -11.592   9.451  71.429  1.00  0.00    -0.451 C  
BRANCH   8   9
HETATM    9  C   UNL     2     -12.862  10.072  70.878  1.00  0.00    -0.408 C  
HETATM   10  O   UNL     2     -12.014  12.156  70.280  1.00  0.00    -0.348 OA 
HETATM   11  O   UNL     2     -13.258  11.950  72.204  1.00  0.00    -0.494 OA 
HETATM   12  C   UNL     2     -12.704  11.558  71.144  1.00  0.00    -0.356 C  
ENDBRANCH   8   9
ENDBRANCH   3   8
BRANCH   5  13
HETATM   13  C   UNL     3      -9.333  11.088  67.686  1.00  0.00    -0.162 C  
BRANCH  13  14
HETATM   14  C   UNL     3      -9.737  11.982  66.535  1.00  0.00    -0.230 C  
HETATM   15  C   UNL     3     -10.958  12.758  66.988  1.00  0.00    -0.263 C  
HETATM   16  O   UNL     3     -10.724  13.948  67.311  1.00  0.00    -0.280 OA 
HETATM   17  O   UNL     3     -12.024  12.085  66.952  1.00  0.00    -0.612 OA 
ENDBRANCH  13  14
ENDBRANCH   5  13
TORSDOF 4
ENDMDL
MODEL      105
REMARK 921   NORMALIZED FREE ENERGY PREDICTED BY IDOCK:   -4.33 KCAL/MOL
REMARK 922        TOTAL FREE ENERGY PREDICTED BY IDOCK:   -5.71 KCAL/MOL
REMARK 923 INTER-LIGAND FREE ENERGY PREDICTED BY IDOCK:   -5.20 KCAL/MOL
REMARK 924 INTRA-LIGAND FREE ENERGY PREDICTED BY IDOCK:   -0.51 KCAL/MOL
REMARK 927      BINDING AFFINITY PREDICTED BY RF-SCORE:    0.00 PKD
ROOT
HETATM    1 CA   UNL     1     -11.369   9.014  70.452  1.00  0.00    -0.230 Ca 
HETATM    2  C   UNL     2     -12.284  13.071  70.287  1.00  0.00    -0.368 C  
HETATM    3  C   UNL     2     -11.735  12.115  69.269  1.00  0.00    -0.328 C  
HETATM    4  C   UNL     3     -11.284   6.686  67.463  1.00  0.00    -0.276 C  
HETATM    5  C   UNL     3     -10.394   7.879  67.612  1.00  0.00    -0.241 C  
HETATM    6  O   UNL     3     -10.265   8.374  68.749  1.00  0.00    -0.199 OA 
HETATM    7  O   UNL     2     -11.765  10.901  69.530  1.00  0.00    -0.275 OA 
ENDROOT
BRANCH   3   8
HETATM    8  C   UNL     2     -11.154  12.658  67.991  1.00  0.00    -0.288 C  
BRANCH   8   9
HETATM    9  C   UNL     2     -12.029  13.758  67.418  1.00  0.00    -0.423 C  
HETATM   10  O   UNL     2     -12.730  12.683  65.474  1.00  0.00    -0.597 OA 
HETATM   11  O   UNL     2     -11.082  14.284  65.351  1.00  0.00    -0.305 OA 
HETATM   12  C   UNL     2     -11.946  13.563  65.914  1.00  0.00    -0.406 C  
ENDBRANCH   8   9
ENDBRANCH   3   8
BRANCH   5  13
HETATM   13  C   UNL     3      -9.787   8.497  66.374  1.00  0.00    -0.327 C  
BRANCH  13  14
HETATM   14  C   UNL     3     -10.324   9.899  66.201  1.00  0.00    -0.223 C  
HETATM   15  C   UNL     3      -9.606  10.502  65.010  1.00  0.00    -0.276 C  
HETATM   16  O   UNL     3     -10.288  10.536  63.956  1.00  0.00    -0.289 OA 
HETATM   17  O   UNL     3      -8.435  10.891  65.273  1.00  0.00    -0.151 OA 
ENDBRANCH  13  14
ENDBRANCH   5  13
TORSDOF 4
ENDMDL
MODEL      106
REMARK 921   NORMALIZED FREE ENERGY PREDICTED BY IDOCK:   -4.31 KCAL/MOL
REMARK 922        TOTAL FREE ENERGY PREDICTED BY IDOCK:   -5.68 KCAL/MOL
REMARK 923 INTER-LIGAND FREE ENERGY PREDICTED BY IDOCK:   -5.30 KCAL/MOL
REMARK 924 INTRA-LIGAND FREE ENERGY PREDICTED BY IDOCK:   -0.38 KCAL/MOL
REMARK 927      BINDING AFFINITY PREDICTED BY RF-SCORE:    0.00 PKD
ROOT
HETATM    1 CA   UNL     1     -12.988  15.061  65.056  1.00  0.00    -0.333 Ca 
HETATM    2  C   UNL     2     -10.477  18.249  65.978  1.00  0.00    -0.380 C  
HETATM    3  C   UNL     2     -10.231  16.776  65.838  1.00  0.00    -0.328 C  
HETATM    4  C   UNL     3     -11.862  11.789  63.513  1.00  0.00    -0.481 C  
HETATM    5  C   UNL     3     -11.388  12.286  64.841  1.00  0.00    -0.325 C  
HETATM    6  O   UNL     3     -12.052  13.181  65.400  1.00  0.00    -0.380 OA 
HETATM    7  O   UNL     2     -11.130  16.078  65.338  1.00  0.00    -0.258 OA 
ENDROOT
BRANCH   3   8
HETATM    8  C   UNL     2      -8.929  16.200  66.323  1.00  0.00    -0.379 C  
BRANCH   8   9
HETATM    9  C   UNL     2      -8.112  17.243  67.063  1.00  0.00    -0.237 C  
HETATM   10  O   UNL     2      -7.003  18.188  65.247  1.00  0.00    -0.484 OA 
HETATM   11  O   UNL     2      -5.884  16.716  66.615  1.00  0.00    -0.320 OA 
HETATM   12  C   UNL     2      -6.858  17.410  66.223  1.00  0.00    -0.272 C  
ENDBRANCH   8   9
ENDBRANCH   3   8
BRANCH   5  13
HETATM   13  C   UNL     3     -10.078  11.772  65.389  1.00  0.00    -0.291 C  
BRANCH  13  14
HETATM   14  C   UNL     3     -10.288  11.273  66.801  1.00  0.00    -0.278 C  
HETATM   15  C   UNL     3      -9.627   9.912  66.890  1.00  0.00    -0.179 C  
HETATM   16  O   UNL     3      -8.518   9.913  67.478  1.00  0.00    -0.115 OA 
HETATM   17  O   UNL     3     -10.308   8.987  66.369  1.00  0.00    -0.261 OA 
ENDBRANCH  13  14
ENDBRANCH   5  13
TORSDOF 4
ENDMDL
MODEL      107
REMARK 921   NORMALIZED FREE ENERGY PREDICTED BY IDOCK:   -4.30 KCAL/MOL
REMARK 922        TOTAL FREE ENERGY PREDICTED BY IDOCK:   -5.67 KCAL/MOL
REMARK 923 INTER-LIGAND FREE ENERGY PREDICTED BY IDOCK:   -5.45 KCAL/MOL
REMARK 924 INTRA-LIGAND FREE ENERGY PREDICTED BY IDOCK:   -0.22 KCAL/MOL
REMARK 927      BINDING AFFINITY PREDICTED BY RF-SCORE:    0.00 PKD
ROOT
HETATM    1 CA   UNL     1     -11.746  16.333  63.719  1.00  0.00    -0.616 Ca 
HETATM    2  C   UNL     2     -10.669  20.061  65.225  1.00  0.00     0.015 C  
HETATM    3  C   UNL     2     -10.767  18.704  65.857  1.00  0.00    -0.227 C  
HETATM    4  C   UNL     3     -10.637  13.009  65.160  1.00  0.00    -0.327 C  
HETATM    5  C   UNL     3     -11.449  14.012  65.916  1.00  0.00    -0.330 C  
HETATM    6  O   UNL     3     -12.034  14.900  65.266  1.00  0.00    -0.284 OA 
HETATM    7  O   UNL     2     -10.907  17.719  65.112  1.00  0.00    -0.671 OA 
ENDROOT
BRANCH   3   8
HETATM    8  C   UNL     2     -10.715  18.588  67.356  1.00  0.00    -0.424 C  
BRANCH   8   9
HETATM    9  C   UNL     2      -9.899  19.715  67.963  1.00  0.00    -0.524 C  
HETATM   10  O   UNL     2      -7.904  19.377  66.811  1.00  0.00    -0.249 OA 
HETATM   11  O   UNL     2      -8.082  18.676  68.995  1.00  0.00    -0.244 OA 
HETATM   12  C   UNL     2      -8.467  19.212  67.923  1.00  0.00    -0.300 C  
ENDBRANCH   8   9
ENDBRANCH   3   8
BRANCH   5  13
HETATM   13  C   UNL     3     -11.434  13.976  67.426  1.00  0.00    -0.373 C  
BRANCH  13  14
HETATM   14  C   UNL     3     -10.014  13.786  67.908  1.00  0.00    -0.240 C  
HETATM   15  C   UNL     3      -9.436  15.170  68.130  1.00  0.00    -0.201 C  
HETATM   16  O   UNL     3      -9.377  15.519  69.334  1.00  0.00    -0.254 OA 
HETATM   17  O   UNL     3      -9.089  15.747  67.063  1.00  0.00    -0.202 OA 
ENDBRANCH  13  14
ENDBRANCH   5  13
TORSDOF 4
ENDMDL
MODEL      108
REMARK 921   NORMALIZED FREE ENERGY PREDICTED BY IDOCK:   -4.30 KCAL/MOL
REMARK 922        TOTAL FREE ENERGY PREDICTED BY IDOCK:   -5.67 KCAL/MOL
REMARK 923 INTER-LIGAND FREE ENERGY PREDICTED BY IDOCK:   -5.09 KCAL/MOL
REMARK 924 INTRA-LIGAND FREE ENERGY PREDICTED BY IDOCK:   -0.59 KCAL/MOL
REMARK 927      BINDING AFFINITY PREDICTED BY RF-SCORE:    0.00 PKD
ROOT
HETATM    1 CA   UNL     1      -8.115  13.969  68.103  1.00  0.00    -0.107 Ca 
HETATM    2  C   UNL     2      -6.258  10.402  67.033  1.00  0.00    -0.067 C  
HETATM    3  C   UNL     2      -7.587  10.998  66.674  1.00  0.00    -0.146 C  
HETATM    4  C   UNL     3     -10.767  15.734  66.052  1.00  0.00    -0.311 C  
HETATM    5  C   UNL     3     -10.932  14.358  66.614  1.00  0.00    -0.318 C  
HETATM    6  O   UNL     3     -10.165  14.006  67.531  1.00  0.00    -0.241 OA 
HETATM    7  O   UNL     2      -7.794  12.187  66.968  1.00  0.00    -0.163 OA 
ENDROOT
BRANCH   3   8
HETATM    8  C   UNL     2      -8.618  10.136  65.998  1.00  0.00    -0.150 C  
BRANCH   8   9
HETATM    9  C   UNL     2      -9.966  10.254  66.685  1.00  0.00    -0.270 C  
HETATM   10  O   UNL     2      -9.530   8.946  68.561  1.00  0.00    -0.146 OA 
HETATM   11  O   UNL     2     -10.776   8.072  66.836  1.00  0.00    -0.322 OA 
HETATM   12  C   UNL     2     -10.118   8.951  67.450  1.00  0.00    -0.227 C  
ENDBRANCH   8   9
ENDBRANCH   3   8
BRANCH   5  13
HETATM   13  C   UNL     3     -11.934  13.423  65.977  1.00  0.00    -0.460 C  
BRANCH  13  14
HETATM   14  C   UNL     3     -12.142  13.821  64.534  1.00  0.00    -0.463 C  
HETATM   15  C   UNL     3     -11.886  12.584  63.695  1.00  0.00    -0.530 C  
HETATM   16  O   UNL     3     -12.926  12.019  63.276  1.00  0.00    -0.736 OA 
HETATM   17  O   UNL     3     -10.661  12.328  63.538  1.00  0.00    -0.429 OA 
ENDBRANCH  13  14
ENDBRANCH   5  13
TORSDOF 4
ENDMDL
MODEL      109
REMARK 921   NORMALIZED FREE ENERGY PREDICTED BY IDOCK:   -4.29 KCAL/MOL
REMARK 922        TOTAL FREE ENERGY PREDICTED BY IDOCK:   -5.65 KCAL/MOL
REMARK 923 INTER-LIGAND FREE ENERGY PREDICTED BY IDOCK:   -5.26 KCAL/MOL
REMARK 924 INTRA-LIGAND FREE ENERGY PREDICTED BY IDOCK:   -0.40 KCAL/MOL
REMARK 927      BINDING AFFINITY PREDICTED BY RF-SCORE:    0.00 PKD
ROOT
HETATM    1 CA   UNL     1      -7.224  15.681  68.264  1.00  0.00    -0.103 Ca 
HETATM    2  C   UNL     2      -6.878  11.698  67.109  1.00  0.00    -0.143 C  
HETATM    3  C   UNL     2      -8.035  12.508  67.614  1.00  0.00    -0.170 C  
HETATM    4  C   UNL     3     -10.438  17.687  68.201  1.00  0.00    -0.386 C  
HETATM    5  C   UNL     3     -10.242  16.459  69.031  1.00  0.00    -0.269 C  
HETATM    6  O   UNL     3      -9.075  16.073  69.238  1.00  0.00    -0.246 OA 
HETATM    7  O   UNL     2      -7.903  13.742  67.677  1.00  0.00    -0.149 OA 
ENDROOT
BRANCH   3   8
HETATM    8  C   UNL     2      -9.294  11.803  68.042  1.00  0.00    -0.184 C  
BRANCH   8   9
HETATM    9  C   UNL     2     -10.481  12.747  68.030  1.00  0.00    -0.233 C  
HETATM   10  O   UNL     2     -12.183  11.193  68.360  1.00  0.00    -0.610 OA 
HETATM   11  O   UNL     2     -11.816  12.039  66.252  1.00  0.00    -0.563 OA 
HETATM   12  C   UNL     2     -11.627  11.910  67.490  1.00  0.00    -0.304 C  
ENDBRANCH   8   9
ENDBRANCH   3   8
BRANCH   5  13
HETATM   13  C   UNL     3     -11.456  15.681  69.484  1.00  0.00    -0.349 C  
BRANCH  13  14
HETATM   14  C   UNL     3     -11.295  15.306  70.940  1.00  0.00    -0.380 C  
HETATM   15  C   UNL     3     -12.641  14.795  71.414  1.00  0.00    -0.326 C  
HETATM   16  O   UNL     3     -12.715  13.545  71.511  1.00  0.00    -0.352 OA 
HETATM   17  O   UNL     3     -13.472  15.713  71.653  1.00  0.00    -0.490 OA 
ENDBRANCH  13  14
ENDBRANCH   5  13
TORSDOF 4
ENDMDL
MODEL      110
REMARK 921   NORMALIZED FREE ENERGY PREDICTED BY IDOCK:   -4.28 KCAL/MOL
REMARK 922        TOTAL FREE ENERGY PREDICTED BY IDOCK:   -5.65 KCAL/MOL
REMARK 923 INTER-LIGAND FREE ENERGY PREDICTED BY IDOCK:   -5.25 KCAL/MOL
REMARK 924 INTRA-LIGAND FREE ENERGY PREDICTED BY IDOCK:   -0.40 KCAL/MOL
REMARK 927      BINDING AFFINITY PREDICTED BY RF-SCORE:    0.00 PKD
ROOT
HETATM    1 CA   UNL     1     -13.733  10.305  69.451  1.00  0.00    -0.489 Ca 
HETATM    2  C   UNL     2     -12.035  12.862  66.641  1.00  0.00    -0.436 C  
HETATM    3  C   UNL     2     -11.437  11.964  67.683  1.00  0.00    -0.317 C  
HETATM    4  C   UNL     3     -12.008   7.285  70.957  1.00  0.00    -0.362 C  
HETATM    5  C   UNL     3     -11.511   8.687  71.110  1.00  0.00    -0.280 C  
HETATM    6  O   UNL     3     -12.305   9.618  70.872  1.00  0.00    -0.299 OA 
HETATM    7  O   UNL     2     -12.180  11.142  68.244  1.00  0.00    -0.613 OA 
ENDROOT
BRANCH   3   8
HETATM    8  C   UNL     2      -9.978  12.105  68.022  1.00  0.00    -0.203 C  
BRANCH   8   9
HETATM    9  C   UNL     2      -9.344  13.246  67.249  1.00  0.00    -0.226 C  
HETATM   10  O   UNL     2      -7.779  13.930  68.831  1.00  0.00    -0.118 OA 
HETATM   11  O   UNL     2      -9.709  15.150  68.548  1.00  0.00    -0.202 OA 
HETATM   12  C   UNL     2      -8.888  14.223  68.318  1.00  0.00    -0.185 C  
ENDBRANCH   8   9
ENDBRANCH   3   8
BRANCH   5  13
HETATM   13  C   UNL     3     -10.052   8.915  71.430  1.00  0.00    -0.379 C  
BRANCH  13  14
HETATM   14  C   UNL     3      -9.449   7.631  71.954  1.00  0.00    -0.183 C  
HETATM   15  C   UNL     3      -9.406   7.750  73.465  1.00  0.00    -0.290 C  
HETATM   16  O   UNL     3     -10.304   7.106  74.061  1.00  0.00    -0.349 OA 
HETATM   17  O   UNL     3      -8.459   8.468  73.886  1.00  0.00    -0.320 OA 
ENDBRANCH  13  14
ENDBRANCH   5  13
TORSDOF 4
ENDMDL
MODEL      111
REMARK 921   NORMALIZED FREE ENERGY PREDICTED BY IDOCK:   -4.28 KCAL/MOL
REMARK 922        TOTAL FREE ENERGY PREDICTED BY IDOCK:   -5.65 KCAL/MOL
REMARK 923 INTER-LIGAND FREE ENERGY PREDICTED BY IDOCK:   -5.34 KCAL/MOL
REMARK 924 INTRA-LIGAND FREE ENERGY PREDICTED BY IDOCK:   -0.31 KCAL/MOL
REMARK 927      BINDING AFFINITY PREDICTED BY RF-SCORE:    0.00 PKD
ROOT
HETATM    1 CA   UNL     1      -7.870  10.797  69.385  1.00  0.00    -0.098 Ca 
HETATM    2  C   UNL     2      -9.367   8.368  72.415  1.00  0.00    -0.356 C  
HETATM    3  C   UNL     2     -10.037   9.205  71.366  1.00  0.00    -0.322 C  
HETATM    4  C   UNL     3      -9.714  11.665  66.191  1.00  0.00    -0.253 C  
HETATM    5  C   UNL     3     -10.206  12.025  67.557  1.00  0.00    -0.198 C  
HETATM    6  O   UNL     3      -9.389  11.995  68.498  1.00  0.00    -0.191 OA 
HETATM    7  O   UNL     2      -9.337   9.661  70.446  1.00  0.00    -0.251 OA 
ENDROOT
BRANCH   3   8
HETATM    8  C   UNL     2     -11.512   9.478  71.477  1.00  0.00    -0.466 C  
BRANCH   8   9
HETATM    9  C   UNL     2     -12.194   8.444  72.353  1.00  0.00    -0.430 C  
HETATM   10  O   UNL     2     -12.233   6.666  70.849  1.00  0.00    -0.368 OA 
HETATM   11  O   UNL     2     -14.155   7.874  71.224  1.00  0.00    -0.326 OA 
HETATM   12  C   UNL     2     -12.947   7.556  71.377  1.00  0.00    -0.335 C  
ENDBRANCH   8   9
ENDBRANCH   3   8
BRANCH   5  13
HETATM   13  C   UNL     3     -11.679  12.293  67.756  1.00  0.00    -0.403 C  
BRANCH  13  14
HETATM   14  C   UNL     3     -12.079  13.507  66.950  1.00  0.00    -0.417 C  
HETATM   15  C   UNL     3     -11.390  14.702  67.579  1.00  0.00    -0.348 C  
HETATM   16  O   UNL     3     -10.382  15.108  66.950  1.00  0.00    -0.263 OA 
HETATM   17  O   UNL     3     -11.951  15.109  68.632  1.00  0.00    -0.315 OA 
ENDBRANCH  13  14
ENDBRANCH   5  13
TORSDOF 4
ENDMDL
MODEL      112
REMARK 921   NORMALIZED FREE ENERGY PREDICTED BY IDOCK:   -4.27 KCAL/MOL
REMARK 922        TOTAL FREE ENERGY PREDICTED BY IDOCK:   -5.63 KCAL/MOL
REMARK 923 INTER-LIGAND FREE ENERGY PREDICTED BY IDOCK:   -5.14 KCAL/MOL
REMARK 924 INTRA-LIGAND FREE ENERGY PREDICTED BY IDOCK:   -0.49 KCAL/MOL
REMARK 927      BINDING AFFINITY PREDICTED BY RF-SCORE:    0.00 PKD
ROOT
HETATM    1 CA   UNL     1     -12.689  16.174  68.562  1.00  0.00    -0.503 Ca 
HETATM    2  C   UNL     2     -10.032  19.356  68.928  1.00  0.00    -0.519 C  
HETATM    3  C   UNL     2      -9.900  17.994  68.313  1.00  0.00    -0.355 C  
HETATM    4  C   UNL     3     -12.513  13.498  65.885  1.00  0.00    -0.484 C  
HETATM    5  C   UNL     3     -11.433  13.738  66.891  1.00  0.00    -0.347 C  
HETATM    6  O   UNL     3     -11.720  14.395  67.911  1.00  0.00    -0.325 OA 
HETATM    7  O   UNL     2     -10.933  17.322  68.154  1.00  0.00    -0.347 OA 
ENDROOT
BRANCH   3   8
HETATM    8  C   UNL     2      -8.534  17.488  67.936  1.00  0.00    -0.230 C  
BRANCH   8   9
HETATM    9  C   UNL     2      -8.336  17.520  66.432  1.00  0.00    -0.297 C  
HETATM   10  O   UNL     2      -6.312  18.669  66.360  1.00  0.00    -0.178 OA 
HETATM   11  O   UNL     2      -8.263  19.783  65.868  1.00  0.00    -0.347 OA 
HETATM   12  C   UNL     2      -7.549  18.795  66.180  1.00  0.00    -0.258 C  
ENDBRANCH   8   9
ENDBRANCH   3   8
BRANCH   5  13
HETATM   13  C   UNL     3     -10.028  13.278  66.579  1.00  0.00    -0.280 C  
BRANCH  13  14
HETATM   14  C   UNL     3      -9.384  12.749  67.840  1.00  0.00    -0.208 C  
HETATM   15  C   UNL     3      -8.184  13.632  68.125  1.00  0.00    -0.158 C  
HETATM   16  O   UNL     3      -8.365  14.470  69.042  1.00  0.00    -0.140 OA 
HETATM   17  O   UNL     3      -7.185  13.371  67.402  1.00  0.00    -0.163 OA 
ENDBRANCH  13  14
ENDBRANCH   5  13
TORSDOF 4
ENDMDL
MODEL      113
REMARK 921   NORMALIZED FREE ENERGY PREDICTED BY IDOCK:   -4.25 KCAL/MOL
REMARK 922        TOTAL FREE ENERGY PREDICTED BY IDOCK:   -5.61 KCAL/MOL
REMARK 923 INTER-LIGAND FREE ENERGY PREDICTED BY IDOCK:   -5.00 KCAL/MOL
REMARK 924 INTRA-LIGAND FREE ENERGY PREDICTED BY IDOCK:   -0.61 KCAL/MOL
REMARK 927      BINDING AFFINITY PREDICTED BY RF-SCORE:    0.00 PKD
ROOT
HETATM    1 CA   UNL     1     -11.708  15.628  64.984  1.00  0.00    -0.336 Ca 
HETATM    2  C   UNL     2     -10.531  17.647  68.427  1.00  0.00    -0.360 C  
HETATM    3  C   UNL     2     -10.678  16.188  68.110  1.00  0.00    -0.315 C  
HETATM    4  C   UNL     3     -10.718  12.077  64.107  1.00  0.00    -0.405 C  
HETATM    5  C   UNL     3     -11.507  12.442  65.324  1.00  0.00    -0.344 C  
HETATM    6  O   UNL     3     -12.057  13.561  65.350  1.00  0.00    -0.368 OA 
HETATM    7  O   UNL     2     -10.840  15.861  66.923  1.00  0.00    -0.314 OA 
ENDROOT
BRANCH   3   8
HETATM    8  C   UNL     2     -10.645  15.187  69.233  1.00  0.00    -0.253 C  
BRANCH   8   9
HETATM    9  C   UNL     2     -11.927  14.376  69.279  1.00  0.00    -0.362 C  
HETATM   10  O   UNL     2     -13.125  15.682  70.790  1.00  0.00    -0.477 OA 
HETATM   11  O   UNL     2     -12.161  13.720  71.506  1.00  0.00    -0.267 OA 
HETATM   12  C   UNL     2     -12.475  14.612  70.676  1.00  0.00    -0.344 C  
ENDBRANCH   8   9
ENDBRANCH   3   8
BRANCH   5  13
HETATM   13  C   UNL     3     -11.509  11.499  66.504  1.00  0.00    -0.178 C  
BRANCH  13  14
HETATM   14  C   UNL     3     -10.289  11.763  67.357  1.00  0.00    -0.228 C  
HETATM   15  C   UNL     3      -9.588  10.433  67.547  1.00  0.00    -0.156 C  
HETATM   16  O   UNL     3      -8.566  10.281  66.834  1.00  0.00    -0.126 OA 
HETATM   17  O   UNL     3     -10.136   9.693  68.408  1.00  0.00    -0.163 OA 
ENDBRANCH  13  14
ENDBRANCH   5  13
TORSDOF 4
ENDMDL
MODEL      114
REMARK 921   NORMALIZED FREE ENERGY PREDICTED BY IDOCK:   -4.24 KCAL/MOL
REMARK 922        TOTAL FREE ENERGY PREDICTED BY IDOCK:   -5.59 KCAL/MOL
REMARK 923 INTER-LIGAND FREE ENERGY PREDICTED BY IDOCK:   -4.98 KCAL/MOL
REMARK 924 INTRA-LIGAND FREE ENERGY PREDICTED BY IDOCK:   -0.62 KCAL/MOL
REMARK 927      BINDING AFFINITY PREDICTED BY RF-SCORE:    0.00 PKD
ROOT
HETATM    1 CA   UNL     1      -8.460  15.590  70.026  1.00  0.00    -0.229 Ca 
HETATM    2  C   UNL     2      -6.085  12.287  69.150  1.00  0.00    -0.083 C  
HETATM    3  C   UNL     2      -7.301  12.863  68.486  1.00  0.00    -0.115 C  
HETATM    4  C   UNL     3     -10.552  17.488  67.499  1.00  0.00    -0.333 C  
HETATM    5  C   UNL     3     -10.755  16.043  67.827  1.00  0.00    -0.323 C  
HETATM    6  O   UNL     3     -10.256  15.608  68.883  1.00  0.00    -0.198 OA 
HETATM    7  O   UNL     2      -7.681  13.992  68.840  1.00  0.00    -0.130 OA 
ENDROOT
BRANCH   3   8
HETATM    8  C   UNL     2      -8.020  12.053  67.442  1.00  0.00    -0.165 C  
BRANCH   8   9
HETATM    9  C   UNL     2      -9.523  12.128  67.632  1.00  0.00    -0.187 C  
HETATM   10  O   UNL     2      -9.808  10.266  69.001  1.00  0.00    -0.186 OA 
HETATM   11  O   UNL     2     -10.355  10.125  66.771  1.00  0.00    -0.223 OA 
HETATM   12  C   UNL     2      -9.955  10.685  67.825  1.00  0.00    -0.167 C  
ENDBRANCH   8   9
ENDBRANCH   3   8
BRANCH   5  13
HETATM   13  C   UNL     3     -11.451  15.156  66.822  1.00  0.00    -0.195 C  
BRANCH  13  14
HETATM   14  C   UNL     3     -10.621  15.083  65.561  1.00  0.00    -0.380 C  
HETATM   15  C   UNL     3     -11.493  15.592  64.430  1.00  0.00    -0.262 C  
HETATM   16  O   UNL     3     -11.231  16.763  64.061  1.00  0.00    -1.089 OA 
HETATM   17  O   UNL     3     -12.338  14.747  64.026  1.00  0.00    -0.712 OA 
ENDBRANCH  13  14
ENDBRANCH   5  13
TORSDOF 4
ENDMDL
MODEL      115
REMARK 921   NORMALIZED FREE ENERGY PREDICTED BY IDOCK:   -4.23 KCAL/MOL
REMARK 922        TOTAL FREE ENERGY PREDICTED BY IDOCK:   -5.59 KCAL/MOL
REMARK 923 INTER-LIGAND FREE ENERGY PREDICTED BY IDOCK:   -4.96 KCAL/MOL
REMARK 924 INTRA-LIGAND FREE ENERGY PREDICTED BY IDOCK:   -0.63 KCAL/MOL
REMARK 927      BINDING AFFINITY PREDICTED BY RF-SCORE:    0.00 PKD
ROOT
HETATM    1 CA   UNL     1     -11.550  14.065  63.239  1.00  0.00    -0.601 Ca 
HETATM    2  C   UNL     2     -10.458  17.245  65.693  1.00  0.00    -0.191 C  
HETATM    3  C   UNL     2     -10.315  15.758  65.839  1.00  0.00    -0.354 C  
HETATM    4  C   UNL     3      -9.910  10.649  63.258  1.00  0.00    -0.364 C  
HETATM    5  C   UNL     3     -10.614  11.238  64.438  1.00  0.00    -0.345 C  
HETATM    6  O   UNL     3     -11.390  12.193  64.239  1.00  0.00    -0.322 OA 
HETATM    7  O   UNL     2     -10.537  15.048  64.844  1.00  0.00    -0.409 OA 
ENDROOT
BRANCH   3   8
HETATM    8  C   UNL     2      -9.934  15.187  67.178  1.00  0.00    -0.237 C  
BRANCH   8   9
HETATM    9  C   UNL     2     -11.149  15.036  68.074  1.00  0.00    -0.304 C  
HETATM   10  O   UNL     2     -10.842  12.823  68.730  1.00  0.00    -0.242 OA 
HETATM   11  O   UNL     2     -12.410  13.319  67.122  1.00  0.00    -0.280 OA 
HETATM   12  C   UNL     2     -11.516  13.566  67.973  1.00  0.00    -0.307 C  
ENDBRANCH   8   9
ENDBRANCH   3   8
BRANCH   5  13
HETATM   13  C   UNL     3     -10.273  10.733  65.820  1.00  0.00    -0.319 C  
BRANCH  13  14
HETATM   14  C   UNL     3      -9.471   9.457  65.702  1.00  0.00    -0.328 C  
HETATM   15  C   UNL     3      -8.170   9.683  66.447  1.00  0.00    -0.119 C  
HETATM   16  O   UNL     3      -8.120   9.142  67.578  1.00  0.00    -0.103 OA 
HETATM   17  O   UNL     3      -7.333  10.371  65.800  1.00  0.00    -0.137 OA 
ENDBRANCH  13  14
ENDBRANCH   5  13
TORSDOF 4
ENDMDL
MODEL      116
REMARK 921   NORMALIZED FREE ENERGY PREDICTED BY IDOCK:   -4.23 KCAL/MOL
REMARK 922        TOTAL FREE ENERGY PREDICTED BY IDOCK:   -5.58 KCAL/MOL
REMARK 923 INTER-LIGAND FREE ENERGY PREDICTED BY IDOCK:   -5.20 KCAL/MOL
REMARK 924 INTRA-LIGAND FREE ENERGY PREDICTED BY IDOCK:   -0.38 KCAL/MOL
REMARK 927      BINDING AFFINITY PREDICTED BY RF-SCORE:    0.00 PKD
ROOT
HETATM    1 CA   UNL     1      -8.398   9.835  68.609  1.00  0.00    -0.096 Ca 
HETATM    2  C   UNL     2      -9.513  13.566  67.139  1.00  0.00    -0.244 C  
HETATM    3  C   UNL     2     -10.055  12.711  68.247  1.00  0.00    -0.233 C  
HETATM    4  C   UNL     3      -9.062   8.605  72.131  1.00  0.00    -0.301 C  
HETATM    5  C   UNL     3     -10.141   8.973  71.163  1.00  0.00    -0.295 C  
HETATM    6  O   UNL     3      -9.843   9.042  69.954  1.00  0.00    -0.171 OA 
HETATM    7  O   UNL     2      -9.385  11.731  68.611  1.00  0.00    -0.173 OA 
ENDROOT
BRANCH   3   8
HETATM    8  C   UNL     2     -11.386  13.058  68.856  1.00  0.00    -0.333 C  
BRANCH   8   9
HETATM    9  C   UNL     2     -11.823  14.455  68.455  1.00  0.00    -0.369 C  
HETATM   10  O   UNL     2     -10.697  15.668  70.093  1.00  0.00    -0.302 OA 
HETATM   11  O   UNL     2     -12.958  15.302  70.310  1.00  0.00    -0.303 OA 
HETATM   12  C   UNL     2     -11.830  15.239  69.756  1.00  0.00    -0.332 C  
ENDBRANCH   8   9
ENDBRANCH   3   8
BRANCH   5  13
HETATM   13  C   UNL     3     -11.502   9.354  71.696  1.00  0.00    -0.463 C  
BRANCH  13  14
HETATM   14  C   UNL     3     -12.163   8.135  72.298  1.00  0.00    -0.397 C  
HETATM   15  C   UNL     3     -13.625   8.185  71.899  1.00  0.00    -0.330 C  
HETATM   16  O   UNL     3     -13.934   7.403  70.967  1.00  0.00    -0.251 OA 
HETATM   17  O   UNL     3     -14.305   8.998  72.583  1.00  0.00    -0.603 OA 
ENDBRANCH  13  14
ENDBRANCH   5  13
TORSDOF 4
ENDMDL
MODEL      117
REMARK 921   NORMALIZED FREE ENERGY PREDICTED BY IDOCK:   -4.22 KCAL/MOL
REMARK 922        TOTAL FREE ENERGY PREDICTED BY IDOCK:   -5.58 KCAL/MOL
REMARK 923 INTER-LIGAND FREE ENERGY PREDICTED BY IDOCK:   -5.24 KCAL/MOL
REMARK 924 INTRA-LIGAND FREE ENERGY PREDICTED BY IDOCK:   -0.33 KCAL/MOL
REMARK 927      BINDING AFFINITY PREDICTED BY RF-SCORE:    0.00 PKD
ROOT
HETATM    1 CA   UNL     1      -9.535   9.523  63.944  1.00  0.00    -0.240 Ca 
HETATM    2  C   UNL     2      -9.214   6.982  67.224  1.00  0.00    -0.141 C  
HETATM    3  C   UNL     2      -9.931   8.283  67.019  1.00  0.00    -0.255 C  
HETATM    4  C   UNL     3     -12.396  11.933  63.339  1.00  0.00    -0.577 C  
HETATM    5  C   UNL     3     -11.487  12.004  64.524  1.00  0.00    -0.319 C  
HETATM    6  O   UNL     3     -10.401  11.395  64.466  1.00  0.00    -0.270 OA 
HETATM    7  O   UNL     2     -10.034   8.718  65.860  1.00  0.00    -0.213 OA 
ENDROOT
BRANCH   3   8
HETATM    8  C   UNL     2     -10.476   9.017  68.214  1.00  0.00    -0.247 C  
BRANCH   8   9
HETATM    9  C   UNL     2     -10.252   8.225  69.489  1.00  0.00    -0.210 C  
HETATM   10  O   UNL     2     -10.662   9.914  71.039  1.00  0.00    -0.309 OA 
HETATM   11  O   UNL     2      -8.493   9.299  70.583  1.00  0.00    -0.193 OA 
HETATM   12  C   UNL     2      -9.747   9.250  70.489  1.00  0.00    -0.260 C  
ENDBRANCH   8   9
ENDBRANCH   3   8
BRANCH   5  13
HETATM   13  C   UNL     3     -11.968  12.706  65.773  1.00  0.00    -0.503 C  
BRANCH  13  14
HETATM   14  C   UNL     3     -11.085  12.317  66.936  1.00  0.00    -0.341 C  
HETATM   15  C   UNL     3     -11.902  12.523  68.197  1.00  0.00    -0.317 C  
HETATM   16  O   UNL     3     -12.353  11.465  68.699  1.00  0.00    -0.491 OA 
HETATM   17  O   UNL     3     -11.984  13.730  68.551  1.00  0.00    -0.356 OA 
ENDBRANCH  13  14
ENDBRANCH   5  13
TORSDOF 4
ENDMDL
MODEL      118
REMARK 921   NORMALIZED FREE ENERGY PREDICTED BY IDOCK:   -4.19 KCAL/MOL
REMARK 922        TOTAL FREE ENERGY PREDICTED BY IDOCK:   -5.54 KCAL/MOL
REMARK 923 INTER-LIGAND FREE ENERGY PREDICTED BY IDOCK:   -4.90 KCAL/MOL
REMARK 924 INTRA-LIGAND FREE ENERGY PREDICTED BY IDOCK:   -0.63 KCAL/MOL
REMARK 927      BINDING AFFINITY PREDICTED BY RF-SCORE:    0.00 PKD
ROOT
HETATM    1 CA   UNL     1     -10.814  18.907  69.894  1.00  0.00    -0.465 Ca 
HETATM    2  C   UNL     2     -12.827  15.463  71.082  1.00  0.00    -0.520 C  
HETATM    3  C   UNL     2     -11.678  15.691  70.144  1.00  0.00    -0.360 C  
HETATM    4  C   UNL     3      -7.246  19.004  68.623  1.00  0.00    -0.351 C  
HETATM    5  C   UNL     3      -8.348  18.253  67.946  1.00  0.00    -0.250 C  
HETATM    6  O   UNL     3      -9.523  18.548  68.242  1.00  0.00    -0.308 OA 
HETATM    7  O   UNL     2     -11.136  16.809  70.144  1.00  0.00    -0.228 OA 
ENDROOT
BRANCH   3   8
HETATM    8  C   UNL     2     -11.243  14.576  69.233  1.00  0.00    -0.309 C  
BRANCH   8   9
HETATM    9  C   UNL     2     -11.133  15.055  67.797  1.00  0.00    -0.312 C  
HETATM   10  O   UNL     2     -12.351  13.365  66.758  1.00  0.00    -0.340 OA 
HETATM   11  O   UNL     2     -10.053  13.332  66.652  1.00  0.00    -0.255 OA 
HETATM   12  C   UNL     2     -11.185  13.785  66.967  1.00  0.00    -0.311 C  
ENDBRANCH   8   9
ENDBRANCH   3   8
BRANCH   5  13
HETATM   13  C   UNL     3      -7.995  17.105  67.030  1.00  0.00    -0.230 C  
BRANCH  13  14
HETATM   14  C   UNL     3      -6.729  16.443  67.523  1.00  0.00    -0.181 C  
HETATM   15  C   UNL     3      -7.143  15.160  68.217  1.00  0.00    -0.112 C  
HETATM   16  O   UNL     3      -6.952  14.121  67.540  1.00  0.00    -0.180 OA 
HETATM   17  O   UNL     3      -7.602  15.342  69.377  1.00  0.00    -0.191 OA 
ENDBRANCH  13  14
ENDBRANCH   5  13
TORSDOF 4
ENDMDL
MODEL      119
REMARK 921   NORMALIZED FREE ENERGY PREDICTED BY IDOCK:   -4.19 KCAL/MOL
REMARK 922        TOTAL FREE ENERGY PREDICTED BY IDOCK:   -5.54 KCAL/MOL
REMARK 923 INTER-LIGAND FREE ENERGY PREDICTED BY IDOCK:   -5.02 KCAL/MOL
REMARK 924 INTRA-LIGAND FREE ENERGY PREDICTED BY IDOCK:   -0.51 KCAL/MOL
REMARK 927      BINDING AFFINITY PREDICTED BY RF-SCORE:    0.00 PKD
ROOT
HETATM    1 CA   UNL     1     -11.479  11.322  71.148  1.00  0.00    -0.294 Ca 
HETATM    2  C   UNL     2      -8.993   7.990  71.345  1.00  0.00    -0.173 C  
HETATM    3  C   UNL     2      -9.473   8.827  70.197  1.00  0.00    -0.169 C  
HETATM    4  C   UNL     3     -11.416  13.915  68.386  1.00  0.00    -0.346 C  
HETATM    5  C   UNL     3     -11.726  12.470  68.160  1.00  0.00    -0.348 C  
HETATM    6  O   UNL     3     -12.045  11.779  69.148  1.00  0.00    -0.300 OA 
HETATM    7  O   UNL     2     -10.040   9.903  70.453  1.00  0.00    -0.267 OA 
ENDROOT
BRANCH   3   8
HETATM    8  C   UNL     2      -9.272   8.329  68.791  1.00  0.00    -0.143 C  
BRANCH   8   9
HETATM    9  C   UNL     2     -10.578   8.335  68.018  1.00  0.00    -0.188 C  
HETATM   10  O   UNL     2     -11.437   6.297  68.745  1.00  0.00    -0.294 OA 
HETATM   11  O   UNL     2     -10.495   6.445  66.652  1.00  0.00    -0.212 OA 
HETATM   12  C   UNL     2     -10.881   6.867  67.773  1.00  0.00    -0.241 C  
ENDBRANCH   8   9
ENDBRANCH   3   8
BRANCH   5  13
HETATM   13  C   UNL     3     -11.530  11.886  66.781  1.00  0.00    -0.384 C  
BRANCH  13  14
HETATM   14  C   UNL     3     -12.272  12.732  65.771  1.00  0.00    -0.469 C  
HETATM   15  C   UNL     3     -11.421  12.767  64.516  1.00  0.00    -0.342 C  
HETATM   16  O   UNL     3     -11.827  12.017  63.595  1.00  0.00    -0.451 OA 
HETATM   17  O   UNL     3     -10.444  13.561  64.593  1.00  0.00    -0.400 OA 
ENDBRANCH  13  14
ENDBRANCH   5  13
TORSDOF 4
ENDMDL
MODEL      120
REMARK 921   NORMALIZED FREE ENERGY PREDICTED BY IDOCK:   -4.19 KCAL/MOL
REMARK 922        TOTAL FREE ENERGY PREDICTED BY IDOCK:   -5.53 KCAL/MOL
REMARK 923 INTER-LIGAND FREE ENERGY PREDICTED BY IDOCK:   -4.91 KCAL/MOL
REMARK 924 INTRA-LIGAND FREE ENERGY PREDICTED BY IDOCK:   -0.62 KCAL/MOL
REMARK 927      BINDING AFFINITY PREDICTED BY RF-SCORE:    0.00 PKD
ROOT
HETATM    1 CA   UNL     1      -9.499  12.127  69.443  1.00  0.00    -0.385 Ca 
HETATM    2  C   UNL     2      -6.040  10.556  67.745  1.00  0.00    -0.048 C  
HETATM    3  C   UNL     2      -7.343  11.007  67.153  1.00  0.00    -0.116 C  
HETATM    4  C   UNL     3     -11.993  14.335  67.636  1.00  0.00    -0.400 C  
HETATM    5  C   UNL     3     -11.675  12.933  67.225  1.00  0.00    -0.373 C  
HETATM    6  O   UNL     3     -11.111  12.194  68.055  1.00  0.00    -0.215 OA 
HETATM    7  O   UNL     2      -8.127  11.641  67.879  1.00  0.00    -0.124 OA 
ENDROOT
BRANCH   3   8
HETATM    8  C   UNL     2      -7.658  10.659  65.723  1.00  0.00    -0.120 C  
BRANCH   8   9
HETATM    9  C   UNL     2      -9.027  10.014  65.607  1.00  0.00    -0.203 C  
HETATM   10  O   UNL     2      -8.651   8.711  63.714  1.00  0.00    -0.123 OA 
HETATM   11  O   UNL     2      -9.843  10.669  63.522  1.00  0.00    -0.307 OA 
HETATM   12  C   UNL     2      -9.204   9.765  64.120  1.00  0.00    -0.224 C  
ENDBRANCH   8   9
ENDBRANCH   3   8
BRANCH   5  13
HETATM   13  C   UNL     3     -11.943  12.510  65.799  1.00  0.00    -0.482 C  
BRANCH  13  14
HETATM   14  C   UNL     3     -11.260  13.473  64.855  1.00  0.00    -0.353 C  
HETATM   15  C   UNL     3     -12.284  13.866  63.809  1.00  0.00    -0.261 C  
HETATM   16  O   UNL     3     -12.784  15.005  63.976  1.00  0.00    -0.772 OA 
HETATM   17  O   UNL     3     -12.460  12.987  62.922  1.00  0.00    -0.406 OA 
ENDBRANCH  13  14
ENDBRANCH   5  13
TORSDOF 4
ENDMDL
MODEL      121
REMARK 921   NORMALIZED FREE ENERGY PREDICTED BY IDOCK:   -4.18 KCAL/MOL
REMARK 922        TOTAL FREE ENERGY PREDICTED BY IDOCK:   -5.53 KCAL/MOL
REMARK 923 INTER-LIGAND FREE ENERGY PREDICTED BY IDOCK:   -4.93 KCAL/MOL
REMARK 924 INTRA-LIGAND FREE ENERGY PREDICTED BY IDOCK:   -0.60 KCAL/MOL
REMARK 927      BINDING AFFINITY PREDICTED BY RF-SCORE:    0.00 PKD
ROOT
HETATM    1 CA   UNL     1     -13.409  14.064  66.798  1.00  0.00    -0.406 Ca 
HETATM    2  C   UNL     2     -11.111  16.025  69.660  1.00  0.00    -0.331 C  
HETATM    3  C   UNL     2     -10.750  15.118  68.521  1.00  0.00    -0.240 C  
HETATM    4  C   UNL     3     -12.166  12.988  63.384  1.00  0.00    -0.552 C  
HETATM    5  C   UNL     3     -11.597  12.483  64.671  1.00  0.00    -0.343 C  
HETATM    6  O   UNL     3     -12.274  12.631  65.707  1.00  0.00    -0.532 OA 
HETATM    7  O   UNL     2     -11.630  14.847  67.687  1.00  0.00    -0.338 OA 
ENDROOT
BRANCH   3   8
HETATM    8  C   UNL     2      -9.355  14.559  68.442  1.00  0.00    -0.208 C  
BRANCH   8   9
HETATM    9  C   UNL     2      -9.259  13.479  67.380  1.00  0.00    -0.223 C  
HETATM   10  O   UNL     2     -10.386  11.774  68.495  1.00  0.00    -0.207 OA 
HETATM   11  O   UNL     2      -8.089  11.728  68.385  1.00  0.00    -0.140 OA 
HETATM   12  C   UNL     2      -9.243  12.177  68.162  1.00  0.00    -0.197 C  
ENDBRANCH   8   9
ENDBRANCH   3   8
BRANCH   5  13
HETATM   13  C   UNL     3     -10.194  11.924  64.681  1.00  0.00    -0.316 C  
BRANCH  13  14
HETATM   14  C   UNL     3     -10.241  10.448  64.355  1.00  0.00    -0.245 C  
HETATM   15  C   UNL     3      -9.581   9.722  65.511  1.00  0.00    -0.282 C  
HETATM   16  O   UNL     3     -10.384   9.168  66.301  1.00  0.00    -0.244 OA 
HETATM   17  O   UNL     3      -8.321   9.775  65.484  1.00  0.00    -0.128 OA 
ENDBRANCH  13  14
ENDBRANCH   5  13
TORSDOF 4
ENDMDL
MODEL      122
REMARK 921   NORMALIZED FREE ENERGY PREDICTED BY IDOCK:   -4.17 KCAL/MOL
REMARK 922        TOTAL FREE ENERGY PREDICTED BY IDOCK:   -5.51 KCAL/MOL
REMARK 923 INTER-LIGAND FREE ENERGY PREDICTED BY IDOCK:   -4.92 KCAL/MOL
REMARK 924 INTRA-LIGAND FREE ENERGY PREDICTED BY IDOCK:   -0.58 KCAL/MOL
REMARK 927      BINDING AFFINITY PREDICTED BY RF-SCORE:    0.00 PKD
ROOT
HETATM    1 CA   UNL     1     -10.436   7.466  65.999  1.00  0.00    -0.442 Ca 
HETATM    2  C   UNL     2      -9.573  11.529  66.263  1.00  0.00    -0.239 C  
HETATM    3  C   UNL     2      -9.931  10.502  67.296  1.00  0.00    -0.186 C  
HETATM    4  C   UNL     3      -9.990   4.967  68.813  1.00  0.00    -0.225 C  
HETATM    5  C   UNL     3     -10.911   6.143  68.885  1.00  0.00    -0.356 C  
HETATM    6  O   UNL     3     -11.234   6.700  67.817  1.00  0.00    -0.274 OA 
HETATM    7  O   UNL     2      -9.924   9.306  66.959  1.00  0.00    -0.190 OA 
ENDROOT
BRANCH   3   8
HETATM    8  C   UNL     2     -10.303  10.954  68.682  1.00  0.00    -0.206 C  
BRANCH   8   9
HETATM    9  C   UNL     2     -11.809  10.973  68.864  1.00  0.00    -0.378 C  
HETATM   10  O   UNL     2     -12.126  13.276  69.013  1.00  0.00    -0.307 OA 
HETATM   11  O   UNL     2     -12.168  12.001  70.928  1.00  0.00    -0.352 OA 
HETATM   12  C   UNL     2     -12.076  12.219  69.692  1.00  0.00    -0.212 C  
ENDBRANCH   8   9
ENDBRANCH   3   8
BRANCH   5  13
HETATM   13  C   UNL     3     -11.317   6.672  70.241  1.00  0.00    -0.431 C  
BRANCH  13  14
HETATM   14  C   UNL     3     -10.436   7.846  70.603  1.00  0.00    -0.216 C  
HETATM   15  C   UNL     3     -10.807   8.256  72.015  1.00  0.00    -0.301 C  
HETATM   16  O   UNL     3      -9.992   7.882  72.893  1.00  0.00    -0.246 OA 
HETATM   17  O   UNL     3     -11.874   8.925  72.080  1.00  0.00    -0.361 OA 
ENDBRANCH  13  14
ENDBRANCH   5  13
TORSDOF 4
ENDMDL
MODEL      123
REMARK 921   NORMALIZED FREE ENERGY PREDICTED BY IDOCK:   -4.17 KCAL/MOL
REMARK 922        TOTAL FREE ENERGY PREDICTED BY IDOCK:   -5.51 KCAL/MOL
REMARK 923 INTER-LIGAND FREE ENERGY PREDICTED BY IDOCK:   -5.07 KCAL/MOL
REMARK 924 INTRA-LIGAND FREE ENERGY PREDICTED BY IDOCK:   -0.43 KCAL/MOL
REMARK 927      BINDING AFFINITY PREDICTED BY RF-SCORE:    0.00 PKD
ROOT
HETATM    1 CA   UNL     1     -13.870  10.211  69.842  1.00  0.00    -0.602 Ca 
HETATM    2  C   UNL     2     -11.900  12.370  66.879  1.00  0.00    -0.377 C  
HETATM    3  C   UNL     2     -11.410  11.429  67.940  1.00  0.00    -0.303 C  
HETATM    4  C   UNL     3     -12.577   7.019  71.422  1.00  0.00    -0.428 C  
HETATM    5  C   UNL     3     -11.866   8.332  71.502  1.00  0.00    -0.293 C  
HETATM    6  O   UNL     3     -12.515   9.365  71.248  1.00  0.00    -0.316 OA 
HETATM    7  O   UNL     2     -12.251  10.753  68.556  1.00  0.00    -0.470 OA 
ENDROOT
BRANCH   3   8
HETATM    8  C   UNL     2      -9.936  11.355  68.231  1.00  0.00    -0.203 C  
BRANCH   8   9
HETATM    9  C   UNL     2      -9.508   9.929  68.527  1.00  0.00    -0.149 C  
HETATM   10  O   UNL     2      -8.045   9.615  66.743  1.00  0.00    -0.112 OA 
HETATM   11  O   UNL     2     -10.150   8.692  66.656  1.00  0.00    -0.263 OA 
HETATM   12  C   UNL     2      -9.196   9.336  67.164  1.00  0.00    -0.130 C  
ENDBRANCH   8   9
ENDBRANCH   3   8
BRANCH   5  13
HETATM   13  C   UNL     3     -10.379   8.343  71.770  1.00  0.00    -0.333 C  
BRANCH  13  14
HETATM   14  C   UNL     3     -10.117   7.800  73.157  1.00  0.00    -0.390 C  
HETATM   15  C   UNL     3      -8.612   7.741  73.330  1.00  0.00    -0.213 C  
HETATM   16  O   UNL     3      -8.136   8.666  74.032  1.00  0.00    -0.385 OA 
HETATM   17  O   UNL     3      -8.078   6.757  72.750  1.00  0.00    -0.106 OA 
ENDBRANCH  13  14
ENDBRANCH   5  13
TORSDOF 4
ENDMDL
MODEL      124
REMARK 921   NORMALIZED FREE ENERGY PREDICTED BY IDOCK:   -4.13 KCAL/MOL
REMARK 922        TOTAL FREE ENERGY PREDICTED BY IDOCK:   -5.46 KCAL/MOL
REMARK 923 INTER-LIGAND FREE ENERGY PREDICTED BY IDOCK:   -5.04 KCAL/MOL
REMARK 924 INTRA-LIGAND FREE ENERGY PREDICTED BY IDOCK:   -0.42 KCAL/MOL
REMARK 927      BINDING AFFINITY PREDICTED BY RF-SCORE:    0.00 PKD
ROOT
HETATM    1 CA   UNL     1     -12.050  11.325  70.925  1.00  0.00    -0.255 Ca 
HETATM    2  C   UNL     2     -10.827   9.746  67.274  1.00  0.00    -0.247 C  
HETATM    3  C   UNL     2     -11.118  11.147  67.724  1.00  0.00    -0.285 C  
HETATM    4  C   UNL     3     -11.416  14.881  72.072  1.00  0.00    -0.224 C  
HETATM    5  C   UNL     3     -12.218  14.530  70.859  1.00  0.00    -0.339 C  
HETATM    6  O   UNL     3     -12.642  13.363  70.756  1.00  0.00    -0.336 OA 
HETATM    7  O   UNL     2     -11.258  11.354  68.941  1.00  0.00    -0.206 OA 
ENDROOT
BRANCH   3   8
HETATM    8  C   UNL     2     -11.251  12.235  66.693  1.00  0.00    -0.367 C  
BRANCH   8   9
HETATM    9  C   UNL     2     -10.278  12.023  65.547  1.00  0.00    -0.290 C  
HETATM   10  O   UNL     2     -11.019  13.714  64.128  1.00  0.00    -0.345 OA 
HETATM   11  O   UNL     2     -11.607  11.534  63.693  1.00  0.00    -0.394 OA 
HETATM   12  C   UNL     2     -11.042  12.471  64.313  1.00  0.00    -0.356 C  
ENDBRANCH   8   9
ENDBRANCH   3   8
BRANCH   5  13
HETATM   13  C   UNL     3     -12.381  15.562  69.767  1.00  0.00    -0.261 C  
BRANCH  13  14
HETATM   14  C   UNL     3     -11.157  16.448  69.730  1.00  0.00    -0.305 C  
HETATM   15  C   UNL     3     -10.657  16.448  68.299  1.00  0.00    -0.318 C  
HETATM   16  O   UNL     3     -10.941  17.486  67.651  1.00  0.00    -0.294 OA 
HETATM   17  O   UNL     3     -10.018  15.406  67.990  1.00  0.00    -0.219 OA 
ENDBRANCH  13  14
ENDBRANCH   5  13
TORSDOF 4
ENDMDL
MODEL      125
REMARK 921   NORMALIZED FREE ENERGY PREDICTED BY IDOCK:   -4.12 KCAL/MOL
REMARK 922        TOTAL FREE ENERGY PREDICTED BY IDOCK:   -5.45 KCAL/MOL
REMARK 923 INTER-LIGAND FREE ENERGY PREDICTED BY IDOCK:   -4.92 KCAL/MOL
REMARK 924 INTRA-LIGAND FREE ENERGY PREDICTED BY IDOCK:   -0.53 KCAL/MOL
REMARK 927      BINDING AFFINITY PREDICTED BY RF-SCORE:    0.00 PKD
ROOT
HETATM    1 CA   UNL     1     -10.540  10.275  63.130  1.00  0.00    -0.495 Ca 
HETATM    2  C   UNL     2      -8.993   7.962  66.225  1.00  0.00    -0.207 C  
HETATM    3  C   UNL     2      -9.338   9.419  66.126  1.00  0.00    -0.205 C  
HETATM    4  C   UNL     3     -12.487  13.493  63.591  1.00  0.00    -0.278 C  
HETATM    5  C   UNL     3     -11.072  13.308  64.038  1.00  0.00    -0.311 C  
HETATM    6  O   UNL     3     -10.426  12.357  63.555  1.00  0.00    -0.435 OA 
HETATM    7  O   UNL     2      -9.993   9.799  65.140  1.00  0.00    -0.309 OA 
ENDROOT
BRANCH   3   8
HETATM    8  C   UNL     2      -8.866  10.359  67.201  1.00  0.00    -0.141 C  
BRANCH   8   9
HETATM    9  C   UNL     2      -7.424  10.076  67.579  1.00  0.00    -0.090 C  
HETATM   10  O   UNL     2      -6.505  12.156  67.079  1.00  0.00    -0.150 OA 
HETATM   11  O   UNL     2      -6.196  10.403  65.622  1.00  0.00    -0.106 OA 
HETATM   12  C   UNL     2      -6.608  10.974  66.666  1.00  0.00    -0.128 C  
ENDBRANCH   8   9
ENDBRANCH   3   8
BRANCH   5  13
HETATM   13  C   UNL     3     -10.527  14.199  65.129  1.00  0.00    -0.422 C  
BRANCH  13  14
HETATM   14  C   UNL     3     -10.278  13.375  66.371  1.00  0.00    -0.293 C  
HETATM   15  C   UNL     3     -11.626  13.152  67.029  1.00  0.00    -0.359 C  
HETATM   16  O   UNL     3     -12.108  12.007  66.846  1.00  0.00    -0.608 OA 
HETATM   17  O   UNL     3     -12.044  14.153  67.672  1.00  0.00    -0.378 OA 
ENDBRANCH  13  14
ENDBRANCH   5  13
TORSDOF 4
ENDMDL
MODEL      126
REMARK 921   NORMALIZED FREE ENERGY PREDICTED BY IDOCK:   -4.12 KCAL/MOL
REMARK 922        TOTAL FREE ENERGY PREDICTED BY IDOCK:   -5.44 KCAL/MOL
REMARK 923 INTER-LIGAND FREE ENERGY PREDICTED BY IDOCK:   -4.91 KCAL/MOL
REMARK 924 INTRA-LIGAND FREE ENERGY PREDICTED BY IDOCK:   -0.53 KCAL/MOL
REMARK 927      BINDING AFFINITY PREDICTED BY RF-SCORE:    0.00 PKD
ROOT
HETATM    1 CA   UNL     1     -12.497  14.409  69.503  1.00  0.00    -0.279 Ca 
HETATM    2  C   UNL     2     -12.124  14.242  65.361  1.00  0.00    -0.396 C  
HETATM    3  C   UNL     2     -12.020  13.194  66.429  1.00  0.00    -0.402 C  
HETATM    4  C   UNL     3     -13.486  11.492  71.710  1.00  0.00    -0.203 C  
HETATM    5  C   UNL     3     -12.260  11.507  70.854  1.00  0.00    -0.322 C  
HETATM    6  O   UNL     3     -11.852  12.608  70.436  1.00  0.00    -0.291 OA 
HETATM    7  O   UNL     2     -12.394  13.488  67.577  1.00  0.00    -0.259 OA 
ENDROOT
BRANCH   3   8
HETATM    8  C   UNL     2     -11.453  11.845  66.080  1.00  0.00    -0.344 C  
BRANCH   8   9
HETATM    9  C   UNL     2      -9.935  11.873  66.083  1.00  0.00    -0.254 C  
HETATM   10  O   UNL     2      -9.544  10.071  67.505  1.00  0.00    -0.150 OA 
HETATM   11  O   UNL     2      -9.328  12.216  68.309  1.00  0.00    -0.198 OA 
HETATM   12  C   UNL     2      -9.548  11.327  67.445  1.00  0.00    -0.169 C  
ENDBRANCH   8   9
ENDBRANCH   3   8
BRANCH   5  13
HETATM   13  C   UNL     3     -11.640  10.192  70.442  1.00  0.00    -0.396 C  
BRANCH  13  14
HETATM   14  C   UNL     3     -11.580   9.271  71.639  1.00  0.00    -0.463 C  
HETATM   15  C   UNL     3     -10.261   8.528  71.557  1.00  0.00    -0.250 C  
HETATM   16  O   UNL     3      -9.377   8.954  72.340  1.00  0.00    -0.342 OA 
HETATM   17  O   UNL     3     -10.267   7.583  70.721  1.00  0.00    -0.194 OA 
ENDBRANCH  13  14
ENDBRANCH   5  13
TORSDOF 4
ENDMDL
MODEL      127
REMARK 921   NORMALIZED FREE ENERGY PREDICTED BY IDOCK:   -4.11 KCAL/MOL
REMARK 922        TOTAL FREE ENERGY PREDICTED BY IDOCK:   -5.44 KCAL/MOL
REMARK 923 INTER-LIGAND FREE ENERGY PREDICTED BY IDOCK:   -5.06 KCAL/MOL
REMARK 924 INTRA-LIGAND FREE ENERGY PREDICTED BY IDOCK:   -0.38 KCAL/MOL
REMARK 927      BINDING AFFINITY PREDICTED BY RF-SCORE:    0.00 PKD
ROOT
HETATM    1 CA   UNL     1     -10.722  10.218  65.271  1.00  0.00    -0.277 Ca 
HETATM    2  C   UNL     2     -10.196   7.231  68.121  1.00  0.00    -0.222 C  
HETATM    3  C   UNL     2     -10.367   8.718  68.233  1.00  0.00    -0.207 C  
HETATM    4  C   UNL     3     -12.408  13.551  65.907  1.00  0.00    -0.507 C  
HETATM    5  C   UNL     3     -11.167  13.101  66.610  1.00  0.00    -0.304 C  
HETATM    6  O   UNL     3     -10.517  12.164  66.106  1.00  0.00    -0.237 OA 
HETATM    7  O   UNL     2     -10.725   9.343  67.221  1.00  0.00    -0.267 OA 
ENDROOT
BRANCH   3   8
HETATM    8  C   UNL     2     -10.082   9.392  69.547  1.00  0.00    -0.214 C  
BRANCH   8   9
HETATM    9  C   UNL     2     -11.366   9.698  70.295  1.00  0.00    -0.311 C  
HETATM   10  O   UNL     2     -10.839   8.711  72.337  1.00  0.00    -0.343 OA 
HETATM   11  O   UNL     2     -12.249   7.620  70.883  1.00  0.00    -0.268 OA 
HETATM   12  C   UNL     2     -11.511   8.557  71.285  1.00  0.00    -0.277 C  
ENDBRANCH   8   9
ENDBRANCH   3   8
BRANCH   5  13
HETATM   13  C   UNL     3     -10.820  13.715  67.946  1.00  0.00    -0.264 C  
BRANCH  13  14
HETATM   14  C   UNL     3     -11.594  15.002  68.121  1.00  0.00    -0.360 C  
HETATM   15  C   UNL     3     -11.679  15.265  69.611  1.00  0.00    -0.334 C  
HETATM   16  O   UNL     3     -10.889  16.147  70.027  1.00  0.00    -0.325 OA 
HETATM   17  O   UNL     3     -12.548  14.563  70.197  1.00  0.00    -0.341 OA 
ENDBRANCH  13  14
ENDBRANCH   5  13
TORSDOF 4
ENDMDL
MODEL      128
REMARK 921   NORMALIZED FREE ENERGY PREDICTED BY IDOCK:   -4.09 KCAL/MOL
REMARK 922        TOTAL FREE ENERGY PREDICTED BY IDOCK:   -5.42 KCAL/MOL
REMARK 923 INTER-LIGAND FREE ENERGY PREDICTED BY IDOCK:   -4.80 KCAL/MOL
REMARK 924 INTRA-LIGAND FREE ENERGY PREDICTED BY IDOCK:   -0.62 KCAL/MOL
REMARK 927      BINDING AFFINITY PREDICTED BY RF-SCORE:    0.00 PKD
ROOT
HETATM    1 CA   UNL     1     -12.697  15.873  69.329  1.00  0.00    -0.493 Ca 
HETATM    2  C   UNL     2     -12.414  11.926  70.618  1.00  0.00    -0.347 C  
HETATM    3  C   UNL     2     -11.642  12.717  69.604  1.00  0.00    -0.252 C  
HETATM    4  C   UNL     3      -9.856  17.867  67.808  1.00  0.00    -0.300 C  
HETATM    5  C   UNL     3     -10.409  16.616  67.203  1.00  0.00    -0.300 C  
HETATM    6  O   UNL     3     -11.531  16.229  67.585  1.00  0.00    -0.100 OA 
HETATM    7  O   UNL     2     -11.801  13.949  69.577  1.00  0.00    -0.287 OA 
ENDROOT
BRANCH   3   8
HETATM    8  C   UNL     2     -10.729  11.994  68.651  1.00  0.00    -0.266 C  
BRANCH   8   9
HETATM    9  C   UNL     2     -11.508  11.398  67.494  1.00  0.00    -0.336 C  
HETATM   10  O   UNL     2     -10.345  12.381  65.732  1.00  0.00    -0.252 OA 
HETATM   11  O   UNL     2     -12.396  13.223  66.343  1.00  0.00    -0.375 OA 
HETATM   12  C   UNL     2     -11.412  12.441  66.394  1.00  0.00    -0.373 C  
ENDBRANCH   8   9
ENDBRANCH   3   8
BRANCH   5  13
HETATM   13  C   UNL     3      -9.547  15.821  66.251  1.00  0.00    -0.343 C  
BRANCH  13  14
HETATM   14  C   UNL     3      -8.147  15.717  66.813  1.00  0.00    -0.297 C  
HETATM   15  C   UNL     3      -8.133  14.521  67.744  1.00  0.00    -0.158 C  
HETATM   16  O   UNL     3      -7.590  13.497  67.263  1.00  0.00    -0.149 OA 
HETATM   17  O   UNL     3      -8.659  14.752  68.867  1.00  0.00    -0.170 OA 
ENDBRANCH  13  14
ENDBRANCH   5  13
TORSDOF 4
ENDMDL
MODEL      129
REMARK 921   NORMALIZED FREE ENERGY PREDICTED BY IDOCK:   -4.07 KCAL/MOL
REMARK 922        TOTAL FREE ENERGY PREDICTED BY IDOCK:   -5.39 KCAL/MOL
REMARK 923 INTER-LIGAND FREE ENERGY PREDICTED BY IDOCK:   -5.00 KCAL/MOL
REMARK 924 INTRA-LIGAND FREE ENERGY PREDICTED BY IDOCK:   -0.39 KCAL/MOL
REMARK 927      BINDING AFFINITY PREDICTED BY RF-SCORE:    0.00 PKD
ROOT
HETATM    1 CA   UNL     1     -13.459  12.426  71.395  1.00  0.00    -0.350 Ca 
HETATM    2  C   UNL     2     -12.308   8.564  72.435  1.00  0.00    -0.424 C  
HETATM    3  C   UNL     2     -11.729   9.572  71.485  1.00  0.00    -0.402 C  
HETATM    4  C   UNL     3     -11.131  15.095  70.049  1.00  0.00    -0.297 C  
HETATM    5  C   UNL     3     -11.391  13.795  69.357  1.00  0.00    -0.250 C  
HETATM    6  O   UNL     3     -12.400  13.145  69.695  1.00  0.00    -0.207 OA 
HETATM    7  O   UNL     2     -12.159  10.736  71.535  1.00  0.00    -0.269 OA 
ENDROOT
BRANCH   3   8
HETATM    8  C   UNL     2     -10.677   9.133  70.504  1.00  0.00    -0.289 C  
BRANCH   8   9
HETATM    9  C   UNL     2     -10.214   7.718  70.795  1.00  0.00    -0.200 C  
HETATM   10  O   UNL     2     -10.006   6.949  68.607  1.00  0.00    -0.143 OA 
HETATM   11  O   UNL     2     -11.837   6.331  69.854  1.00  0.00    -0.340 OA 
HETATM   12  C   UNL     2     -10.737   6.899  69.628  1.00  0.00    -0.245 C  
ENDBRANCH   8   9
ENDBRANCH   3   8
BRANCH   5  13
HETATM   13  C   UNL     3     -10.372  13.275  68.371  1.00  0.00    -0.254 C  
BRANCH  13  14
HETATM   14  C   UNL     3     -10.373  14.153  67.141  1.00  0.00    -0.265 C  
HETATM   15  C   UNL     3     -11.454  13.622  66.221  1.00  0.00    -0.333 C  
HETATM   16  O   UNL     3     -12.511  14.298  66.220  1.00  0.00    -0.445 OA 
HETATM   17  O   UNL     3     -11.111  12.586  65.587  1.00  0.00    -0.285 OA 
ENDBRANCH  13  14
ENDBRANCH   5  13
TORSDOF 4
ENDMDL
MODEL      130
REMARK 921   NORMALIZED FREE ENERGY PREDICTED BY IDOCK:   -4.07 KCAL/MOL
REMARK 922        TOTAL FREE ENERGY PREDICTED BY IDOCK:   -5.38 KCAL/MOL
REMARK 923 INTER-LIGAND FREE ENERGY PREDICTED BY IDOCK:   -4.87 KCAL/MOL
REMARK 924 INTRA-LIGAND FREE ENERGY PREDICTED BY IDOCK:   -0.51 KCAL/MOL
REMARK 927      BINDING AFFINITY PREDICTED BY RF-SCORE:    0.00 PKD
ROOT
HETATM    1 CA   UNL     1      -8.424   8.958  68.669  1.00  0.00    -0.112 Ca 
HETATM    2  C   UNL     2     -11.231  11.663  67.211  1.00  0.00    -0.365 C  
HETATM    3  C   UNL     2     -11.105  10.943  68.521  1.00  0.00    -0.256 C  
HETATM    4  C   UNL     3      -7.663   8.388  72.337  1.00  0.00    -0.145 C  
HETATM    5  C   UNL     3      -9.003   8.143  71.719  1.00  0.00    -0.163 C  
HETATM    6  O   UNL     3      -9.064   8.040  70.478  1.00  0.00    -0.150 OA 
HETATM    7  O   UNL     2     -10.038  10.356  68.766  1.00  0.00    -0.170 OA 
ENDROOT
BRANCH   3   8
HETATM    8  C   UNL     2     -12.271  10.942  69.472  1.00  0.00    -0.331 C  
BRANCH   8   9
HETATM    9  C   UNL     2     -11.799  10.954  70.914  1.00  0.00    -0.363 C  
HETATM   10  O   UNL     2     -13.589   9.827  71.889  1.00  0.00    -0.381 OA 
HETATM   11  O   UNL     2     -13.446  12.114  72.092  1.00  0.00    -0.494 OA 
HETATM   12  C   UNL     2     -13.079  10.966  71.732  1.00  0.00    -0.459 C  
ENDBRANCH   8   9
ENDBRANCH   3   8
BRANCH   5  13
HETATM   13  C   UNL     3     -10.228   8.147  72.604  1.00  0.00    -0.388 C  
BRANCH  13  14
HETATM   14  C   UNL     3     -10.450   6.757  73.156  1.00  0.00    -0.296 C  
HETATM   15  C   UNL     3     -11.298   6.012  72.145  1.00  0.00    -0.299 C  
HETATM   16  O   UNL     3     -10.660   5.198  71.433  1.00  0.00    -0.208 OA 
HETATM   17  O   UNL     3     -12.521   6.319  72.191  1.00  0.00    -0.291 OA 
ENDBRANCH  13  14
ENDBRANCH   5  13
TORSDOF 4
ENDMDL
MODEL      131
REMARK 921   NORMALIZED FREE ENERGY PREDICTED BY IDOCK:   -4.06 KCAL/MOL
REMARK 922        TOTAL FREE ENERGY PREDICTED BY IDOCK:   -5.38 KCAL/MOL
REMARK 923 INTER-LIGAND FREE ENERGY PREDICTED BY IDOCK:   -4.97 KCAL/MOL
REMARK 924 INTRA-LIGAND FREE ENERGY PREDICTED BY IDOCK:   -0.41 KCAL/MOL
REMARK 927      BINDING AFFINITY PREDICTED BY RF-SCORE:    0.00 PKD
ROOT
HETATM    1 CA   UNL     1      -7.167   9.214  65.277  1.00  0.00    -0.079 Ca 
HETATM    2  C   UNL     2      -8.411   7.011  68.581  1.00  0.00    -0.122 C  
HETATM    3  C   UNL     2      -9.110   8.016  67.714  1.00  0.00    -0.131 C  
HETATM    4  C   UNL     3      -9.466  10.591  62.598  1.00  0.00    -0.326 C  
HETATM    5  C   UNL     3      -9.544  10.981  64.039  1.00  0.00    -0.272 C  
HETATM    6  O   UNL     3      -8.559  10.740  64.764  1.00  0.00    -0.161 OA 
HETATM    7  O   UNL     2      -8.559   8.359  66.655  1.00  0.00    -0.114 OA 
ENDROOT
BRANCH   3   8
HETATM    8  C   UNL     2     -10.428   8.583  68.165  1.00  0.00    -0.236 C  
BRANCH   8   9
HETATM    9  C   UNL     2     -10.848   9.751  67.293  1.00  0.00    -0.247 C  
HETATM   10  O   UNL     2      -9.952  11.487  68.560  1.00  0.00    -0.196 OA 
HETATM   11  O   UNL     2     -12.213  11.073  68.647  1.00  0.00    -0.571 OA 
HETATM   12  C   UNL     2     -11.026  10.905  68.264  1.00  0.00    -0.239 C  
ENDBRANCH   8   9
ENDBRANCH   3   8
BRANCH   5  13
HETATM   13  C   UNL     3     -10.841  11.540  64.576  1.00  0.00    -0.390 C  
BRANCH  13  14
HETATM   14  C   UNL     3     -10.687  13.025  64.808  1.00  0.00    -0.370 C  
HETATM   15  C   UNL     3     -12.073  13.573  65.088  1.00  0.00    -0.404 C  
HETATM   16  O   UNL     3     -12.302  13.809  66.299  1.00  0.00    -0.444 OA 
HETATM   17  O   UNL     3     -12.775  13.720  64.050  1.00  0.00    -0.669 OA 
ENDBRANCH  13  14
ENDBRANCH   5  13
TORSDOF 4
ENDMDL
MODEL      132
REMARK 921   NORMALIZED FREE ENERGY PREDICTED BY IDOCK:   -4.05 KCAL/MOL
REMARK 922        TOTAL FREE ENERGY PREDICTED BY IDOCK:   -5.36 KCAL/MOL
REMARK 923 INTER-LIGAND FREE ENERGY PREDICTED BY IDOCK:   -4.84 KCAL/MOL
REMARK 924 INTRA-LIGAND FREE ENERGY PREDICTED BY IDOCK:   -0.52 KCAL/MOL
REMARK 927      BINDING AFFINITY PREDICTED BY RF-SCORE:    0.00 PKD
ROOT
HETATM    1 CA   UNL     1      -8.221   8.230  69.068  1.00  0.00    -0.102 Ca 
HETATM    2  C   UNL     2     -10.272   4.968  70.640  1.00  0.00    -0.306 C  
HETATM    3  C   UNL     2     -10.727   6.318  70.170  1.00  0.00    -0.286 C  
HETATM    4  C   UNL     3      -9.742  10.867  66.813  1.00  0.00    -0.221 C  
HETATM    5  C   UNL     3     -10.203  10.604  68.211  1.00  0.00    -0.166 C  
HETATM    6  O   UNL     3      -9.443   9.969  68.967  1.00  0.00    -0.167 OA 
HETATM    7  O   UNL     2      -9.919   7.021  69.541  1.00  0.00    -0.159 OA 
ENDROOT
BRANCH   3   8
HETATM    8  C   UNL     2     -12.124   6.775  70.492  1.00  0.00    -0.332 C  
BRANCH   8   9
HETATM    9  C   UNL     2     -12.213   7.297  71.914  1.00  0.00    -0.348 C  
HETATM   10  O   UNL     2     -13.948   8.823  71.630  1.00  0.00    -0.399 OA 
HETATM   11  O   UNL     2     -11.782   9.584  71.761  1.00  0.00    -0.383 OA 
HETATM   12  C   UNL     2     -12.702   8.726  71.764  1.00  0.00    -0.359 C  
ENDBRANCH   8   9
ENDBRANCH   3   8
BRANCH   5  13
HETATM   13  C   UNL     3     -11.602  11.014  68.609  1.00  0.00    -0.385 C  
BRANCH  13  14
HETATM   14  C   UNL     3     -11.880  12.408  68.092  1.00  0.00    -0.372 C  
HETATM   15  C   UNL     3     -11.437  13.374  69.173  1.00  0.00    -0.300 C  
HETATM   16  O   UNL     3     -10.339  13.938  68.944  1.00  0.00    -0.225 OA 
HETATM   17  O   UNL     3     -12.256  13.471  70.127  1.00  0.00    -0.332 OA 
ENDBRANCH  13  14
ENDBRANCH   5  13
TORSDOF 4
ENDMDL
MODEL      133
REMARK 921   NORMALIZED FREE ENERGY PREDICTED BY IDOCK:   -4.04 KCAL/MOL
REMARK 922        TOTAL FREE ENERGY PREDICTED BY IDOCK:   -5.35 KCAL/MOL
REMARK 923 INTER-LIGAND FREE ENERGY PREDICTED BY IDOCK:   -4.94 KCAL/MOL
REMARK 924 INTRA-LIGAND FREE ENERGY PREDICTED BY IDOCK:   -0.41 KCAL/MOL
REMARK 927      BINDING AFFINITY PREDICTED BY RF-SCORE:    0.00 PKD
ROOT
HETATM    1 CA   UNL     1     -12.006  15.523  64.961  1.00  0.00    -0.324 Ca 
HETATM    2  C   UNL     2     -10.302  18.619  67.158  1.00  0.00    -0.442 C  
HETATM    3  C   UNL     2     -10.522  17.166  67.460  1.00  0.00    -0.348 C  
HETATM    4  C   UNL     3     -11.223  11.845  65.429  1.00  0.00    -0.351 C  
HETATM    5  C   UNL     3     -11.819  12.709  66.494  1.00  0.00    -0.396 C  
HETATM    6  O   UNL     3     -12.338  13.789  66.149  1.00  0.00    -0.445 OA 
HETATM    7  O   UNL     2     -10.861  16.419  66.527  1.00  0.00    -0.218 OA 
ENDROOT
BRANCH   3   8
HETATM    8  C   UNL     2     -10.345  16.675  68.871  1.00  0.00    -0.300 C  
BRANCH   8   9
HETATM    9  C   UNL     2     -10.121  15.175  68.904  1.00  0.00    -0.238 C  
HETATM   10  O   UNL     2      -7.945  15.153  69.731  1.00  0.00    -0.192 OA 
HETATM   11  O   UNL     2      -8.307  14.790  67.488  1.00  0.00    -0.158 OA 
HETATM   12  C   UNL     2      -8.628  15.009  68.686  1.00  0.00    -0.174 C  
ENDBRANCH   8   9
ENDBRANCH   3   8
BRANCH   5  13
HETATM   13  C   UNL     3     -11.668  12.296  67.939  1.00  0.00    -0.410 C  
BRANCH  13  14
HETATM   14  C   UNL     3     -11.172  10.870  68.003  1.00  0.00    -0.378 C  
HETATM   15  C   UNL     3     -10.032  10.843  69.003  1.00  0.00    -0.191 C  
HETATM   16  O   UNL     3     -10.338  10.369  70.124  1.00  0.00    -0.218 OA 
HETATM   17  O   UNL     3      -8.948  11.291  68.540  1.00  0.00    -0.161 OA 
ENDBRANCH  13  14
ENDBRANCH   5  13
TORSDOF 4
ENDMDL
MODEL      134
REMARK 921   NORMALIZED FREE ENERGY PREDICTED BY IDOCK:   -4.02 KCAL/MOL
REMARK 922        TOTAL FREE ENERGY PREDICTED BY IDOCK:   -5.33 KCAL/MOL
REMARK 923 INTER-LIGAND FREE ENERGY PREDICTED BY IDOCK:   -4.85 KCAL/MOL
REMARK 924 INTRA-LIGAND FREE ENERGY PREDICTED BY IDOCK:   -0.48 KCAL/MOL
REMARK 927      BINDING AFFINITY PREDICTED BY RF-SCORE:    0.00 PKD
ROOT
HETATM    1 CA   UNL     1     -10.877   9.610  66.826  1.00  0.00    -0.229 Ca 
HETATM    2  C   UNL     2     -12.960  12.506  64.683  1.00  0.00    -0.176 C  
HETATM    3  C   UNL     2     -11.729  12.571  65.539  1.00  0.00    -0.409 C  
HETATM    4  C   UNL     3      -7.205   9.810  67.740  1.00  0.00    -0.088 C  
HETATM    5  C   UNL     3      -8.230  10.796  68.202  1.00  0.00    -0.119 C  
HETATM    6  O   UNL     3      -9.431  10.467  68.131  1.00  0.00    -0.146 OA 
HETATM    7  O   UNL     2     -11.200  11.501  65.885  1.00  0.00    -0.274 OA 
ENDROOT
BRANCH   3   8
HETATM    8  C   UNL     2     -11.199  13.914  65.961  1.00  0.00    -0.300 C  
BRANCH   8   9
HETATM    9  C   UNL     2     -10.422  14.572  64.835  1.00  0.00    -0.435 C  
HETATM   10  O   UNL     2     -10.255  16.719  65.720  1.00  0.00    -0.461 OA 
HETATM   11  O   UNL     2     -11.794  16.295  64.063  1.00  0.00    -0.958 OA 
HETATM   12  C   UNL     2     -10.864  16.024  64.868  1.00  0.00    -0.372 C  
ENDBRANCH   8   9
ENDBRANCH   3   8
BRANCH   5  13
HETATM   13  C   UNL     3      -7.781  12.175  68.623  1.00  0.00    -0.089 C  
BRANCH  13  14
HETATM   14  C   UNL     3      -7.742  13.080  67.413  1.00  0.00    -0.159 C  
HETATM   15  C   UNL     3      -6.982  14.327  67.819  1.00  0.00    -0.177 C  
HETATM   16  O   UNL     3      -5.800  14.372  67.397  1.00  0.00    -0.346 OA 
HETATM   17  O   UNL     3      -7.666  15.132  68.507  1.00  0.00    -0.113 OA 
ENDBRANCH  13  14
ENDBRANCH   5  13
TORSDOF 4
ENDMDL
MODEL      135
REMARK 921   NORMALIZED FREE ENERGY PREDICTED BY IDOCK:   -4.02 KCAL/MOL
REMARK 922        TOTAL FREE ENERGY PREDICTED BY IDOCK:   -5.33 KCAL/MOL
REMARK 923 INTER-LIGAND FREE ENERGY PREDICTED BY IDOCK:   -4.82 KCAL/MOL
REMARK 924 INTRA-LIGAND FREE ENERGY PREDICTED BY IDOCK:   -0.51 KCAL/MOL
REMARK 927      BINDING AFFINITY PREDICTED BY RF-SCORE:    0.00 PKD
ROOT
HETATM    1 CA   UNL     1      -8.500  10.906  66.955  1.00  0.00    -0.118 Ca 
HETATM    2  C   UNL     2      -8.647   6.859  65.996  1.00  0.00    -0.150 C  
HETATM    3  C   UNL     2      -9.583   7.754  66.753  1.00  0.00    -0.212 C  
HETATM    4  C   UNL     3     -11.522  13.077  67.669  1.00  0.00    -0.369 C  
HETATM    5  C   UNL     3     -11.148  11.882  68.486  1.00  0.00    -0.243 C  
HETATM    6  O   UNL     3      -9.985  11.444  68.381  1.00  0.00    -0.190 OA 
HETATM    7  O   UNL     2      -9.391   8.980  66.701  1.00  0.00    -0.154 OA 
ENDROOT
BRANCH   3   8
HETATM    8  C   UNL     2     -10.696   7.139  67.557  1.00  0.00    -0.344 C  
BRANCH   8   9
HETATM    9  C   UNL     2     -10.148   6.227  68.639  1.00  0.00    -0.185 C  
HETATM   10  O   UNL     2     -11.909   6.369  70.156  1.00  0.00    -0.409 OA 
HETATM   11  O   UNL     2      -9.981   7.562  70.545  1.00  0.00    -0.184 OA 
HETATM   12  C   UNL     2     -10.739   6.769  69.928  1.00  0.00    -0.250 C  
ENDBRANCH   8   9
ENDBRANCH   3   8
BRANCH   5  13
HETATM   13  C   UNL     3     -12.213  11.193  69.306  1.00  0.00    -0.295 C  
BRANCH  13  14
HETATM   14  C   UNL     3     -11.594  10.647  70.572  1.00  0.00    -0.444 C  
HETATM   15  C   UNL     3     -12.734  10.355  71.529  1.00  0.00    -0.459 C  
HETATM   16  O   UNL     3     -13.033   9.140  71.622  1.00  0.00    -0.328 OA 
HETATM   17  O   UNL     3     -13.192  11.385  72.094  1.00  0.00    -0.490 OA 
ENDBRANCH  13  14
ENDBRANCH   5  13
TORSDOF 4
ENDMDL
MODEL      136
REMARK 921   NORMALIZED FREE ENERGY PREDICTED BY IDOCK:   -4.00 KCAL/MOL
REMARK 922        TOTAL FREE ENERGY PREDICTED BY IDOCK:   -5.30 KCAL/MOL
REMARK 923 INTER-LIGAND FREE ENERGY PREDICTED BY IDOCK:   -4.72 KCAL/MOL
REMARK 924 INTRA-LIGAND FREE ENERGY PREDICTED BY IDOCK:   -0.58 KCAL/MOL
REMARK 927      BINDING AFFINITY PREDICTED BY RF-SCORE:    0.00 PKD
ROOT
HETATM    1 CA   UNL     1     -10.003   9.331  63.458  1.00  0.00    -0.443 Ca 
HETATM    2  C   UNL     2     -12.266  12.820  63.312  1.00  0.00    -0.500 C  
HETATM    3  C   UNL     2     -11.548  12.126  64.431  1.00  0.00    -0.350 C  
HETATM    4  C   UNL     3      -7.312   8.596  66.023  1.00  0.00    -0.085 C  
HETATM    5  C   UNL     3      -8.749   8.825  66.369  1.00  0.00    -0.139 C  
HETATM    6  O   UNL     3      -9.593   8.727  65.457  1.00  0.00    -0.138 OA 
HETATM    7  O   UNL     2     -10.764  11.206  64.143  1.00  0.00    -0.368 OA 
ENDROOT
BRANCH   3   8
HETATM    8  C   UNL     2     -11.817  12.551  65.850  1.00  0.00    -0.489 C  
BRANCH   8   9
HETATM    9  C   UNL     2     -12.455  13.926  65.896  1.00  0.00    -0.519 C  
HETATM   10  O   UNL     2     -10.521  15.222  65.906  1.00  0.00    -0.294 OA 
HETATM   11  O   UNL     2     -11.678  14.901  67.868  1.00  0.00    -0.340 OA 
HETATM   12  C   UNL     2     -11.448  14.788  66.636  1.00  0.00    -0.335 C  
ENDBRANCH   8   9
ENDBRANCH   3   8
BRANCH   5  13
HETATM   13  C   UNL     3      -9.101   9.273  67.768  1.00  0.00    -0.135 C  
BRANCH  13  14
HETATM   14  C   UNL     3      -9.785  10.620  67.705  1.00  0.00    -0.186 C  
HETATM   15  C   UNL     3      -8.691  11.668  67.667  1.00  0.00    -0.156 C  
HETATM   16  O   UNL     3      -8.486  12.162  66.531  1.00  0.00    -0.139 OA 
HETATM   17  O   UNL     3      -8.168  11.890  68.793  1.00  0.00    -0.106 OA 
ENDBRANCH  13  14
ENDBRANCH   5  13
TORSDOF 4
ENDMDL
MODEL      137
REMARK 921   NORMALIZED FREE ENERGY PREDICTED BY IDOCK:   -3.99 KCAL/MOL
REMARK 922        TOTAL FREE ENERGY PREDICTED BY IDOCK:   -5.29 KCAL/MOL
REMARK 923 INTER-LIGAND FREE ENERGY PREDICTED BY IDOCK:   -4.79 KCAL/MOL
REMARK 924 INTRA-LIGAND FREE ENERGY PREDICTED BY IDOCK:   -0.50 KCAL/MOL
REMARK 927      BINDING AFFINITY PREDICTED BY RF-SCORE:    0.00 PKD
ROOT
HETATM    1 CA   UNL     1     -12.521  16.179  68.297  1.00  0.00    -0.373 Ca 
HETATM    2  C   UNL     2      -9.989  19.467  68.602  1.00  0.00    -0.538 C  
HETATM    3  C   UNL     2      -9.880  18.173  67.851  1.00  0.00    -0.313 C  
HETATM    4  C   UNL     3     -12.590  13.757  65.383  1.00  0.00    -0.534 C  
HETATM    5  C   UNL     3     -11.395  13.972  66.255  1.00  0.00    -0.333 C  
HETATM    6  O   UNL     3     -11.569  14.522  67.361  1.00  0.00    -0.353 OA 
HETATM    7  O   UNL     2     -10.893  17.458  67.768  1.00  0.00    -0.361 OA 
ENDROOT
BRANCH   3   8
HETATM    8  C   UNL     2      -8.557  17.782  67.252  1.00  0.00    -0.238 C  
BRANCH   8   9
HETATM    9  C   UNL     2      -7.473  17.724  68.312  1.00  0.00    -0.247 C  
HETATM   10  O   UNL     2      -6.262  15.913  67.490  1.00  0.00    -0.146 OA 
HETATM   11  O   UNL     2      -7.671  15.612  69.283  1.00  0.00    -0.194 OA 
HETATM   12  C   UNL     2      -7.083  16.258  68.377  1.00  0.00    -0.136 C  
ENDBRANCH   8   9
ENDBRANCH   3   8
BRANCH   5  13
HETATM   13  C   UNL     3     -10.026  13.624  65.719  1.00  0.00    -0.277 C  
BRANCH  13  14
HETATM   14  C   UNL     3      -9.078  13.400  66.875  1.00  0.00    -0.237 C  
HETATM   15  C   UNL     3      -8.905  11.901  67.017  1.00  0.00    -0.190 C  
HETATM   16  O   UNL     3      -7.823  11.459  66.560  1.00  0.00    -0.153 OA 
HETATM   17  O   UNL     3      -9.876  11.335  67.591  1.00  0.00    -0.172 OA 
ENDBRANCH  13  14
ENDBRANCH   5  13
TORSDOF 4
ENDMDL
MODEL      138
REMARK 921   NORMALIZED FREE ENERGY PREDICTED BY IDOCK:   -3.99 KCAL/MOL
REMARK 922        TOTAL FREE ENERGY PREDICTED BY IDOCK:   -5.29 KCAL/MOL
REMARK 923 INTER-LIGAND FREE ENERGY PREDICTED BY IDOCK:   -4.65 KCAL/MOL
REMARK 924 INTRA-LIGAND FREE ENERGY PREDICTED BY IDOCK:   -0.64 KCAL/MOL
REMARK 927      BINDING AFFINITY PREDICTED BY RF-SCORE:    0.00 PKD
ROOT
HETATM    1 CA   UNL     1     -13.424  10.323  69.497  1.00  0.00    -0.591 Ca 
HETATM    2  C   UNL     2     -11.391   7.339  71.567  1.00  0.00    -0.280 C  
HETATM    3  C   UNL     2     -10.923   8.446  70.668  1.00  0.00    -0.243 C  
HETATM    4  C   UNL     3     -11.928  13.644  68.454  1.00  0.00    -0.391 C  
HETATM    5  C   UNL     3     -11.421  12.320  67.979  1.00  0.00    -0.321 C  
HETATM    6  O   UNL     3     -12.167  11.329  68.106  1.00  0.00    -0.622 OA 
HETATM    7  O   UNL     2     -11.738   9.331  70.357  1.00  0.00    -0.225 OA 
ENDROOT
BRANCH   3   8
HETATM    8  C   UNL     2      -9.505   8.433  70.166  1.00  0.00    -0.165 C  
BRANCH   8   9
HETATM    9  C   UNL     2      -9.361   9.278  68.914  1.00  0.00    -0.150 C  
HETATM   10  O   UNL     2     -10.559   7.938  67.434  1.00  0.00    -0.279 OA 
HETATM   11  O   UNL     2      -8.260   7.917  67.372  1.00  0.00    -0.120 OA 
HETATM   12  C   UNL     2      -9.397   8.277  67.773  1.00  0.00    -0.138 C  
ENDBRANCH   8   9
ENDBRANCH   3   8
BRANCH   5  13
HETATM   13  C   UNL     3     -10.000  12.218  67.477  1.00  0.00    -0.201 C  
BRANCH  13  14
HETATM   14  C   UNL     3      -9.992  12.332  65.970  1.00  0.00    -0.270 C  
HETATM   15  C   UNL     3      -9.441  11.026  65.433  1.00  0.00    -0.222 C  
HETATM   16  O   UNL     3     -10.312  10.247  64.973  1.00  0.00    -0.288 OA 
HETATM   17  O   UNL     3      -8.186  10.937  65.519  1.00  0.00    -0.143 OA 
ENDBRANCH  13  14
ENDBRANCH   5  13
TORSDOF 4
ENDMDL
MODEL      139
REMARK 921   NORMALIZED FREE ENERGY PREDICTED BY IDOCK:   -3.99 KCAL/MOL
REMARK 922        TOTAL FREE ENERGY PREDICTED BY IDOCK:   -5.28 KCAL/MOL
REMARK 923 INTER-LIGAND FREE ENERGY PREDICTED BY IDOCK:   -4.68 KCAL/MOL
REMARK 924 INTRA-LIGAND FREE ENERGY PREDICTED BY IDOCK:   -0.61 KCAL/MOL
REMARK 927      BINDING AFFINITY PREDICTED BY RF-SCORE:    0.00 PKD
ROOT
HETATM    1 CA   UNL     1     -10.955  18.409  70.952  1.00  0.00    -0.352 Ca 
HETATM    2  C   UNL     2      -9.571  20.709  67.771  1.00  0.00    -0.358 C  
HETATM    3  C   UNL     2     -10.053  19.291  67.860  1.00  0.00    -0.395 C  
HETATM    4  C   UNL     3     -13.274  15.430  70.626  1.00  0.00    -0.356 C  
HETATM    5  C   UNL     3     -11.915  15.495  70.007  1.00  0.00    -0.364 C  
HETATM    6  O   UNL     3     -11.116  16.350  70.438  1.00  0.00    -0.356 OA 
HETATM    7  O   UNL     2     -10.616  18.928  68.907  1.00  0.00    -0.013 OA 
ENDROOT
BRANCH   3   8
HETATM    8  C   UNL     2      -9.821  18.363  66.698  1.00  0.00    -0.362 C  
BRANCH   8   9
HETATM    9  C   UNL     2      -8.444  18.575  66.097  1.00  0.00    -0.153 C  
HETATM   10  O   UNL     2      -7.606  16.416  66.347  1.00  0.00    -0.259 OA 
HETATM   11  O   UNL     2      -6.940  18.065  67.806  1.00  0.00    -0.202 OA 
HETATM   12  C   UNL     2      -7.556  17.579  66.823  1.00  0.00    -0.226 C  
ENDBRANCH   8   9
ENDBRANCH   3   8
BRANCH   5  13
HETATM   13  C   UNL     3     -11.608  14.609  68.822  1.00  0.00    -0.346 C  
BRANCH  13  14
HETATM   14  C   UNL     3     -10.240  14.956  68.280  1.00  0.00    -0.225 C  
HETATM   15  C   UNL     3      -9.707  13.710  67.601  1.00  0.00    -0.228 C  
HETATM   16  O   UNL     3      -9.774  13.735  66.347  1.00  0.00    -0.282 OA 
HETATM   17  O   UNL     3      -9.264  12.848  68.407  1.00  0.00    -0.198 OA 
ENDBRANCH  13  14
ENDBRANCH   5  13
TORSDOF 4
ENDMDL
MODEL      140
REMARK 921   NORMALIZED FREE ENERGY PREDICTED BY IDOCK:   -3.97 KCAL/MOL
REMARK 922        TOTAL FREE ENERGY PREDICTED BY IDOCK:   -5.27 KCAL/MOL
REMARK 923 INTER-LIGAND FREE ENERGY PREDICTED BY IDOCK:   -4.91 KCAL/MOL
REMARK 924 INTRA-LIGAND FREE ENERGY PREDICTED BY IDOCK:   -0.36 KCAL/MOL
REMARK 927      BINDING AFFINITY PREDICTED BY RF-SCORE:    0.00 PKD
ROOT
HETATM    1 CA   UNL     1     -13.829  11.720  72.721  1.00  0.00    -0.603 Ca 
HETATM    2  C   UNL     2     -12.281   7.923  72.006  1.00  0.00    -0.357 C  
HETATM    3  C   UNL     2     -12.013   9.260  71.379  1.00  0.00    -0.351 C  
HETATM    4  C   UNL     3     -12.048  14.971  71.938  1.00  0.00    -0.443 C  
HETATM    5  C   UNL     3     -12.422  13.960  70.902  1.00  0.00    -0.375 C  
HETATM    6  O   UNL     3     -13.279  13.106  71.202  1.00  0.00    -0.180 OA 
HETATM    7  O   UNL     2     -12.465  10.271  71.942  1.00  0.00    -0.374 OA 
ENDROOT
BRANCH   3   8
HETATM    8  C   UNL     2     -11.233   9.324  70.094  1.00  0.00    -0.237 C  
BRANCH   8   9
HETATM    9  C   UNL     2     -10.651   7.968  69.741  1.00  0.00    -0.238 C  
HETATM   10  O   UNL     2      -8.465   8.313  70.465  1.00  0.00    -0.121 OA 
HETATM   11  O   UNL     2      -8.941   8.408  68.216  1.00  0.00    -0.139 OA 
HETATM   12  C   UNL     2      -9.189   8.248  69.440  1.00  0.00    -0.155 C  
ENDBRANCH   8   9
ENDBRANCH   3   8
BRANCH   5  13
HETATM   13  C   UNL     3     -11.672  13.944  69.591  1.00  0.00    -0.370 C  
BRANCH  13  14
HETATM   14  C   UNL     3     -10.982  15.275  69.394  1.00  0.00    -0.271 C  
HETATM   15  C   UNL     3     -10.089  15.132  68.177  1.00  0.00    -0.222 C  
HETATM   16  O   UNL     3     -10.546  15.662  67.135  1.00  0.00    -0.299 OA 
HETATM   17  O   UNL     3      -9.016  14.513  68.411  1.00  0.00    -0.175 OA 
ENDBRANCH  13  14
ENDBRANCH   5  13
TORSDOF 4
ENDMDL
MODEL      141
REMARK 921   NORMALIZED FREE ENERGY PREDICTED BY IDOCK:   -3.96 KCAL/MOL
REMARK 922        TOTAL FREE ENERGY PREDICTED BY IDOCK:   -5.26 KCAL/MOL
REMARK 923 INTER-LIGAND FREE ENERGY PREDICTED BY IDOCK:   -4.94 KCAL/MOL
REMARK 924 INTRA-LIGAND FREE ENERGY PREDICTED BY IDOCK:   -0.31 KCAL/MOL
REMARK 927      BINDING AFFINITY PREDICTED BY RF-SCORE:    0.00 PKD
ROOT
HETATM    1 CA   UNL     1      -7.972   7.255  69.727  1.00  0.00    -0.098 Ca 
HETATM    2  C   UNL     2     -10.926   5.640  72.172  1.00  0.00    -0.307 C  
HETATM    3  C   UNL     2     -10.947   6.740  71.152  1.00  0.00    -0.257 C  
HETATM    4  C   UNL     3      -8.607   9.021  66.435  1.00  0.00    -0.136 C  
HETATM    5  C   UNL     3      -9.134   9.501  67.750  1.00  0.00    -0.125 C  
HETATM    6  O   UNL     3      -8.608   9.056  68.788  1.00  0.00    -0.129 OA 
HETATM    7  O   UNL     2      -9.959   6.868  70.409  1.00  0.00    -0.179 OA 
ENDROOT
BRANCH   3   8
HETATM    8  C   UNL     2     -12.141   7.653  71.082  1.00  0.00    -0.322 C  
BRANCH   8   9
HETATM    9  C   UNL     2     -12.113   8.676  72.202  1.00  0.00    -0.451 C  
HETATM   10  O   UNL     2     -14.376   8.671  72.752  1.00  0.00    -0.520 OA 
HETATM   11  O   UNL     2     -13.520  10.400  71.499  1.00  0.00    -0.309 OA 
HETATM   12  C   UNL     2     -13.485   9.327  72.156  1.00  0.00    -0.473 C  
ENDBRANCH   8   9
ENDBRANCH   3   8
BRANCH   5  13
HETATM   13  C   UNL     3     -10.345  10.405  67.766  1.00  0.00    -0.245 C  
BRANCH  13  14
HETATM   14  C   UNL     3     -10.659  10.845  66.354  1.00  0.00    -0.289 C  
HETATM   15  C   UNL     3     -11.090  12.296  66.431  1.00  0.00    -0.303 C  
HETATM   16  O   UNL     3     -10.212  13.117  66.069  1.00  0.00    -0.275 OA 
HETATM   17  O   UNL     3     -12.275  12.448  66.835  1.00  0.00    -0.527 OA 
ENDBRANCH  13  14
ENDBRANCH   5  13
TORSDOF 4
ENDMDL
MODEL      142
REMARK 921   NORMALIZED FREE ENERGY PREDICTED BY IDOCK:   -3.96 KCAL/MOL
REMARK 922        TOTAL FREE ENERGY PREDICTED BY IDOCK:   -5.25 KCAL/MOL
REMARK 923 INTER-LIGAND FREE ENERGY PREDICTED BY IDOCK:   -4.74 KCAL/MOL
REMARK 924 INTRA-LIGAND FREE ENERGY PREDICTED BY IDOCK:   -0.51 KCAL/MOL
REMARK 927      BINDING AFFINITY PREDICTED BY RF-SCORE:    0.00 PKD
ROOT
HETATM    1 CA   UNL     1      -8.314   5.799  68.609  1.00  0.00    -0.098 Ca 
HETATM    2  C   UNL     2      -6.952   9.557  67.451  1.00  0.00    -0.084 C  
HETATM    3  C   UNL     2      -8.149   9.114  68.240  1.00  0.00    -0.104 C  
HETATM    4  C   UNL     3     -10.525   5.124  71.611  1.00  0.00    -0.255 C  
HETATM    5  C   UNL     3     -10.934   5.980  70.456  1.00  0.00    -0.319 C  
HETATM    6  O   UNL     3     -10.291   5.873  69.393  1.00  0.00    -0.199 OA 
HETATM    7  O   UNL     2      -8.192   7.933  68.623  1.00  0.00    -0.124 OA 
ENDROOT
BRANCH   3   8
HETATM    8  C   UNL     2      -9.251  10.100  68.516  1.00  0.00    -0.144 C  
BRANCH   8   9
HETATM    9  C   UNL     2     -10.570   9.620  67.939  1.00  0.00    -0.308 C  
HETATM   10  O   UNL     2     -10.895  11.287  66.346  1.00  0.00    -0.271 OA 
HETATM   11  O   UNL     2     -12.079  11.360  68.317  1.00  0.00    -0.606 OA 
HETATM   12  C   UNL     2     -11.267  10.888  67.479  1.00  0.00    -0.293 C  
ENDBRANCH   8   9
ENDBRANCH   3   8
BRANCH   5  13
HETATM   13  C   UNL     3     -12.021   7.010  70.657  1.00  0.00    -0.361 C  
BRANCH  13  14
HETATM   14  C   UNL     3     -11.882   7.622  72.032  1.00  0.00    -0.342 C  
HETATM   15  C   UNL     3     -12.540   8.986  71.976  1.00  0.00    -0.394 C  
HETATM   16  O   UNL     3     -13.678   9.034  72.504  1.00  0.00    -0.472 OA 
HETATM   17  O   UNL     3     -11.828   9.865  71.418  1.00  0.00    -0.369 OA 
ENDBRANCH  13  14
ENDBRANCH   5  13
TORSDOF 4
ENDMDL
MODEL      143
REMARK 921   NORMALIZED FREE ENERGY PREDICTED BY IDOCK:   -3.95 KCAL/MOL
REMARK 922        TOTAL FREE ENERGY PREDICTED BY IDOCK:   -5.24 KCAL/MOL
REMARK 923 INTER-LIGAND FREE ENERGY PREDICTED BY IDOCK:   -4.91 KCAL/MOL
REMARK 924 INTRA-LIGAND FREE ENERGY PREDICTED BY IDOCK:   -0.33 KCAL/MOL
REMARK 927      BINDING AFFINITY PREDICTED BY RF-SCORE:    0.00 PKD
ROOT
HETATM    1 CA   UNL     1      -9.692   7.845  65.291  1.00  0.00    -0.406 Ca 
HETATM    2  C   UNL     2     -10.415  11.531  63.500  1.00  0.00    -0.486 C  
HETATM    3  C   UNL     2     -10.499  11.064  64.923  1.00  0.00    -0.303 C  
HETATM    4  C   UNL     3      -8.718   7.350  68.919  1.00  0.00    -0.132 C  
HETATM    5  C   UNL     3     -10.007   7.971  68.483  1.00  0.00    -0.192 C  
HETATM    6  O   UNL     3     -10.374   7.788  67.306  1.00  0.00    -0.242 OA 
HETATM    7  O   UNL     2     -10.013   9.956  65.205  1.00  0.00    -0.318 OA 
ENDROOT
BRANCH   3   8
HETATM    8  C   UNL     2     -11.180  11.936  65.942  1.00  0.00    -0.373 C  
BRANCH   8   9
HETATM    9  C   UNL     2     -10.885  11.462  67.353  1.00  0.00    -0.301 C  
HETATM   10  O   UNL     2     -11.834  13.229  68.535  1.00  0.00    -0.323 OA 
HETATM   11  O   UNL     2      -9.548  13.125  68.297  1.00  0.00    -0.222 OA 
HETATM   12  C   UNL     2     -10.738  12.739  68.161  1.00  0.00    -0.226 C  
ENDBRANCH   8   9
ENDBRANCH   3   8
BRANCH   5  13
HETATM   13  C   UNL     3     -10.743   8.877  69.442  1.00  0.00    -0.192 C  
BRANCH  13  14
HETATM   14  C   UNL     3     -11.468   8.037  70.468  1.00  0.00    -0.192 C  
HETATM   15  C   UNL     3     -11.330   8.750  71.798  1.00  0.00    -0.339 C  
HETATM   16  O   UNL     3     -12.359   9.371  72.161  1.00  0.00    -0.354 OA 
HETATM   17  O   UNL     3     -10.202   8.592  72.339  1.00  0.00    -0.312 OA 
ENDBRANCH  13  14
ENDBRANCH   5  13
TORSDOF 4
ENDMDL
MODEL      144
REMARK 921   NORMALIZED FREE ENERGY PREDICTED BY IDOCK:   -3.94 KCAL/MOL
REMARK 922        TOTAL FREE ENERGY PREDICTED BY IDOCK:   -5.23 KCAL/MOL
REMARK 923 INTER-LIGAND FREE ENERGY PREDICTED BY IDOCK:   -4.81 KCAL/MOL
REMARK 924 INTRA-LIGAND FREE ENERGY PREDICTED BY IDOCK:   -0.42 KCAL/MOL
REMARK 927      BINDING AFFINITY PREDICTED BY RF-SCORE:    0.00 PKD
ROOT
HETATM    1 CA   UNL     1      -8.818  12.344  65.574  1.00  0.00    -0.381 Ca 
HETATM    2  C   UNL     2      -8.460   8.528  67.196  1.00  0.00    -0.118 C  
HETATM    3  C   UNL     2      -9.062   9.798  67.721  1.00  0.00    -0.131 C  
HETATM    4  C   UNL     3     -11.471  14.871  66.540  1.00  0.00    -0.286 C  
HETATM    5  C   UNL     3     -10.459  14.324  67.496  1.00  0.00    -0.252 C  
HETATM    6  O   UNL     3      -9.447  13.772  67.022  1.00  0.00    -0.236 OA 
HETATM    7  O   UNL     2      -9.223  10.741  66.928  1.00  0.00    -0.154 OA 
ENDROOT
BRANCH   3   8
HETATM    8  C   UNL     2      -9.425   9.890  69.178  1.00  0.00    -0.201 C  
BRANCH   8   9
HETATM    9  C   UNL     2     -10.734   9.176  69.461  1.00  0.00    -0.226 C  
HETATM   10  O   UNL     2     -12.191  10.973  69.194  1.00  0.00    -0.434 OA 
HETATM   11  O   UNL     2     -11.644  10.264  71.313  1.00  0.00    -0.344 OA 
HETATM   12  C   UNL     2     -11.631  10.247  70.055  1.00  0.00    -0.276 C  
ENDBRANCH   8   9
ENDBRANCH   3   8
BRANCH   5  13
HETATM   13  C   UNL     3     -10.757  14.360  68.976  1.00  0.00    -0.261 C  
BRANCH  13  14
HETATM   14  C   UNL     3     -11.797  15.422  69.252  1.00  0.00    -0.365 C  
HETATM   15  C   UNL     3     -12.248  15.235  70.687  1.00  0.00    -0.364 C  
HETATM   16  O   UNL     3     -11.761  16.065  71.494  1.00  0.00    -0.427 OA 
HETATM   17  O   UNL     3     -13.057  14.280  70.840  1.00  0.00    -0.350 OA 
ENDBRANCH  13  14
ENDBRANCH   5  13
TORSDOF 4
ENDMDL
MODEL      145
REMARK 921   NORMALIZED FREE ENERGY PREDICTED BY IDOCK:   -3.92 KCAL/MOL
REMARK 922        TOTAL FREE ENERGY PREDICTED BY IDOCK:   -5.20 KCAL/MOL
REMARK 923 INTER-LIGAND FREE ENERGY PREDICTED BY IDOCK:   -4.78 KCAL/MOL
REMARK 924 INTRA-LIGAND FREE ENERGY PREDICTED BY IDOCK:   -0.42 KCAL/MOL
REMARK 927      BINDING AFFINITY PREDICTED BY RF-SCORE:    0.00 PKD
ROOT
HETATM    1 CA   UNL     1     -10.006   9.329  63.460  1.00  0.00    -0.443 Ca 
HETATM    2  C   UNL     2     -12.308  12.794  63.331  1.00  0.00    -0.531 C  
HETATM    3  C   UNL     2     -11.585  12.101  64.448  1.00  0.00    -0.350 C  
HETATM    4  C   UNL     3      -7.314   8.608  66.027  1.00  0.00    -0.085 C  
HETATM    5  C   UNL     3      -8.754   8.819  66.372  1.00  0.00    -0.139 C  
HETATM    6  O   UNL     3      -9.595   8.718  65.456  1.00  0.00    -0.138 OA 
HETATM    7  O   UNL     2     -10.790  11.192  64.155  1.00  0.00    -0.370 OA 
ENDROOT
BRANCH   3   8
HETATM    8  C   UNL     2     -11.862  12.513  65.868  1.00  0.00    -0.489 C  
BRANCH   8   9
HETATM    9  C   UNL     2     -12.519  13.880  65.922  1.00  0.00    -0.519 C  
HETATM   10  O   UNL     2     -10.601  15.201  65.943  1.00  0.00    -0.305 OA 
HETATM   11  O   UNL     2     -11.757  14.853  67.901  1.00  0.00    -0.340 OA 
HETATM   12  C   UNL     2     -11.523  14.751  66.668  1.00  0.00    -0.335 C  
ENDBRANCH   8   9
ENDBRANCH   3   8
BRANCH   5  13
HETATM   13  C   UNL     3      -9.115   9.254  67.772  1.00  0.00    -0.135 C  
BRANCH  13  14
HETATM   14  C   UNL     3      -8.486   8.306  68.768  1.00  0.00    -0.125 C  
HETATM   15  C   UNL     3      -9.432   7.130  68.914  1.00  0.00    -0.142 C  
HETATM   16  O   UNL     3      -9.071   6.096  68.301  1.00  0.00    -0.115 OA 
HETATM   17  O   UNL     3     -10.429   7.375  69.647  1.00  0.00    -0.221 OA 
ENDBRANCH  13  14
ENDBRANCH   5  13
TORSDOF 4
ENDMDL
MODEL      146
REMARK 921   NORMALIZED FREE ENERGY PREDICTED BY IDOCK:   -3.92 KCAL/MOL
REMARK 922        TOTAL FREE ENERGY PREDICTED BY IDOCK:   -5.20 KCAL/MOL
REMARK 923 INTER-LIGAND FREE ENERGY PREDICTED BY IDOCK:   -4.84 KCAL/MOL
REMARK 924 INTRA-LIGAND FREE ENERGY PREDICTED BY IDOCK:   -0.36 KCAL/MOL
REMARK 927      BINDING AFFINITY PREDICTED BY RF-SCORE:    0.00 PKD
ROOT
HETATM    1 CA   UNL     1     -12.782  12.912  68.291  1.00  0.00    -0.196 Ca 
HETATM    2  C   UNL     2     -12.611  10.485  71.667  1.00  0.00    -0.498 C  
HETATM    3  C   UNL     2     -11.700  10.640  70.485  1.00  0.00    -0.356 C  
HETATM    4  C   UNL     3      -9.782  14.005  66.251  1.00  0.00    -0.311 C  
HETATM    5  C   UNL     3     -10.188  12.577  66.430  1.00  0.00    -0.244 C  
HETATM    6  O   UNL     3     -11.347  12.345  66.825  1.00  0.00    -0.295 OA 
HETATM    7  O   UNL     2     -11.888  11.604  69.724  1.00  0.00    -0.308 OA 
ENDROOT
BRANCH   3   8
HETATM    8  C   UNL     2     -10.618   9.620  70.255  1.00  0.00    -0.333 C  
BRANCH   8   9
HETATM    9  C   UNL     2     -10.504   8.670  71.432  1.00  0.00    -0.327 C  
HETATM   10  O   UNL     2      -8.248   8.974  71.924  1.00  0.00    -0.362 OA 
HETATM   11  O   UNL     2      -8.915   7.085  70.794  1.00  0.00    -0.149 OA 
HETATM   12  C   UNL     2      -9.066   8.183  71.389  1.00  0.00    -0.153 C  
ENDBRANCH   8   9
ENDBRANCH   3   8
BRANCH   5  13
HETATM   13  C   UNL     3      -9.154  11.493  66.237  1.00  0.00    -0.215 C  
BRANCH  13  14
HETATM   14  C   UNL     3      -9.845  10.208  65.841  1.00  0.00    -0.308 C  
HETATM   15  C   UNL     3      -9.582  10.005  64.361  1.00  0.00    -0.258 C  
HETATM   16  O   UNL     3      -8.703   9.147  64.105  1.00  0.00    -0.198 OA 
HETATM   17  O   UNL     3     -10.305  10.724  63.619  1.00  0.00    -0.327 OA 
ENDBRANCH  13  14
ENDBRANCH   5  13
TORSDOF 4
ENDMDL
MODEL      147
REMARK 921   NORMALIZED FREE ENERGY PREDICTED BY IDOCK:   -3.91 KCAL/MOL
REMARK 922        TOTAL FREE ENERGY PREDICTED BY IDOCK:   -5.19 KCAL/MOL
REMARK 923 INTER-LIGAND FREE ENERGY PREDICTED BY IDOCK:   -4.76 KCAL/MOL
REMARK 924 INTRA-LIGAND FREE ENERGY PREDICTED BY IDOCK:   -0.43 KCAL/MOL
REMARK 927      BINDING AFFINITY PREDICTED BY RF-SCORE:    0.00 PKD
ROOT
HETATM    1 CA   UNL     1     -12.826  15.050  65.123  1.00  0.00    -0.312 Ca 
HETATM    2  C   UNL     2     -10.215  18.130  66.131  1.00  0.00    -0.372 C  
HETATM    3  C   UNL     2     -10.006  16.663  65.895  1.00  0.00    -0.295 C  
HETATM    4  C   UNL     3     -11.828  11.855  63.346  1.00  0.00    -0.512 C  
HETATM    5  C   UNL     3     -11.294  12.264  64.681  1.00  0.00    -0.322 C  
HETATM    6  O   UNL     3     -11.916  13.136  65.318  1.00  0.00    -0.352 OA 
HETATM    7  O   UNL     2     -10.937  16.013  65.391  1.00  0.00    -0.321 OA 
ENDROOT
BRANCH   3   8
HETATM    8  C   UNL     2      -8.698  16.035  66.293  1.00  0.00    -0.372 C  
BRANCH   8   9
HETATM    9  C   UNL     2      -8.905  14.624  66.809  1.00  0.00    -0.269 C  
HETATM   10  O   UNL     2     -10.101  15.119  68.745  1.00  0.00    -0.212 OA 
HETATM   11  O   UNL     2      -7.871  14.574  68.901  1.00  0.00    -0.138 OA 
HETATM   12  C   UNL     2      -8.969  14.777  68.319  1.00  0.00    -0.181 C  
ENDBRANCH   8   9
ENDBRANCH   3   8
BRANCH   5  13
HETATM   13  C   UNL     3      -9.974  11.693  65.146  1.00  0.00    -0.297 C  
BRANCH  13  14
HETATM   14  C   UNL     3     -10.129  11.155  66.550  1.00  0.00    -0.265 C  
HETATM   15  C   UNL     3      -9.293   9.893  66.632  1.00  0.00    -0.157 C  
HETATM   16  O   UNL     3      -8.199  10.035  67.232  1.00  0.00    -0.116 OA 
HETATM   17  O   UNL     3      -9.840   8.891  66.095  1.00  0.00    -0.271 OA 
ENDBRANCH  13  14
ENDBRANCH   5  13
TORSDOF 4
ENDMDL
MODEL      148
REMARK 921   NORMALIZED FREE ENERGY PREDICTED BY IDOCK:   -3.91 KCAL/MOL
REMARK 922        TOTAL FREE ENERGY PREDICTED BY IDOCK:   -5.19 KCAL/MOL
REMARK 923 INTER-LIGAND FREE ENERGY PREDICTED BY IDOCK:   -4.63 KCAL/MOL
REMARK 924 INTRA-LIGAND FREE ENERGY PREDICTED BY IDOCK:   -0.56 KCAL/MOL
REMARK 927      BINDING AFFINITY PREDICTED BY RF-SCORE:    0.00 PKD
ROOT
HETATM    1 CA   UNL     1      -9.365  12.538  64.314  1.00  0.00    -0.435 Ca 
HETATM    2  C   UNL     2      -8.638   9.842  67.400  1.00  0.00    -0.125 C  
HETATM    3  C   UNL     2      -9.326  11.175  67.362  1.00  0.00    -0.164 C  
HETATM    4  C   UNL     3     -12.187  15.066  64.263  1.00  0.00    -0.312 C  
HETATM    5  C   UNL     3     -11.102  15.054  65.292  1.00  0.00    -0.386 C  
HETATM    6  O   UNL     3     -10.063  14.413  65.039  1.00  0.00    -0.390 OA 
HETATM    7  O   UNL     2      -9.591  11.665  66.252  1.00  0.00    -0.209 OA 
ENDROOT
BRANCH   3   8
HETATM    8  C   UNL     2      -9.647  11.872  68.656  1.00  0.00    -0.101 C  
BRANCH   8   9
HETATM    9  C   UNL     2     -10.962  12.623  68.561  1.00  0.00    -0.292 C  
HETATM   10  O   UNL     2     -11.858  12.046  70.631  1.00  0.00    -0.260 OA 
HETATM   11  O   UNL     2     -12.620  10.990  68.734  1.00  0.00    -0.350 OA 
HETATM   12  C   UNL     2     -11.929  11.805  69.399  1.00  0.00    -0.298 C  
ENDBRANCH   8   9
ENDBRANCH   3   8
BRANCH   5  13
HETATM   13  C   UNL     3     -11.353  15.715  66.627  1.00  0.00     0.037 C  
BRANCH  13  14
HETATM   14  C   UNL     3     -10.081  16.377  67.104  1.00  0.00    -0.271 C  
HETATM   15  C   UNL     3     -10.401  17.844  67.315  1.00  0.00    -0.369 C  
HETATM   16  O   UNL     3     -10.554  18.174  68.516  1.00  0.00    -0.296 OA 
HETATM   17  O   UNL     3     -10.447  18.508  66.243  1.00  0.00    -0.408 OA 
ENDBRANCH  13  14
ENDBRANCH   5  13
TORSDOF 4
ENDMDL
MODEL      149
REMARK 921   NORMALIZED FREE ENERGY PREDICTED BY IDOCK:   -3.91 KCAL/MOL
REMARK 922        TOTAL FREE ENERGY PREDICTED BY IDOCK:   -5.19 KCAL/MOL
REMARK 923 INTER-LIGAND FREE ENERGY PREDICTED BY IDOCK:   -4.68 KCAL/MOL
REMARK 924 INTRA-LIGAND FREE ENERGY PREDICTED BY IDOCK:   -0.51 KCAL/MOL
REMARK 927      BINDING AFFINITY PREDICTED BY RF-SCORE:    0.00 PKD
ROOT
HETATM    1 CA   UNL     1     -13.439   9.555  70.243  1.00  0.00    -0.533 Ca 
HETATM    2  C   UNL     2     -11.102   6.115  70.391  1.00  0.00    -0.420 C  
HETATM    3  C   UNL     2     -10.803   7.524  69.970  1.00  0.00    -0.249 C  
HETATM    4  C   UNL     3     -12.101  13.096  70.418  1.00  0.00    -0.392 C  
HETATM    5  C   UNL     3     -11.747  12.128  69.335  1.00  0.00    -0.329 C  
HETATM    6  O   UNL     3     -12.478  11.129  69.181  1.00  0.00    -0.418 OA 
HETATM    7  O   UNL     2     -11.639   8.404  70.236  1.00  0.00    -0.148 OA 
ENDROOT
BRANCH   3   8
HETATM    8  C   UNL     2      -9.526   7.813  69.229  1.00  0.00    -0.155 C  
BRANCH   8   9
HETATM    9  C   UNL     2      -9.779   8.714  68.034  1.00  0.00    -0.184 C  
HETATM   10  O   UNL     2      -9.007   7.303  66.350  1.00  0.00    -0.148 OA 
HETATM   11  O   UNL     2      -7.685   9.047  67.059  1.00  0.00    -0.096 OA 
HETATM   12  C   UNL     2      -8.711   8.319  67.029  1.00  0.00    -0.127 C  
ENDBRANCH   8   9
ENDBRANCH   3   8
BRANCH   5  13
HETATM   13  C   UNL     3     -10.468  12.336  68.558  1.00  0.00    -0.248 C  
BRANCH  13  14
HETATM   14  C   UNL     3     -10.313  13.804  68.235  1.00  0.00    -0.247 C  
HETATM   15  C   UNL     3     -10.857  14.008  66.834  1.00  0.00    -0.290 C  
HETATM   16  O   UNL     3     -12.000  14.526  66.794  1.00  0.00    -0.397 OA 
HETATM   17  O   UNL     3     -10.064  13.636  65.928  1.00  0.00    -0.298 OA 
ENDBRANCH  13  14
ENDBRANCH   5  13
TORSDOF 4
ENDMDL
MODEL      150
REMARK 921   NORMALIZED FREE ENERGY PREDICTED BY IDOCK:   -3.90 KCAL/MOL
REMARK 922        TOTAL FREE ENERGY PREDICTED BY IDOCK:   -5.18 KCAL/MOL
REMARK 923 INTER-LIGAND FREE ENERGY PREDICTED BY IDOCK:   -4.80 KCAL/MOL
REMARK 924 INTRA-LIGAND FREE ENERGY PREDICTED BY IDOCK:   -0.38 KCAL/MOL
REMARK 927      BINDING AFFINITY PREDICTED BY RF-SCORE:    0.00 PKD
ROOT
HETATM    1 CA   UNL     1     -10.454   8.828  66.292  1.00  0.00    -0.251 Ca 
HETATM    2  C   UNL     2     -10.522  12.435  68.367  1.00  0.00    -0.245 C  
HETATM    3  C   UNL     2     -10.698  11.011  68.807  1.00  0.00    -0.203 C  
HETATM    4  C   UNL     3      -9.615   5.463  67.818  1.00  0.00    -0.147 C  
HETATM    5  C   UNL     3     -10.775   6.303  68.247  1.00  0.00    -0.288 C  
HETATM    6  O   UNL     3     -11.156   7.209  67.480  1.00  0.00    -0.208 OA 
HETATM    7  O   UNL     2     -10.411  10.110  68.001  1.00  0.00    -0.168 OA 
ENDROOT
BRANCH   3   8
HETATM    8  C   UNL     2     -11.232  10.730  70.185  1.00  0.00    -0.345 C  
BRANCH   8   9
HETATM    9  C   UNL     2     -12.729  10.482  70.151  1.00  0.00    -0.191 C  
HETATM   10  O   UNL     2     -13.343  11.729  72.019  1.00  0.00    -0.487 OA 
HETATM   11  O   UNL     2     -13.228   9.436  72.176  1.00  0.00    -0.403 OA 
HETATM   12  C   UNL     2     -13.159  10.556  71.605  1.00  0.00    -0.446 C  
ENDBRANCH   8   9
ENDBRANCH   3   8
BRANCH   5  13
HETATM   13  C   UNL     3     -11.357   6.096  69.626  1.00  0.00    -0.442 C  
BRANCH  13  14
HETATM   14  C   UNL     3     -10.256   5.687  70.577  1.00  0.00    -0.297 C  
HETATM   15  C   UNL     3     -10.727   6.037  71.975  1.00  0.00    -0.235 C  
HETATM   16  O   UNL     3     -11.130   5.056  72.646  1.00  0.00    -0.234 OA 
HETATM   17  O   UNL     3     -10.624   7.264  72.247  1.00  0.00    -0.211 OA 
ENDBRANCH  13  14
ENDBRANCH   5  13
TORSDOF 4
ENDMDL
MODEL      151
REMARK 921   NORMALIZED FREE ENERGY PREDICTED BY IDOCK:   -3.87 KCAL/MOL
REMARK 922        TOTAL FREE ENERGY PREDICTED BY IDOCK:   -5.14 KCAL/MOL
REMARK 923 INTER-LIGAND FREE ENERGY PREDICTED BY IDOCK:   -4.72 KCAL/MOL
REMARK 924 INTRA-LIGAND FREE ENERGY PREDICTED BY IDOCK:   -0.42 KCAL/MOL
REMARK 927      BINDING AFFINITY PREDICTED BY RF-SCORE:    0.00 PKD
ROOT
HETATM    1 CA   UNL     1      -9.890   8.065  72.590  1.00  0.00    -0.152 Ca 
HETATM    2  C   UNL     2     -13.895   9.196  72.553  1.00  0.00    -0.485 C  
HETATM    3  C   UNL     2     -12.739   9.536  71.659  1.00  0.00    -0.388 C  
HETATM    4  C   UNL     3      -7.625   8.005  69.552  1.00  0.00    -0.101 C  
HETATM    5  C   UNL     3      -8.279   9.244  70.076  1.00  0.00    -0.154 C  
HETATM    6  O   UNL     3      -8.720   9.224  71.242  1.00  0.00    -0.301 OA 
HETATM    7  O   UNL     2     -11.692   8.878  71.779  1.00  0.00    -0.314 OA 
ENDROOT
BRANCH   3   8
HETATM    8  C   UNL     2     -12.882  10.664  70.674  1.00  0.00    -0.404 C  
BRANCH   8   9
HETATM    9  C   UNL     2     -11.553  10.986  70.015  1.00  0.00    -0.427 C  
HETATM   10  O   UNL     2     -12.014  13.158  69.315  1.00  0.00    -0.311 OA 
HETATM   11  O   UNL     2     -12.063  11.441  67.785  1.00  0.00    -0.637 OA 
HETATM   12  C   UNL     2     -11.903  11.972  68.915  1.00  0.00    -0.299 C  
ENDBRANCH   8   9
ENDBRANCH   3   8
BRANCH   5  13
HETATM   13  C   UNL     3      -8.478  10.416  69.144  1.00  0.00    -0.168 C  
BRANCH  13  14
HETATM   14  C   UNL     3      -8.806   9.904  67.760  1.00  0.00    -0.129 C  
HETATM   15  C   UNL     3      -8.261  10.918  66.774  1.00  0.00    -0.140 C  
HETATM   16  O   UNL     3      -7.191  10.574  66.216  1.00  0.00    -0.119 OA 
HETATM   17  O   UNL     3      -8.984  11.946  66.659  1.00  0.00    -0.191 OA 
ENDBRANCH  13  14
ENDBRANCH   5  13
TORSDOF 4
ENDMDL
MODEL      152
REMARK 921   NORMALIZED FREE ENERGY PREDICTED BY IDOCK:   -3.87 KCAL/MOL
REMARK 922        TOTAL FREE ENERGY PREDICTED BY IDOCK:   -5.14 KCAL/MOL
REMARK 923 INTER-LIGAND FREE ENERGY PREDICTED BY IDOCK:   -4.58 KCAL/MOL
REMARK 924 INTRA-LIGAND FREE ENERGY PREDICTED BY IDOCK:   -0.56 KCAL/MOL
REMARK 927      BINDING AFFINITY PREDICTED BY RF-SCORE:    0.00 PKD
ROOT
HETATM    1 CA   UNL     1      -9.377   5.666  69.680  1.00  0.00    -0.121 Ca 
HETATM    2  C   UNL     2      -9.730   8.354  66.522  1.00  0.00    -0.330 C  
HETATM    3  C   UNL     2     -10.182   8.407  67.952  1.00  0.00    -0.217 C  
HETATM    4  C   UNL     3      -9.417   6.613  73.349  1.00  0.00    -0.163 C  
HETATM    5  C   UNL     3     -10.560   6.856  72.417  1.00  0.00    -0.211 C  
HETATM    6  O   UNL     3     -10.583   6.224  71.342  1.00  0.00    -0.223 OA 
HETATM    7  O   UNL     2      -9.747   7.547  68.736  1.00  0.00    -0.148 OA 
ENDROOT
BRANCH   3   8
HETATM    8  C   UNL     2     -11.152   9.477  68.374  1.00  0.00    -0.036 C  
BRANCH   8   9
HETATM    9  C   UNL     2     -10.551  10.366  69.447  1.00  0.00    -0.267 C  
HETATM   10  O   UNL     2     -11.847  12.270  69.106  1.00  0.00    -0.300 OA 
HETATM   11  O   UNL     2      -9.690  12.212  68.309  1.00  0.00    -0.209 OA 
HETATM   12  C   UNL     2     -10.709  11.776  68.905  1.00  0.00    -0.205 C  
ENDBRANCH   8   9
ENDBRANCH   3   8
BRANCH   5  13
HETATM   13  C   UNL     3     -11.568   7.928  72.759  1.00  0.00    -0.387 C  
BRANCH  13  14
HETATM   14  C   UNL     3     -12.447   8.191  71.557  1.00  0.00    -0.333 C  
HETATM   15  C   UNL     3     -13.434   9.268  71.961  1.00  0.00    -0.451 C  
HETATM   16  O   UNL     3     -13.164  10.410  71.516  1.00  0.00    -0.391 OA 
HETATM   17  O   UNL     3     -14.384   8.839  72.671  1.00  0.00    -0.585 OA 
ENDBRANCH  13  14
ENDBRANCH   5  13
TORSDOF 4
ENDMDL
MODEL      153
REMARK 921   NORMALIZED FREE ENERGY PREDICTED BY IDOCK:   -3.86 KCAL/MOL
REMARK 922        TOTAL FREE ENERGY PREDICTED BY IDOCK:   -5.13 KCAL/MOL
REMARK 923 INTER-LIGAND FREE ENERGY PREDICTED BY IDOCK:   -4.74 KCAL/MOL
REMARK 924 INTRA-LIGAND FREE ENERGY PREDICTED BY IDOCK:   -0.39 KCAL/MOL
REMARK 927      BINDING AFFINITY PREDICTED BY RF-SCORE:    0.00 PKD
ROOT
HETATM    1 CA   UNL     1     -11.975  16.743  68.422  1.00  0.00    -0.312 Ca 
HETATM    2  C   UNL     2     -11.860  12.587  68.605  1.00  0.00    -0.340 C  
HETATM    3  C   UNL     2     -10.920  13.600  68.021  1.00  0.00    -0.250 C  
HETATM    4  C   UNL     3      -8.937  18.985  68.104  1.00  0.00    -0.355 C  
HETATM    5  C   UNL     3      -9.327  17.967  67.081  1.00  0.00    -0.265 C  
HETATM    6  O   UNL     3     -10.493  17.526  67.110  1.00  0.00    -0.335 OA 
HETATM    7  O   UNL     2     -11.100  14.797  68.304  1.00  0.00    -0.255 OA 
ENDROOT
BRANCH   3   8
HETATM    8  C   UNL     2      -9.817  13.138  67.108  1.00  0.00    -0.235 C  
BRANCH   8   9
HETATM    9  C   UNL     2      -9.614  14.110  65.961  1.00  0.00    -0.251 C  
HETATM   10  O   UNL     2     -11.771  14.091  65.085  1.00  0.00    -0.325 OA 
HETATM   11  O   UNL     2     -10.110  12.900  64.029  1.00  0.00    -0.349 OA 
HETATM   12  C   UNL     2     -10.604  13.661  64.901  1.00  0.00    -0.408 C  
ENDBRANCH   8   9
ENDBRANCH   3   8
BRANCH   5  13
HETATM   13  C   UNL     3      -8.273  17.436  66.138  1.00  0.00    -0.237 C  
BRANCH  13  14
HETATM   14  C   UNL     3      -6.994  18.218  66.326  1.00  0.00    -0.284 C  
HETATM   15  C   UNL     3      -5.928  17.226  66.747  1.00  0.00    -0.196 C  
HETATM   16  O   UNL     3      -5.130  16.905  65.833  1.00  0.00    -0.225 OA 
HETATM   17  O   UNL     3      -6.004  16.892  67.961  1.00  0.00    -0.117 OA 
ENDBRANCH  13  14
ENDBRANCH   5  13
TORSDOF 4
ENDMDL
MODEL      154
REMARK 921   NORMALIZED FREE ENERGY PREDICTED BY IDOCK:   -3.86 KCAL/MOL
REMARK 922        TOTAL FREE ENERGY PREDICTED BY IDOCK:   -5.13 KCAL/MOL
REMARK 923 INTER-LIGAND FREE ENERGY PREDICTED BY IDOCK:   -4.70 KCAL/MOL
REMARK 924 INTRA-LIGAND FREE ENERGY PREDICTED BY IDOCK:   -0.43 KCAL/MOL
REMARK 927      BINDING AFFINITY PREDICTED BY RF-SCORE:    0.00 PKD
ROOT
HETATM    1 CA   UNL     1      -9.485   8.233  64.480  1.00  0.00    -0.397 Ca 
HETATM    2  C   UNL     2     -10.580   6.303  68.000  1.00  0.00    -0.326 C  
HETATM    3  C   UNL     2     -10.566   7.749  67.602  1.00  0.00    -0.213 C  
HETATM    4  C   UNL     3     -10.787  11.612  63.364  1.00  0.00    -0.453 C  
HETATM    5  C   UNL     3     -10.010  11.397  64.623  1.00  0.00    -0.268 C  
HETATM    6  O   UNL     3      -9.354  10.342  64.733  1.00  0.00    -0.206 OA 
HETATM    7  O   UNL     2     -10.394   8.024  66.403  1.00  0.00    -0.191 OA 
ENDROOT
BRANCH   3   8
HETATM    8  C   UNL     2     -10.738   8.804  68.661  1.00  0.00    -0.109 C  
BRANCH   8   9
HETATM    9  C   UNL     2      -9.545   8.834  69.600  1.00  0.00    -0.171 C  
HETATM   10  O   UNL     2      -8.751  10.966  69.103  1.00  0.00    -0.137 OA 
HETATM   11  O   UNL     2      -7.684   9.127  68.223  1.00  0.00    -0.090 OA 
HETATM   12  C   UNL     2      -8.542   9.741  68.909  1.00  0.00    -0.134 C  
ENDBRANCH   8   9
ENDBRANCH   3   8
BRANCH   5  13
HETATM   13  C   UNL     3     -10.144  12.400  65.745  1.00  0.00    -0.273 C  
BRANCH  13  14
HETATM   14  C   UNL     3     -10.522  13.746  65.170  1.00  0.00    -0.399 C  
HETATM   15  C   UNL     3     -11.787  14.188  65.879  1.00  0.00    -0.384 C  
HETATM   16  O   UNL     3     -11.607  15.061  66.763  1.00  0.00    -0.312 OA 
HETATM   17  O   UNL     3     -12.828  13.617  65.454  1.00  0.00    -0.634 OA 
ENDBRANCH  13  14
ENDBRANCH   5  13
TORSDOF 4
ENDMDL
MODEL      155
REMARK 921   NORMALIZED FREE ENERGY PREDICTED BY IDOCK:   -3.86 KCAL/MOL
REMARK 922        TOTAL FREE ENERGY PREDICTED BY IDOCK:   -5.12 KCAL/MOL
REMARK 923 INTER-LIGAND FREE ENERGY PREDICTED BY IDOCK:   -4.77 KCAL/MOL
REMARK 924 INTRA-LIGAND FREE ENERGY PREDICTED BY IDOCK:   -0.36 KCAL/MOL
REMARK 927      BINDING AFFINITY PREDICTED BY RF-SCORE:    0.00 PKD
ROOT
HETATM    1 CA   UNL     1     -12.730  13.289  67.400  1.00  0.00    -0.271 Ca 
HETATM    2  C   UNL     2     -12.066  12.443  63.379  1.00  0.00    -0.620 C  
HETATM    3  C   UNL     2     -11.533  11.834  64.643  1.00  0.00    -0.234 C  
HETATM    4  C   UNL     3     -12.315  10.810  70.235  1.00  0.00    -0.423 C  
HETATM    5  C   UNL     3     -11.200  11.235  69.335  1.00  0.00    -0.280 C  
HETATM    6  O   UNL     3     -11.352  12.277  68.667  1.00  0.00    -0.244 OA 
HETATM    7  O   UNL     2     -12.074  12.147  65.717  1.00  0.00    -0.572 OA 
ENDROOT
BRANCH   3   8
HETATM    8  C   UNL     2     -10.362  10.892  64.566  1.00  0.00    -0.417 C  
BRANCH   8   9
HETATM    9  C   UNL     2      -9.484  11.210  63.370  1.00  0.00    -0.321 C  
HETATM   10  O   UNL     2      -8.880   9.040  62.781  1.00  0.00    -0.200 OA 
HETATM   11  O   UNL     2      -7.377  10.365  63.911  1.00  0.00    -0.100 OA 
HETATM   12  C   UNL     2      -8.463  10.086  63.340  1.00  0.00    -0.182 C  
ENDBRANCH   8   9
ENDBRANCH   3   8
BRANCH   5  13
HETATM   13  C   UNL     3      -9.996  10.335  69.187  1.00  0.00    -0.235 C  
BRANCH  13  14
HETATM   14  C   UNL     3     -10.454   8.896  69.108  1.00  0.00    -0.236 C  
HETATM   15  C   UNL     3      -9.464   8.167  68.221  1.00  0.00    -0.141 C  
HETATM   16  O   UNL     3      -8.639   7.455  68.843  1.00  0.00    -0.129 OA 
HETATM   17  O   UNL     3      -9.640   8.380  66.990  1.00  0.00    -0.163 OA 
ENDBRANCH  13  14
ENDBRANCH   5  13
TORSDOF 4
ENDMDL
MODEL      156
REMARK 921   NORMALIZED FREE ENERGY PREDICTED BY IDOCK:   -3.84 KCAL/MOL
REMARK 922        TOTAL FREE ENERGY PREDICTED BY IDOCK:   -5.11 KCAL/MOL
REMARK 923 INTER-LIGAND FREE ENERGY PREDICTED BY IDOCK:   -4.54 KCAL/MOL
REMARK 924 INTRA-LIGAND FREE ENERGY PREDICTED BY IDOCK:   -0.57 KCAL/MOL
REMARK 927      BINDING AFFINITY PREDICTED BY RF-SCORE:    0.00 PKD
ROOT
HETATM    1 CA   UNL     1      -9.032   9.392  68.119  1.00  0.00    -0.121 Ca 
HETATM    2  C   UNL     2     -11.675   9.998  71.276  1.00  0.00    -0.452 C  
HETATM    3  C   UNL     2     -11.536  10.653  69.934  1.00  0.00    -0.317 C  
HETATM    4  C   UNL     3      -9.755  10.228  64.495  1.00  0.00    -0.395 C  
HETATM    5  C   UNL     3      -9.725  11.245  65.591  1.00  0.00    -0.230 C  
HETATM    6  O   UNL     3      -9.163  10.935  66.660  1.00  0.00    -0.163 OA 
HETATM    7  O   UNL     2     -10.787  10.120  69.098  1.00  0.00    -0.207 OA 
ENDROOT
BRANCH   3   8
HETATM    8  C   UNL     2     -12.283  11.930  69.659  1.00  0.00    -0.216 C  
BRANCH   8   9
HETATM    9  C   UNL     2     -11.743  13.070  70.502  1.00  0.00    -0.012 C  
HETATM   10  O   UNL     2     -13.272  12.977  72.256  1.00  0.00    -0.471 OA 
HETATM   11  O   UNL     2     -13.491  14.609  70.650  1.00  0.00    -0.261 OA 
HETATM   12  C   UNL     2     -12.962  13.620  71.222  1.00  0.00    -0.322 C  
ENDBRANCH   8   9
ENDBRANCH   3   8
BRANCH   5  13
HETATM   13  C   UNL     3     -10.469  12.546  65.402  1.00  0.00    -0.308 C  
BRANCH  13  14
HETATM   14  C   UNL     3     -10.700  13.191  66.749  1.00  0.00    -0.274 C  
HETATM   15  C   UNL     3      -9.978  14.524  66.728  1.00  0.00    -0.264 C  
HETATM   16  O   UNL     3     -10.730  15.517  66.568  1.00  0.00    -0.306 OA 
HETATM   17  O   UNL     3      -8.732  14.424  66.893  1.00  0.00    -0.221 OA 
ENDBRANCH  13  14
ENDBRANCH   5  13
TORSDOF 4
ENDMDL
MODEL      157
REMARK 921   NORMALIZED FREE ENERGY PREDICTED BY IDOCK:   -3.81 KCAL/MOL
REMARK 922        TOTAL FREE ENERGY PREDICTED BY IDOCK:   -5.07 KCAL/MOL
REMARK 923 INTER-LIGAND FREE ENERGY PREDICTED BY IDOCK:   -4.49 KCAL/MOL
REMARK 924 INTRA-LIGAND FREE ENERGY PREDICTED BY IDOCK:   -0.58 KCAL/MOL
REMARK 927      BINDING AFFINITY PREDICTED BY RF-SCORE:    0.00 PKD
ROOT
HETATM    1 CA   UNL     1     -12.147  16.526  68.334  1.00  0.00    -0.330 Ca 
HETATM    2  C   UNL     2     -10.441  12.730  68.368  1.00  0.00    -0.253 C  
HETATM    3  C   UNL     2      -9.869  14.095  68.118  1.00  0.00    -0.229 C  
HETATM    4  C   UNL     3     -10.272  19.753  68.984  1.00  0.00    -0.362 C  
HETATM    5  C   UNL     3      -9.963  18.828  67.851  1.00  0.00    -0.354 C  
HETATM    6  O   UNL     3     -10.827  17.988  67.530  1.00  0.00    -0.379 OA 
HETATM    7  O   UNL     2     -10.572  15.083  68.387  1.00  0.00    -0.231 OA 
ENDROOT
BRANCH   3   8
HETATM    8  C   UNL     2      -8.486  14.215  67.536  1.00  0.00    -0.194 C  
BRANCH   8   9
HETATM    9  C   UNL     2      -7.427  13.897  68.575  1.00  0.00    -0.122 C  
HETATM   10  O   UNL     2      -5.616  13.560  67.151  1.00  0.00    -0.288 OA 
HETATM   11  O   UNL     2      -6.690  11.743  68.065  1.00  0.00    -0.063 OA 
HETATM   12  C   UNL     2      -6.464  12.964  67.861  1.00  0.00    -0.127 C  
ENDBRANCH   8   9
ENDBRANCH   3   8
BRANCH   5  13
HETATM   13  C   UNL     3      -8.589  18.872  67.224  1.00  0.00    -0.294 C  
BRANCH  13  14
HETATM   14  C   UNL     3      -8.384  17.634  66.381  1.00  0.00    -0.288 C  
HETATM   15  C   UNL     3      -6.921  17.609  65.985  1.00  0.00    -0.283 C  
HETATM   16  O   UNL     3      -6.222  16.797  66.638  1.00  0.00    -0.224 OA 
HETATM   17  O   UNL     3      -6.641  18.401  65.044  1.00  0.00    -0.467 OA 
ENDBRANCH  13  14
ENDBRANCH   5  13
TORSDOF 4
ENDMDL
MODEL      158
REMARK 921   NORMALIZED FREE ENERGY PREDICTED BY IDOCK:   -3.81 KCAL/MOL
REMARK 922        TOTAL FREE ENERGY PREDICTED BY IDOCK:   -5.06 KCAL/MOL
REMARK 923 INTER-LIGAND FREE ENERGY PREDICTED BY IDOCK:   -4.74 KCAL/MOL
REMARK 924 INTRA-LIGAND FREE ENERGY PREDICTED BY IDOCK:   -0.32 KCAL/MOL
REMARK 927      BINDING AFFINITY PREDICTED BY RF-SCORE:    0.00 PKD
ROOT
HETATM    1 CA   UNL     1     -10.896  18.079  70.167  1.00  0.00    -0.507 Ca 
HETATM    2  C   UNL     2     -13.349  15.128  71.779  1.00  0.00    -0.506 C  
HETATM    3  C   UNL     2     -12.335  15.108  70.673  1.00  0.00    -0.368 C  
HETATM    4  C   UNL     3      -7.617  17.436  68.380  1.00  0.00    -0.255 C  
HETATM    5  C   UNL     3      -8.937  16.918  67.904  1.00  0.00    -0.225 C  
HETATM    6  O   UNL     3      -9.971  17.448  68.358  1.00  0.00    -0.291 OA 
HETATM    7  O   UNL     2     -11.587  16.093  70.547  1.00  0.00    -0.366 OA 
ENDROOT
BRANCH   3   8
HETATM    8  C   UNL     2     -12.275  13.919  69.753  1.00  0.00    -0.388 C  
BRANCH   8   9
HETATM    9  C   UNL     2     -12.168  12.626  70.540  1.00  0.00    -0.383 C  
HETATM   10  O   UNL     2     -10.253  11.755  69.540  1.00  0.00     0.189 OA 
HETATM   11  O   UNL     2     -12.315  10.923  68.951  1.00  0.00    -0.486 OA 
HETATM   12  C   UNL     2     -11.505  11.652  69.581  1.00  0.00    -0.288 C  
ENDBRANCH   8   9
ENDBRANCH   3   8
BRANCH   5  13
HETATM   13  C   UNL     3      -8.965  15.713  66.994  1.00  0.00    -0.244 C  
BRANCH  13  14
HETATM   14  C   UNL     3      -9.424  14.505  67.777  1.00  0.00    -0.210 C  
HETATM   15  C   UNL     3      -8.628  13.320  67.267  1.00  0.00    -0.210 C  
HETATM   16  O   UNL     3      -7.693  12.960  68.023  1.00  0.00    -0.118 OA 
HETATM   17  O   UNL     3      -9.046  12.871  66.164  1.00  0.00    -0.090 OA 
ENDBRANCH  13  14
ENDBRANCH   5  13
TORSDOF 4
ENDMDL
MODEL      159
REMARK 921   NORMALIZED FREE ENERGY PREDICTED BY IDOCK:   -3.80 KCAL/MOL
REMARK 922        TOTAL FREE ENERGY PREDICTED BY IDOCK:   -5.06 KCAL/MOL
REMARK 923 INTER-LIGAND FREE ENERGY PREDICTED BY IDOCK:   -4.52 KCAL/MOL
REMARK 924 INTRA-LIGAND FREE ENERGY PREDICTED BY IDOCK:   -0.53 KCAL/MOL
REMARK 927      BINDING AFFINITY PREDICTED BY RF-SCORE:    0.00 PKD
ROOT
HETATM    1 CA   UNL     1     -11.374  10.441  63.968  1.00  0.00    -0.370 Ca 
HETATM    2  C   UNL     2      -9.184   7.642  66.135  1.00  0.00    -0.168 C  
HETATM    3  C   UNL     2      -9.350   9.126  66.276  1.00  0.00    -0.216 C  
HETATM    4  C   UNL     3     -12.612  13.752  65.332  1.00  0.00    -0.534 C  
HETATM    5  C   UNL     3     -11.166  13.382  65.238  1.00  0.00    -0.289 C  
HETATM    6  O   UNL     3     -10.852  12.438  64.487  1.00  0.00    -0.289 OA 
HETATM    7  O   UNL     2     -10.244   9.681  65.616  1.00  0.00    -0.253 OA 
ENDROOT
BRANCH   3   8
HETATM    8  C   UNL     2      -8.422   9.884  67.187  1.00  0.00    -0.121 C  
BRANCH   8   9
HETATM    9  C   UNL     2      -7.965  11.181  66.545  1.00  0.00    -0.158 C  
HETATM   10  O   UNL     2      -6.066  10.392  65.452  1.00  0.00    -0.113 OA 
HETATM   11  O   UNL     2      -5.835  11.579  67.409  1.00  0.00    -0.061 OA 
HETATM   12  C   UNL     2      -6.455  11.047  66.452  1.00  0.00    -0.127 C  
ENDBRANCH   8   9
ENDBRANCH   3   8
BRANCH   5  13
HETATM   13  C   UNL     3     -10.172  14.082  66.135  1.00  0.00    -0.308 C  
BRANCH  13  14
HETATM   14  C   UNL     3     -10.790  15.355  66.667  1.00  0.00    -0.302 C  
HETATM   15  C   UNL     3     -10.203  16.499  65.863  1.00  0.00    -0.349 C  
HETATM   16  O   UNL     3     -10.972  16.962  64.985  1.00  0.00    -0.593 OA 
HETATM   17  O   UNL     3      -9.035  16.815  66.218  1.00  0.00    -0.273 OA 
ENDBRANCH  13  14
ENDBRANCH   5  13
TORSDOF 4
ENDMDL
MODEL      160
REMARK 921   NORMALIZED FREE ENERGY PREDICTED BY IDOCK:   -3.80 KCAL/MOL
REMARK 922        TOTAL FREE ENERGY PREDICTED BY IDOCK:   -5.05 KCAL/MOL
REMARK 923 INTER-LIGAND FREE ENERGY PREDICTED BY IDOCK:   -4.52 KCAL/MOL
REMARK 924 INTRA-LIGAND FREE ENERGY PREDICTED BY IDOCK:   -0.53 KCAL/MOL
REMARK 927      BINDING AFFINITY PREDICTED BY RF-SCORE:    0.00 PKD
ROOT
HETATM    1 CA   UNL     1      -9.251   8.043  64.073  1.00  0.00    -0.383 Ca 
HETATM    2  C   UNL     2     -10.773  11.862  63.428  1.00  0.00    -0.476 C  
HETATM    3  C   UNL     2     -10.407  11.116  64.677  1.00  0.00    -0.330 C  
HETATM    4  C   UNL     3      -7.243   6.993  67.111  1.00  0.00    -0.089 C  
HETATM    5  C   UNL     3      -8.652   7.490  67.178  1.00  0.00    -0.121 C  
HETATM    6  O   UNL     3      -9.322   7.491  66.127  1.00  0.00    -0.155 OA 
HETATM    7  O   UNL     2      -9.766  10.058  64.561  1.00  0.00    -0.310 OA 
ENDROOT
BRANCH   3   8
HETATM    8  C   UNL     2     -10.843  11.661  66.011  1.00  0.00    -0.339 C  
BRANCH   8   9
HETATM    9  C   UNL     2     -10.675  13.168  66.066  1.00  0.00    -0.288 C  
HETATM   10  O   UNL     2     -12.105  13.624  67.847  1.00  0.00    -0.357 OA 
HETATM   11  O   UNL     2     -12.808  14.040  65.696  1.00  0.00    -0.545 OA 
HETATM   12  C   UNL     2     -12.004  13.679  66.595  1.00  0.00    -0.415 C  
ENDBRANCH   8   9
ENDBRANCH   3   8
BRANCH   5  13
HETATM   13  C   UNL     3      -9.160   8.071  68.477  1.00  0.00    -0.136 C  
BRANCH  13  14
HETATM   14  C   UNL     3      -8.680   9.499  68.608  1.00  0.00    -0.127 C  
HETATM   15  C   UNL     3      -7.790   9.553  69.834  1.00  0.00    -0.138 C  
HETATM   16  O   UNL     3      -6.561   9.581  69.580  1.00  0.00    -0.042 OA 
HETATM   17  O   UNL     3      -8.431   9.578  70.920  1.00  0.00    -0.269 OA 
ENDBRANCH  13  14
ENDBRANCH   5  13
TORSDOF 4
ENDMDL
MODEL      161
REMARK 921   NORMALIZED FREE ENERGY PREDICTED BY IDOCK:   -3.80 KCAL/MOL
REMARK 922        TOTAL FREE ENERGY PREDICTED BY IDOCK:   -5.05 KCAL/MOL
REMARK 923 INTER-LIGAND FREE ENERGY PREDICTED BY IDOCK:   -4.30 KCAL/MOL
REMARK 924 INTRA-LIGAND FREE ENERGY PREDICTED BY IDOCK:   -0.75 KCAL/MOL
REMARK 927      BINDING AFFINITY PREDICTED BY RF-SCORE:    0.00 PKD
ROOT
HETATM    1 CA   UNL     1     -11.416   7.483  67.534  1.00  0.00    -0.455 Ca 
HETATM    2  C   UNL     2     -11.411  11.090  69.609  1.00  0.00    -0.363 C  
HETATM    3  C   UNL     2     -10.982   9.703  69.989  1.00  0.00    -0.260 C  
HETATM    4  C   UNL     3      -9.114   4.561  68.257  1.00  0.00    -0.158 C  
HETATM    5  C   UNL     3     -10.099   5.105  69.242  1.00  0.00    -0.213 C  
HETATM    6  O   UNL     3     -11.019   5.826  68.810  1.00  0.00    -0.271 OA 
HETATM    7  O   UNL     2     -10.893   8.851  69.090  1.00  0.00    -0.182 OA 
ENDROOT
BRANCH   3   8
HETATM    8  C   UNL     2     -10.697   9.394  71.434  1.00  0.00    -0.407 C  
BRANCH   8   9
HETATM    9  C   UNL     2     -11.976   9.071  72.185  1.00  0.00    -0.395 C  
HETATM   10  O   UNL     2     -11.285   7.121  73.253  1.00  0.00    -0.257 OA 
HETATM   11  O   UNL     2     -12.641   6.977  71.401  1.00  0.00    -0.366 OA 
HETATM   12  C   UNL     2     -11.978   7.557  72.299  1.00  0.00    -0.263 C  
ENDBRANCH   8   9
ENDBRANCH   3   8
BRANCH   5  13
HETATM   13  C   UNL     3      -9.874   4.855  70.714  1.00  0.00    -0.285 C  
BRANCH  13  14
HETATM   14  C   UNL     3      -8.393   4.913  71.011  1.00  0.00    -0.109 C  
HETATM   15  C   UNL     3      -8.130   6.245  71.686  1.00  0.00    -0.106 C  
HETATM   16  O   UNL     3      -7.974   6.172  72.930  1.00  0.00    -0.105 OA 
HETATM   17  O   UNL     3      -8.096   7.217  70.884  1.00  0.00    -0.104 OA 
ENDBRANCH  13  14
ENDBRANCH   5  13
TORSDOF 4
ENDMDL
MODEL      162
REMARK 921   NORMALIZED FREE ENERGY PREDICTED BY IDOCK:   -3.77 KCAL/MOL
REMARK 922        TOTAL FREE ENERGY PREDICTED BY IDOCK:   -5.02 KCAL/MOL
REMARK 923 INTER-LIGAND FREE ENERGY PREDICTED BY IDOCK:   -4.46 KCAL/MOL
REMARK 924 INTRA-LIGAND FREE ENERGY PREDICTED BY IDOCK:   -0.56 KCAL/MOL
REMARK 927      BINDING AFFINITY PREDICTED BY RF-SCORE:    0.00 PKD
ROOT
HETATM    1 CA   UNL     1     -12.596  12.918  67.556  1.00  0.00    -0.284 Ca 
HETATM    2  C   UNL     2     -12.338  12.648  63.412  1.00  0.00    -0.553 C  
HETATM    3  C   UNL     2     -11.511  12.062  64.517  1.00  0.00    -0.319 C  
HETATM    4  C   UNL     3     -11.245  10.343  69.986  1.00  0.00    -0.385 C  
HETATM    5  C   UNL     3     -10.391  11.105  69.024  1.00  0.00    -0.194 C  
HETATM    6  O   UNL     3     -10.863  12.142  68.517  1.00  0.00    -0.216 OA 
HETATM    7  O   UNL     2     -11.949  12.133  65.677  1.00  0.00    -0.503 OA 
ENDROOT
BRANCH   3   8
HETATM    8  C   UNL     2     -10.183  11.435  64.186  1.00  0.00    -0.376 C  
BRANCH   8   9
HETATM    9  C   UNL     2      -9.937  10.199  65.031  1.00  0.00    -0.375 C  
HETATM   10  O   UNL     2      -7.625  10.367  65.251  1.00  0.00    -0.145 OA 
HETATM   11  O   UNL     2      -8.513   8.856  63.761  1.00  0.00    -0.186 OA 
HETATM   12  C   UNL     2      -8.539   9.749  64.647  1.00  0.00    -0.184 C  
ENDBRANCH   8   9
ENDBRANCH   3   8
BRANCH   5  13
HETATM   13  C   UNL     3      -9.051  10.533  68.625  1.00  0.00    -0.158 C  
BRANCH  13  14
HETATM   14  C   UNL     3      -8.003  11.621  68.689  1.00  0.00    -0.127 C  
HETATM   15  C   UNL     3      -6.746  10.989  69.253  1.00  0.00    -0.099 C  
HETATM   16  O   UNL     3      -5.864  10.738  68.396  1.00  0.00    -0.044 OA 
HETATM   17  O   UNL     3      -6.781  10.828  70.503  1.00  0.00    -0.312 OA 
ENDBRANCH  13  14
ENDBRANCH   5  13
TORSDOF 4
ENDMDL
MODEL      163
REMARK 921   NORMALIZED FREE ENERGY PREDICTED BY IDOCK:   -3.77 KCAL/MOL
REMARK 922        TOTAL FREE ENERGY PREDICTED BY IDOCK:   -5.02 KCAL/MOL
REMARK 923 INTER-LIGAND FREE ENERGY PREDICTED BY IDOCK:   -4.76 KCAL/MOL
REMARK 924 INTRA-LIGAND FREE ENERGY PREDICTED BY IDOCK:   -0.26 KCAL/MOL
REMARK 927      BINDING AFFINITY PREDICTED BY RF-SCORE:    0.00 PKD
ROOT
HETATM    1 CA   UNL     1     -10.480  14.056  70.021  1.00  0.00    -0.406 Ca 
HETATM    2  C   UNL     2     -10.096  18.104  69.133  1.00  0.00    -0.194 C  
HETATM    3  C   UNL     2     -10.082  16.873  68.274  1.00  0.00    -0.302 C  
HETATM    4  C   UNL     3     -11.710  11.412  67.603  1.00  0.00    -0.246 C  
HETATM    5  C   UNL     3     -10.482  12.234  67.378  1.00  0.00    -0.210 C  
HETATM    6  O   UNL     3      -9.986  12.823  68.359  1.00  0.00    -0.226 OA 
HETATM    7  O   UNL     2     -10.439  15.799  68.785  1.00  0.00    -0.215 OA 
ENDROOT
BRANCH   3   8
HETATM    8  C   UNL     2      -9.622  16.981  66.846  1.00  0.00    -0.263 C  
BRANCH   8   9
HETATM    9  C   UNL     2      -9.332  18.423  66.473  1.00  0.00    -0.311 C  
HETATM   10  O   UNL     2      -7.299  18.112  65.381  1.00  0.00    -0.520 OA 
HETATM   11  O   UNL     2      -7.316  18.940  67.527  1.00  0.00    -0.225 OA 
HETATM   12  C   UNL     2      -7.816  18.514  66.454  1.00  0.00    -0.271 C  
ENDBRANCH   8   9
ENDBRANCH   3   8
BRANCH   5  13
HETATM   13  C   UNL     3      -9.966  12.409  65.969  1.00  0.00    -0.270 C  
BRANCH  13  14
HETATM   14  C   UNL     3     -10.628  11.394  65.065  1.00  0.00    -0.359 C  
HETATM   15  C   UNL     3      -9.623  10.281  64.842  1.00  0.00    -0.304 C  
HETATM   16  O   UNL     3      -9.845   9.242  65.511  1.00  0.00    -0.265 OA 
HETATM   17  O   UNL     3      -8.727  10.572  64.003  1.00  0.00    -0.176 OA 
ENDBRANCH  13  14
ENDBRANCH   5  13
TORSDOF 4
ENDMDL
MODEL      164
REMARK 921   NORMALIZED FREE ENERGY PREDICTED BY IDOCK:   -3.75 KCAL/MOL
REMARK 922        TOTAL FREE ENERGY PREDICTED BY IDOCK:   -5.00 KCAL/MOL
REMARK 923 INTER-LIGAND FREE ENERGY PREDICTED BY IDOCK:   -4.41 KCAL/MOL
REMARK 924 INTRA-LIGAND FREE ENERGY PREDICTED BY IDOCK:   -0.59 KCAL/MOL
REMARK 927      BINDING AFFINITY PREDICTED BY RF-SCORE:    0.00 PKD
ROOT
HETATM    1 CA   UNL     1     -10.961  13.680  69.167  1.00  0.00    -0.214 Ca 
HETATM    2  C   UNL     2     -10.544   9.803  70.621  1.00  0.00    -0.382 C  
HETATM    3  C   UNL     2     -10.615  10.360  69.230  1.00  0.00    -0.232 C  
HETATM    4  C   UNL     3      -9.792  14.856  65.759  1.00  0.00    -0.380 C  
HETATM    5  C   UNL     3     -10.821  13.789  65.962  1.00  0.00    -0.282 C  
HETATM    6  O   UNL     3     -11.369  13.710  67.078  1.00  0.00    -0.303 OA 
HETATM    7  O   UNL     2     -10.522  11.590  69.086  1.00  0.00    -0.192 OA 
ENDROOT
BRANCH   3   8
HETATM    8  C   UNL     2     -10.814   9.419  68.073  1.00  0.00    -0.197 C  
BRANCH   8   9
HETATM    9  C   UNL     2     -10.154   8.078  68.339  1.00  0.00    -0.221 C  
HETATM   10  O   UNL     2      -9.164   7.745  66.258  1.00  0.00    -0.178 OA 
HETATM   11  O   UNL     2     -11.093   6.609  66.789  1.00  0.00    -0.354 OA 
HETATM   12  C   UNL     2     -10.127   7.393  66.984  1.00  0.00    -0.258 C  
ENDBRANCH   8   9
ENDBRANCH   3   8
BRANCH   5  13
HETATM   13  C   UNL     3     -11.067  12.791  64.855  1.00  0.00    -0.324 C  
BRANCH  13  14
HETATM   14  C   UNL     3     -10.783  11.397  65.366  1.00  0.00    -0.313 C  
HETATM   15  C   UNL     3      -9.314  11.125  65.111  1.00  0.00    -0.213 C  
HETATM   16  O   UNL     3      -8.586  11.218  66.129  1.00  0.00    -0.176 OA 
HETATM   17  O   UNL     3      -9.058  10.830  63.911  1.00  0.00    -0.190 OA 
ENDBRANCH  13  14
ENDBRANCH   5  13
TORSDOF 4
ENDMDL
MODEL      165
REMARK 921   NORMALIZED FREE ENERGY PREDICTED BY IDOCK:   -3.75 KCAL/MOL
REMARK 922        TOTAL FREE ENERGY PREDICTED BY IDOCK:   -5.00 KCAL/MOL
REMARK 923 INTER-LIGAND FREE ENERGY PREDICTED BY IDOCK:   -4.56 KCAL/MOL
REMARK 924 INTRA-LIGAND FREE ENERGY PREDICTED BY IDOCK:   -0.43 KCAL/MOL
REMARK 927      BINDING AFFINITY PREDICTED BY RF-SCORE:    0.00 PKD
ROOT
HETATM    1 CA   UNL     1      -7.697   6.700  69.117  1.00  0.00    -0.084 Ca 
HETATM    2  C   UNL     2      -8.495   8.476  65.439  1.00  0.00    -0.190 C  
HETATM    3  C   UNL     2      -9.069   8.685  66.810  1.00  0.00    -0.149 C  
HETATM    4  C   UNL     3      -8.317   8.317  72.487  1.00  0.00    -0.235 C  
HETATM    5  C   UNL     3      -9.397   8.028  71.495  1.00  0.00    -0.153 C  
HETATM    6  O   UNL     3      -9.151   7.212  70.584  1.00  0.00    -0.156 OA 
HETATM    7  O   UNL     2      -8.485   8.163  67.775  1.00  0.00    -0.129 OA 
ENDROOT
BRANCH   3   8
HETATM    8  C   UNL     2     -10.328   9.494  66.962  1.00  0.00    -0.319 C  
BRANCH   8   9
HETATM    9  C   UNL     2     -10.036  10.849  67.580  1.00  0.00    -0.206 C  
HETATM   10  O   UNL     2     -12.052  11.178  68.698  1.00  0.00    -0.556 OA 
HETATM   11  O   UNL     2     -11.662  12.284  66.719  1.00  0.00    -0.450 OA 
HETATM   12  C   UNL     2     -11.394  11.520  67.683  1.00  0.00    -0.291 C  
ENDBRANCH   8   9
ENDBRANCH   3   8
BRANCH   5  13
HETATM   13  C   UNL     3     -10.686   8.812  71.567  1.00  0.00    -0.371 C  
BRANCH  13  14
HETATM   14  C   UNL     3     -11.552   8.250  72.671  1.00  0.00    -0.419 C  
HETATM   15  C   UNL     3     -12.510   7.269  72.025  1.00  0.00    -0.242 C  
HETATM   16  O   UNL     3     -12.205   6.063  72.190  1.00  0.00    -0.288 OA 
HETATM   17  O   UNL     3     -13.475   7.825  71.433  1.00  0.00    -0.324 OA 
ENDBRANCH  13  14
ENDBRANCH   5  13
TORSDOF 4
ENDMDL
MODEL      166
REMARK 921   NORMALIZED FREE ENERGY PREDICTED BY IDOCK:   -3.74 KCAL/MOL
REMARK 922        TOTAL FREE ENERGY PREDICTED BY IDOCK:   -4.98 KCAL/MOL
REMARK 923 INTER-LIGAND FREE ENERGY PREDICTED BY IDOCK:   -4.54 KCAL/MOL
REMARK 924 INTRA-LIGAND FREE ENERGY PREDICTED BY IDOCK:   -0.44 KCAL/MOL
REMARK 927      BINDING AFFINITY PREDICTED BY RF-SCORE:    0.00 PKD
ROOT
HETATM    1 CA   UNL     1      -7.756  11.108  69.404  1.00  0.00    -0.107 Ca 
HETATM    2  C   UNL     2      -6.804   7.190  68.375  1.00  0.00    -0.073 C  
HETATM    3  C   UNL     2      -7.609   8.250  67.683  1.00  0.00    -0.098 C  
HETATM    4  C   UNL     3      -8.626  13.848  66.935  1.00  0.00    -0.138 C  
HETATM    5  C   UNL     3      -9.422  12.592  67.095  1.00  0.00    -0.214 C  
HETATM    6  O   UNL     3      -9.257  11.925  68.135  1.00  0.00    -0.176 OA 
HETATM    7  O   UNL     2      -7.547   9.411  68.122  1.00  0.00    -0.082 OA 
ENDROOT
BRANCH   3   8
HETATM    8  C   UNL     2      -8.469   7.869  66.509  1.00  0.00    -0.134 C  
BRANCH   8   9
HETATM    9  C   UNL     2      -9.888   8.377  66.683  1.00  0.00    -0.343 C  
HETATM   10  O   UNL     2     -10.401   7.328  68.698  1.00  0.00    -0.184 OA 
HETATM   11  O   UNL     2     -11.226   6.466  66.732  1.00  0.00    -0.327 OA 
HETATM   12  C   UNL     2     -10.592   7.276  67.457  1.00  0.00    -0.274 C  
ENDBRANCH   8   9
ENDBRANCH   3   8
BRANCH   5  13
HETATM   13  C   UNL     3     -10.295  12.130  65.953  1.00  0.00    -0.286 C  
BRANCH  13  14
HETATM   14  C   UNL     3     -11.741  12.144  66.392  1.00  0.00    -0.394 C  
HETATM   15  C   UNL     3     -12.473  13.097  65.468  1.00  0.00    -0.458 C  
HETATM   16  O   UNL     3     -13.160  12.534  64.581  1.00  0.00    -0.845 OA 
HETATM   17  O   UNL     3     -12.286  14.312  65.749  1.00  0.00    -0.408 OA 
ENDBRANCH  13  14
ENDBRANCH   5  13
TORSDOF 4
ENDMDL
MODEL      167
REMARK 921   NORMALIZED FREE ENERGY PREDICTED BY IDOCK:   -3.73 KCAL/MOL
REMARK 922        TOTAL FREE ENERGY PREDICTED BY IDOCK:   -4.96 KCAL/MOL
REMARK 923 INTER-LIGAND FREE ENERGY PREDICTED BY IDOCK:   -4.61 KCAL/MOL
REMARK 924 INTRA-LIGAND FREE ENERGY PREDICTED BY IDOCK:   -0.36 KCAL/MOL
REMARK 927      BINDING AFFINITY PREDICTED BY RF-SCORE:    0.00 PKD
ROOT
HETATM    1 CA   UNL     1      -5.352  13.314  66.936  1.00  0.00    -0.031 Ca 
HETATM    2  C   UNL     2      -5.885  17.431  66.640  1.00  0.00    -0.234 C  
HETATM    3  C   UNL     2      -6.803  16.319  67.055  1.00  0.00    -0.200 C  
HETATM    4  C   UNL     3      -7.344  11.027  69.208  1.00  0.00    -0.113 C  
HETATM    5  C   UNL     3      -7.951  11.841  68.111  1.00  0.00    -0.146 C  
HETATM    6  O   UNL     3      -7.195  12.289  67.227  1.00  0.00    -0.140 OA 
HETATM    7  O   UNL     2      -6.309  15.197  67.259  1.00  0.00    -0.312 OA 
ENDROOT
BRANCH   3   8
HETATM    8  C   UNL     2      -8.276  16.595  67.188  1.00  0.00    -0.206 C  
BRANCH   8   9
HETATM    9  C   UNL     2      -8.653  17.891  66.494  1.00  0.00    -0.279 C  
HETATM   10  O   UNL     2      -8.751  19.283  68.357  1.00  0.00    -0.332 OA 
HETATM   11  O   UNL     2     -10.704  18.512  67.417  1.00  0.00    -0.425 OA 
HETATM   12  C   UNL     2      -9.459  18.656  67.529  1.00  0.00    -0.291 C  
ENDBRANCH   8   9
ENDBRANCH   3   8
BRANCH   5  13
HETATM   13  C   UNL     3      -9.422  12.180  68.180  1.00  0.00    -0.205 C  
BRANCH  13  14
HETATM   14  C   UNL     3     -10.177  11.336  67.179  1.00  0.00    -0.235 C  
HETATM   15  C   UNL     3     -11.642  11.708  67.305  1.00  0.00    -0.238 C  
HETATM   16  O   UNL     3     -12.064  12.461  66.393  1.00  0.00    -0.607 OA 
HETATM   17  O   UNL     3     -12.209  11.186  68.303  1.00  0.00    -0.613 OA 
ENDBRANCH  13  14
ENDBRANCH   5  13
TORSDOF 4
ENDMDL
MODEL      168
REMARK 921   NORMALIZED FREE ENERGY PREDICTED BY IDOCK:   -3.71 KCAL/MOL
REMARK 922        TOTAL FREE ENERGY PREDICTED BY IDOCK:   -4.94 KCAL/MOL
REMARK 923 INTER-LIGAND FREE ENERGY PREDICTED BY IDOCK:   -4.35 KCAL/MOL
REMARK 924 INTRA-LIGAND FREE ENERGY PREDICTED BY IDOCK:   -0.59 KCAL/MOL
REMARK 927      BINDING AFFINITY PREDICTED BY RF-SCORE:    0.00 PKD
ROOT
HETATM    1 CA   UNL     1     -11.441  11.693  69.213  1.00  0.00    -0.185 Ca 
HETATM    2  C   UNL     2     -10.326  10.825  65.299  1.00  0.00    -0.327 C  
HETATM    3  C   UNL     2     -10.224  10.045  66.577  1.00  0.00    -0.224 C  
HETATM    4  C   UNL     3     -12.261   9.107  71.859  1.00  0.00    -0.449 C  
HETATM    5  C   UNL     3     -10.927   9.218  71.193  1.00  0.00    -0.339 C  
HETATM    6  O   UNL     3     -10.657  10.281  70.599  1.00  0.00    -0.214 OA 
HETATM    7  O   UNL     2     -10.840  10.466  67.570  1.00  0.00    -0.270 OA 
ENDROOT
BRANCH   3   8
HETATM    8  C   UNL     2      -9.372   8.805  66.613  1.00  0.00    -0.242 C  
BRANCH   8   9
HETATM    9  C   UNL     2     -10.170   7.607  67.093  1.00  0.00    -0.360 C  
HETATM   10  O   UNL     2      -8.415   6.298  67.885  1.00  0.00    -0.117 OA 
HETATM   11  O   UNL     2      -9.373   5.798  65.854  1.00  0.00    -0.152 OA 
HETATM   12  C   UNL     2      -9.224   6.431  66.932  1.00  0.00    -0.135 C  
ENDBRANCH   8   9
ENDBRANCH   3   8
BRANCH   5  13
HETATM   13  C   UNL     3     -10.019   8.011  71.168  1.00  0.00    -0.206 C  
BRANCH  13  14
HETATM   14  C   UNL     3     -10.792   6.795  71.624  1.00  0.00    -0.259 C  
HETATM   15  C   UNL     3     -10.895   5.865  70.431  1.00  0.00    -0.308 C  
HETATM   16  O   UNL     3     -10.108   4.888  70.467  1.00  0.00    -0.229 OA 
HETATM   17  O   UNL     3     -11.772   6.216  69.595  1.00  0.00    -0.331 OA 
ENDBRANCH  13  14
ENDBRANCH   5  13
TORSDOF 4
ENDMDL
MODEL      169
REMARK 921   NORMALIZED FREE ENERGY PREDICTED BY IDOCK:   -3.70 KCAL/MOL
REMARK 922        TOTAL FREE ENERGY PREDICTED BY IDOCK:   -4.93 KCAL/MOL
REMARK 923 INTER-LIGAND FREE ENERGY PREDICTED BY IDOCK:   -4.60 KCAL/MOL
REMARK 924 INTRA-LIGAND FREE ENERGY PREDICTED BY IDOCK:   -0.33 KCAL/MOL
REMARK 927      BINDING AFFINITY PREDICTED BY RF-SCORE:    0.00 PKD
ROOT
HETATM    1 CA   UNL     1      -8.881  12.530  65.446  1.00  0.00    -0.406 Ca 
HETATM    2  C   UNL     2      -7.453   9.122  67.360  1.00  0.00    -0.084 C  
HETATM    3  C   UNL     2      -8.535  10.101  67.710  1.00  0.00    -0.114 C  
HETATM    4  C   UNL     3     -12.367  13.954  65.867  1.00  0.00    -0.517 C  
HETATM    5  C   UNL     3     -11.384  13.821  66.986  1.00  0.00    -0.326 C  
HETATM    6  O   UNL     3     -10.183  13.661  66.693  1.00  0.00    -0.266 OA 
HETATM    7  O   UNL     2      -8.896  10.910  66.839  1.00  0.00    -0.139 OA 
ENDROOT
BRANCH   3   8
HETATM    8  C   UNL     2      -9.123  10.080  69.095  1.00  0.00    -0.188 C  
BRANCH   8   9
HETATM    9  C   UNL     2      -8.974   8.710  69.731  1.00  0.00    -0.145 C  
HETATM   10  O   UNL     2     -10.873   8.731  71.078  1.00  0.00    -0.233 OA 
HETATM   11  O   UNL     2      -8.810   9.108  72.024  1.00  0.00    -0.331 OA 
HETATM   12  C   UNL     2      -9.622   8.853  71.096  1.00  0.00    -0.272 C  
ENDBRANCH   8   9
ENDBRANCH   3   8
BRANCH   5  13
HETATM   13  C   UNL     3     -11.896  13.772  68.407  1.00  0.00    -0.411 C  
BRANCH  13  14
HETATM   14  C   UNL     3     -11.174  12.678  69.160  1.00  0.00    -0.300 C  
HETATM   15  C   UNL     3     -12.222  11.930  69.961  1.00  0.00    -0.217 C  
HETATM   16  O   UNL     3     -12.557  10.825  69.469  1.00  0.00    -0.293 OA 
HETATM   17  O   UNL     3     -12.581  12.534  71.008  1.00  0.00    -0.361 OA 
ENDBRANCH  13  14
ENDBRANCH   5  13
TORSDOF 4
ENDMDL
MODEL      170
REMARK 921   NORMALIZED FREE ENERGY PREDICTED BY IDOCK:   -3.69 KCAL/MOL
REMARK 922        TOTAL FREE ENERGY PREDICTED BY IDOCK:   -4.92 KCAL/MOL
REMARK 923 INTER-LIGAND FREE ENERGY PREDICTED BY IDOCK:   -4.40 KCAL/MOL
REMARK 924 INTRA-LIGAND FREE ENERGY PREDICTED BY IDOCK:   -0.51 KCAL/MOL
REMARK 927      BINDING AFFINITY PREDICTED BY RF-SCORE:    0.00 PKD
ROOT
HETATM    1 CA   UNL     1      -8.462   4.977  70.383  1.00  0.00    -0.084 Ca 
HETATM    2  C   UNL     2     -10.710   7.041  73.212  1.00  0.00    -0.373 C  
HETATM    3  C   UNL     2     -10.755   7.008  71.713  1.00  0.00    -0.216 C  
HETATM    4  C   UNL     3      -9.647   4.095  66.894  1.00  0.00    -0.232 C  
HETATM    5  C   UNL     3      -9.509   5.498  67.394  1.00  0.00    -0.117 C  
HETATM    6  O   UNL     3      -8.812   5.691  68.409  1.00  0.00    -0.109 OA 
HETATM    7  O   UNL     2     -10.101   6.128  71.127  1.00  0.00    -0.184 OA 
ENDROOT
BRANCH   3   8
HETATM    8  C   UNL     2     -11.563   8.044  70.980  1.00  0.00    -0.303 C  
BRANCH   8   9
HETATM    9  C   UNL     2     -11.480   9.392  71.671  1.00  0.00    -0.463 C  
HETATM   10  O   UNL     2     -13.634   9.480  72.550  1.00  0.00    -0.433 OA 
HETATM   11  O   UNL     2     -13.129  10.703  70.669  1.00  0.00    -0.318 OA 
HETATM   12  C   UNL     2     -12.900   9.927  71.633  1.00  0.00    -0.436 C  
ENDBRANCH   8   9
ENDBRANCH   3   8
BRANCH   5  13
HETATM   13  C   UNL     3     -10.304   6.594  66.724  1.00  0.00    -0.280 C  
BRANCH  13  14
HETATM   14  C   UNL     3      -9.934   7.926  67.336  1.00  0.00    -0.261 C  
HETATM   15  C   UNL     3      -9.379   8.786  66.218  1.00  0.00    -0.222 C  
HETATM   16  O   UNL     3     -10.178   9.654  65.788  1.00  0.00    -0.261 OA 
HETATM   17  O   UNL     3      -8.191   8.501  65.906  1.00  0.00    -0.112 OA 
ENDBRANCH  13  14
ENDBRANCH   5  13
TORSDOF 4
ENDMDL
MODEL      171
REMARK 921   NORMALIZED FREE ENERGY PREDICTED BY IDOCK:   -3.69 KCAL/MOL
REMARK 922        TOTAL FREE ENERGY PREDICTED BY IDOCK:   -4.91 KCAL/MOL
REMARK 923 INTER-LIGAND FREE ENERGY PREDICTED BY IDOCK:   -4.52 KCAL/MOL
REMARK 924 INTRA-LIGAND FREE ENERGY PREDICTED BY IDOCK:   -0.40 KCAL/MOL
REMARK 927      BINDING AFFINITY PREDICTED BY RF-SCORE:    0.00 PKD
ROOT
HETATM    1 CA   UNL     1      -6.687  10.184  67.634  1.00  0.00    -0.065 Ca 
HETATM    2  C   UNL     2      -7.817   7.874  70.906  1.00  0.00    -0.088 C  
HETATM    3  C   UNL     2      -8.599   8.488  69.782  1.00  0.00    -0.131 C  
HETATM    4  C   UNL     3      -8.616  10.429  64.382  1.00  0.00    -0.185 C  
HETATM    5  C   UNL     3      -9.168  10.846  65.708  1.00  0.00    -0.201 C  
HETATM    6  O   UNL     3      -8.364  11.038  66.641  1.00  0.00    -0.144 OA 
HETATM    7  O   UNL     2      -7.970   8.950  68.815  1.00  0.00    -0.099 OA 
ENDROOT
BRANCH   3   8
HETATM    8  C   UNL     2     -10.099   8.540  69.876  1.00  0.00    -0.195 C  
BRANCH   8   9
HETATM    9  C   UNL     2     -10.732   7.348  69.183  1.00  0.00    -0.180 C  
HETATM   10  O   UNL     2     -12.300   6.776  70.807  1.00  0.00    -0.377 OA 
HETATM   11  O   UNL     2     -10.370   5.539  70.612  1.00  0.00    -0.228 OA 
HETATM   12  C   UNL     2     -11.190   6.448  70.317  1.00  0.00    -0.382 C  
ENDBRANCH   8   9
ENDBRANCH   3   8
BRANCH   5  13
HETATM   13  C   UNL     3     -10.667  10.904  65.890  1.00  0.00    -0.193 C  
BRANCH  13  14
HETATM   14  C   UNL     3     -11.126  12.342  65.804  1.00  0.00    -0.362 C  
HETATM   15  C   UNL     3     -11.958  12.463  64.543  1.00  0.00    -0.402 C  
HETATM   16  O   UNL     3     -13.197  12.495  64.741  1.00  0.00    -0.839 OA 
HETATM   17  O   UNL     3     -11.268  12.529  63.489  1.00  0.00    -0.446 OA 
ENDBRANCH  13  14
ENDBRANCH   5  13
TORSDOF 4
ENDMDL
MODEL      172
REMARK 921   NORMALIZED FREE ENERGY PREDICTED BY IDOCK:   -3.68 KCAL/MOL
REMARK 922        TOTAL FREE ENERGY PREDICTED BY IDOCK:   -4.90 KCAL/MOL
REMARK 923 INTER-LIGAND FREE ENERGY PREDICTED BY IDOCK:   -4.35 KCAL/MOL
REMARK 924 INTRA-LIGAND FREE ENERGY PREDICTED BY IDOCK:   -0.55 KCAL/MOL
REMARK 927      BINDING AFFINITY PREDICTED BY RF-SCORE:    0.00 PKD
ROOT
HETATM    1 CA   UNL     1     -10.064   9.054  62.536  1.00  0.00    -0.482 Ca 
HETATM    2  C   UNL     2     -12.652  12.212  63.342  1.00  0.00    -0.584 C  
HETATM    3  C   UNL     2     -11.289  11.863  63.862  1.00  0.00    -0.428 C  
HETATM    4  C   UNL     3      -6.301   9.170  62.966  1.00  0.00    -0.090 C  
HETATM    5  C   UNL     3      -7.271   9.355  64.089  1.00  0.00    -0.106 C  
HETATM    6  O   UNL     3      -8.446   8.975  63.915  1.00  0.00    -0.182 OA 
HETATM    7  O   UNL     2     -10.652  10.969  63.281  1.00  0.00    -0.312 OA 
ENDROOT
BRANCH   3   8
HETATM    8  C   UNL     2     -10.757  12.586  65.070  1.00  0.00    -0.326 C  
BRANCH   8   9
HETATM    9  C   UNL     2     -11.456  12.123  66.335  1.00  0.00    -0.430 C  
HETATM   10  O   UNL     2     -12.421  14.143  66.975  1.00  0.00    -0.325 OA 
HETATM   11  O   UNL     2     -10.530  13.400  68.055  1.00  0.00    -0.227 OA 
HETATM   12  C   UNL     2     -11.478  13.351  67.228  1.00  0.00    -0.340 C  
ENDBRANCH   8   9
ENDBRANCH   3   8
BRANCH   5  13
HETATM   13  C   UNL     3      -6.821  10.089  65.330  1.00  0.00    -0.122 C  
BRANCH  13  14
HETATM   14  C   UNL     3      -8.012  10.326  66.230  1.00  0.00    -0.124 C  
HETATM   15  C   UNL     3      -7.689   9.687  67.566  1.00  0.00    -0.095 C  
HETATM   16  O   UNL     3      -7.352  10.500  68.461  1.00  0.00    -0.081 OA 
HETATM   17  O   UNL     3      -7.827   8.433  67.570  1.00  0.00    -0.097 OA 
ENDBRANCH  13  14
ENDBRANCH   5  13
TORSDOF 4
ENDMDL
MODEL      173
REMARK 921   NORMALIZED FREE ENERGY PREDICTED BY IDOCK:   -3.67 KCAL/MOL
REMARK 922        TOTAL FREE ENERGY PREDICTED BY IDOCK:   -4.89 KCAL/MOL
REMARK 923 INTER-LIGAND FREE ENERGY PREDICTED BY IDOCK:   -4.38 KCAL/MOL
REMARK 924 INTRA-LIGAND FREE ENERGY PREDICTED BY IDOCK:   -0.51 KCAL/MOL
REMARK 927      BINDING AFFINITY PREDICTED BY RF-SCORE:    0.00 PKD
ROOT
HETATM    1 CA   UNL     1     -11.007   9.680  72.335  1.00  0.00    -0.286 Ca 
HETATM    2  C   UNL     2     -11.766  12.852  69.750  1.00  0.00    -0.351 C  
HETATM    3  C   UNL     2     -11.674  11.371  69.534  1.00  0.00    -0.348 C  
HETATM    4  C   UNL     3     -12.133   6.106  71.772  1.00  0.00    -0.169 C  
HETATM    5  C   UNL     3     -11.209   6.840  70.853  1.00  0.00    -0.292 C  
HETATM    6  O   UNL     3     -10.646   7.864  71.286  1.00  0.00    -0.210 OA 
HETATM    7  O   UNL     2     -11.649  10.634  70.533  1.00  0.00    -0.315 OA 
ENDROOT
BRANCH   3   8
HETATM    8  C   UNL     2     -11.594  10.839  68.129  1.00  0.00    -0.276 C  
BRANCH   8   9
HETATM    9  C   UNL     2     -11.587  11.969  67.116  1.00  0.00    -0.387 C  
HETATM   10  O   UNL     2     -10.390  10.922  65.415  1.00  0.00    -0.268 OA 
HETATM   11  O   UNL     2      -9.335  12.463  66.758  1.00  0.00    -0.209 OA 
HETATM   12  C   UNL     2     -10.299  11.772  66.336  1.00  0.00    -0.222 C  
ENDBRANCH   8   9
ENDBRANCH   3   8
BRANCH   5  13
HETATM   13  C   UNL     3     -11.087   6.381  69.419  1.00  0.00    -0.450 C  
BRANCH  13  14
HETATM   14  C   UNL     3     -10.522   7.504  68.580  1.00  0.00    -0.207 C  
HETATM   15  C   UNL     3      -9.229   6.994  67.975  1.00  0.00    -0.129 C  
HETATM   16  O   UNL     3      -9.317   6.667  66.766  1.00  0.00    -0.147 OA 
HETATM   17  O   UNL     3      -8.261   6.995  68.783  1.00  0.00    -0.119 OA 
ENDBRANCH  13  14
ENDBRANCH   5  13
TORSDOF 4
ENDMDL
MODEL      174
REMARK 921   NORMALIZED FREE ENERGY PREDICTED BY IDOCK:   -3.66 KCAL/MOL
REMARK 922        TOTAL FREE ENERGY PREDICTED BY IDOCK:   -4.89 KCAL/MOL
REMARK 923 INTER-LIGAND FREE ENERGY PREDICTED BY IDOCK:   -4.51 KCAL/MOL
REMARK 924 INTRA-LIGAND FREE ENERGY PREDICTED BY IDOCK:   -0.38 KCAL/MOL
REMARK 927      BINDING AFFINITY PREDICTED BY RF-SCORE:    0.00 PKD
ROOT
HETATM    1 CA   UNL     1      -7.457   6.949  64.885  1.00  0.00    -0.063 Ca 
HETATM    2  C   UNL     2      -9.564   4.147  67.128  1.00  0.00    -0.229 C  
HETATM    3  C   UNL     2      -9.839   5.581  66.784  1.00  0.00    -0.167 C  
HETATM    4  C   UNL     3      -9.002   9.941  63.148  1.00  0.00    -0.275 C  
HETATM    5  C   UNL     3      -9.042   9.729  64.628  1.00  0.00    -0.245 C  
HETATM    6  O   UNL     3      -8.239   8.914  65.123  1.00  0.00    -0.124 OA 
HETATM    7  O   UNL     2      -9.138   6.118  65.910  1.00  0.00    -0.151 OA 
ENDROOT
BRANCH   3   8
HETATM    8  C   UNL     2     -10.927   6.316  67.519  1.00  0.00    -0.444 C  
BRANCH   8   9
HETATM    9  C   UNL     2     -10.884   6.010  69.005  1.00  0.00    -0.412 C  
HETATM   10  O   UNL     2     -11.082   8.181  69.825  1.00  0.00    -0.183 OA 
HETATM   11  O   UNL     2      -9.022   7.157  69.818  1.00  0.00    -0.142 OA 
HETATM   12  C   UNL     2     -10.263   7.247  69.630  1.00  0.00    -0.211 C  
ENDBRANCH   8   9
ENDBRANCH   3   8
BRANCH   5  13
HETATM   13  C   UNL     3     -10.118  10.415  65.436  1.00  0.00    -0.354 C  
BRANCH  13  14
HETATM   14  C   UNL     3     -10.176  11.876  65.053  1.00  0.00    -0.316 C  
HETATM   15  C   UNL     3     -11.067  12.563  66.069  1.00  0.00    -0.294 C  
HETATM   16  O   UNL     3     -10.446  13.224  66.938  1.00  0.00    -0.258 OA 
HETATM   17  O   UNL     3     -12.297  12.372  65.870  1.00  0.00    -0.638 OA 
ENDBRANCH  13  14
ENDBRANCH   5  13
TORSDOF 4
ENDMDL
MODEL      175
REMARK 921   NORMALIZED FREE ENERGY PREDICTED BY IDOCK:   -3.66 KCAL/MOL
REMARK 922        TOTAL FREE ENERGY PREDICTED BY IDOCK:   -4.88 KCAL/MOL
REMARK 923 INTER-LIGAND FREE ENERGY PREDICTED BY IDOCK:   -4.44 KCAL/MOL
REMARK 924 INTRA-LIGAND FREE ENERGY PREDICTED BY IDOCK:   -0.44 KCAL/MOL
REMARK 927      BINDING AFFINITY PREDICTED BY RF-SCORE:    0.00 PKD
ROOT
HETATM    1 CA   UNL     1     -11.226   6.169  71.368  1.00  0.00    -0.225 Ca 
HETATM    2  C   UNL     2     -14.112   8.943  72.508  1.00  0.00    -0.441 C  
HETATM    3  C   UNL     2     -13.015   8.986  71.484  1.00  0.00    -0.337 C  
HETATM    4  C   UNL     3      -9.541   6.061  67.976  1.00  0.00    -0.120 C  
HETATM    5  C   UNL     3      -9.442   7.220  68.915  1.00  0.00    -0.143 C  
HETATM    6  O   UNL     3      -9.742   7.032  70.111  1.00  0.00    -0.174 OA 
HETATM    7  O   UNL     2     -12.435   7.924  71.204  1.00  0.00    -0.288 OA 
ENDROOT
BRANCH   3   8
HETATM    8  C   UNL     2     -12.649  10.303  70.857  1.00  0.00    -0.465 C  
BRANCH   8   9
HETATM    9  C   UNL     2     -11.342  10.200  70.093  1.00  0.00    -0.372 C  
HETATM   10  O   UNL     2     -11.191  12.398  69.339  1.00  0.00    -0.229 OA 
HETATM   11  O   UNL     2     -11.871  10.748  67.888  1.00  0.00    -0.553 OA 
HETATM   12  C   UNL     2     -11.470  11.226  68.981  1.00  0.00    -0.302 C  
ENDBRANCH   8   9
ENDBRANCH   3   8
BRANCH   5  13
HETATM   13  C   UNL     3      -9.099   8.583  68.361  1.00  0.00    -0.139 C  
BRANCH  13  14
HETATM   14  C   UNL     3      -7.642   8.881  68.633  1.00  0.00    -0.096 C  
HETATM   15  C   UNL     3      -7.595  10.196  69.386  1.00  0.00    -0.133 C  
HETATM   16  O   UNL     3      -7.392  10.079  70.620  1.00  0.00    -0.308 OA 
HETATM   17  O   UNL     3      -7.752  11.205  68.646  1.00  0.00    -0.118 OA 
ENDBRANCH  13  14
ENDBRANCH   5  13
TORSDOF 4
ENDMDL
MODEL      176
REMARK 921   NORMALIZED FREE ENERGY PREDICTED BY IDOCK:   -3.66 KCAL/MOL
REMARK 922        TOTAL FREE ENERGY PREDICTED BY IDOCK:   -4.88 KCAL/MOL
REMARK 923 INTER-LIGAND FREE ENERGY PREDICTED BY IDOCK:   -4.67 KCAL/MOL
REMARK 924 INTRA-LIGAND FREE ENERGY PREDICTED BY IDOCK:   -0.21 KCAL/MOL
REMARK 927      BINDING AFFINITY PREDICTED BY RF-SCORE:    0.00 PKD
ROOT
HETATM    1 CA   UNL     1      -8.780  14.557  65.601  1.00  0.00    -0.453 Ca 
HETATM    2  C   UNL     2     -11.703  13.367  68.314  1.00  0.00    -0.391 C  
HETATM    3  C   UNL     2     -10.583  14.361  68.405  1.00  0.00    -0.247 C  
HETATM    4  C   UNL     3      -7.015  17.909  65.646  1.00  0.00    -0.127 C  
HETATM    5  C   UNL     3      -6.943  16.919  66.763  1.00  0.00    -0.235 C  
HETATM    6  O   UNL     3      -7.270  15.740  66.522  1.00  0.00    -0.112 OA 
HETATM    7  O   UNL     2      -9.991  14.673  67.358  1.00  0.00    -0.229 OA 
ENDROOT
BRANCH   3   8
HETATM    8  C   UNL     2     -10.207  14.921  69.749  1.00  0.00    -0.062 C  
BRANCH   8   9
HETATM    9  C   UNL     2     -11.067  16.121  70.101  1.00  0.00    -0.373 C  
HETATM   10  O   UNL     2     -11.584  15.562  72.302  1.00  0.00    -0.430 OA 
HETATM   11  O   UNL     2     -13.157  15.242  70.653  1.00  0.00    -0.402 OA 
HETATM   12  C   UNL     2     -12.048  15.595  71.134  1.00  0.00    -0.404 C  
ENDBRANCH   8   9
ENDBRANCH   3   8
BRANCH   5  13
HETATM   13  C   UNL     3      -6.592  17.405  68.150  1.00  0.00    -0.166 C  
BRANCH  13  14
HETATM   14  C   UNL     3      -7.860  17.765  68.890  1.00  0.00    -0.186 C  
HETATM   15  C   UNL     3      -8.205  19.190  68.504  1.00  0.00    -0.364 C  
HETATM   16  O   UNL     3      -9.136  19.289  67.668  1.00  0.00    -0.292 OA 
HETATM   17  O   UNL     3      -7.508  20.055  69.102  1.00  0.00    -0.203 OA 
ENDBRANCH  13  14
ENDBRANCH   5  13
TORSDOF 4
ENDMDL
MODEL      177
REMARK 921   NORMALIZED FREE ENERGY PREDICTED BY IDOCK:   -3.66 KCAL/MOL
REMARK 922        TOTAL FREE ENERGY PREDICTED BY IDOCK:   -4.88 KCAL/MOL
REMARK 923 INTER-LIGAND FREE ENERGY PREDICTED BY IDOCK:   -4.23 KCAL/MOL
REMARK 924 INTRA-LIGAND FREE ENERGY PREDICTED BY IDOCK:   -0.65 KCAL/MOL
REMARK 927      BINDING AFFINITY PREDICTED BY RF-SCORE:    0.00 PKD
ROOT
HETATM    1 CA   UNL     1      -8.834   7.648  68.425  1.00  0.00    -0.123 Ca 
HETATM    2  C   UNL     2      -6.861   9.217  65.113  1.00  0.00    -0.077 C  
HETATM    3  C   UNL     2      -8.003   9.724  65.945  1.00  0.00    -0.111 C  
HETATM    4  C   UNL     3     -10.693   9.698  71.014  1.00  0.00    -0.393 C  
HETATM    5  C   UNL     3     -11.064   9.657  69.566  1.00  0.00    -0.168 C  
HETATM    6  O   UNL     3     -10.617   8.720  68.874  1.00  0.00    -0.215 OA 
HETATM    7  O   UNL     2      -8.248   9.145  67.016  1.00  0.00    -0.114 OA 
ENDROOT
BRANCH   3   8
HETATM    8  C   UNL     2      -8.813  10.889  65.445  1.00  0.00    -0.192 C  
BRANCH   8   9
HETATM    9  C   UNL     2     -10.300  10.603  65.545  1.00  0.00    -0.297 C  
HETATM   10  O   UNL     2     -10.962  11.406  63.462  1.00  0.00    -0.398 OA 
HETATM   11  O   UNL     2     -11.343  12.680  65.339  1.00  0.00    -0.293 OA 
HETATM   12  C   UNL     2     -10.951  11.675  64.690  1.00  0.00    -0.301 C  
ENDBRANCH   8   9
ENDBRANCH   3   8
BRANCH   5  13
HETATM   13  C   UNL     3     -11.860  10.800  68.981  1.00  0.00    -0.325 C  
BRANCH  13  14
HETATM   14  C   UNL     3     -11.604  12.051  69.790  1.00  0.00    -0.348 C  
HETATM   15  C   UNL     3     -11.167  13.125  68.812  1.00  0.00    -0.281 C  
HETATM   16  O   UNL     3     -12.058  13.964  68.533  1.00  0.00    -0.362 OA 
HETATM   17  O   UNL     3      -9.966  13.012  68.446  1.00  0.00    -0.231 OA 
ENDBRANCH  13  14
ENDBRANCH   5  13
TORSDOF 4
ENDMDL
MODEL      178
REMARK 921   NORMALIZED FREE ENERGY PREDICTED BY IDOCK:   -3.62 KCAL/MOL
REMARK 922        TOTAL FREE ENERGY PREDICTED BY IDOCK:   -4.83 KCAL/MOL
REMARK 923 INTER-LIGAND FREE ENERGY PREDICTED BY IDOCK:   -4.33 KCAL/MOL
REMARK 924 INTRA-LIGAND FREE ENERGY PREDICTED BY IDOCK:   -0.50 KCAL/MOL
REMARK 927      BINDING AFFINITY PREDICTED BY RF-SCORE:    0.00 PKD
ROOT
HETATM    1 CA   UNL     1     -12.658  12.525  69.410  1.00  0.00    -0.234 Ca 
HETATM    2  C   UNL     2     -10.279   9.111  69.481  1.00  0.00    -0.208 C  
HETATM    3  C   UNL     2     -10.031  10.507  68.992  1.00  0.00    -0.211 C  
HETATM    4  C   UNL     3     -11.348  16.080  69.362  1.00  0.00    -0.355 C  
HETATM    5  C   UNL     3     -11.071  15.079  68.286  1.00  0.00    -0.286 C  
HETATM    6  O   UNL     3     -11.801  14.071  68.224  1.00  0.00    -0.341 OA 
HETATM    7  O   UNL     2     -10.852  11.388  69.295  1.00  0.00    -0.228 OA 
ENDROOT
BRANCH   3   8
HETATM    8  C   UNL     2      -8.820  10.781  68.142  1.00  0.00    -0.133 C  
BRANCH   8   9
HETATM    9  C   UNL     2      -9.192  11.567  66.898  1.00  0.00    -0.181 C  
HETATM   10  O   UNL     2     -10.261   9.874  65.709  1.00  0.00    -0.265 OA 
HETATM   11  O   UNL     2      -8.117  10.479  65.136  1.00  0.00    -0.155 OA 
HETATM   12  C   UNL     2      -9.194  10.535  65.784  1.00  0.00    -0.182 C  
ENDBRANCH   8   9
ENDBRANCH   3   8
BRANCH   5  13
HETATM   13  C   UNL     3      -9.862  15.272  67.402  1.00  0.00    -0.217 C  
BRANCH  13  14
HETATM   14  C   UNL     3     -10.162  16.333  66.368  1.00  0.00    -0.322 C  
HETATM   15  C   UNL     3      -9.136  17.433  66.554  1.00  0.00    -0.266 C  
HETATM   16  O   UNL     3      -8.212  17.428  65.704  1.00  0.00    -0.491 OA 
HETATM   17  O   UNL     3      -9.384  18.192  67.530  1.00  0.00    -0.256 OA 
ENDBRANCH  13  14
ENDBRANCH   5  13
TORSDOF 4
ENDMDL
MODEL      179
REMARK 921   NORMALIZED FREE ENERGY PREDICTED BY IDOCK:   -3.59 KCAL/MOL
REMARK 922        TOTAL FREE ENERGY PREDICTED BY IDOCK:   -4.79 KCAL/MOL
REMARK 923 INTER-LIGAND FREE ENERGY PREDICTED BY IDOCK:   -4.24 KCAL/MOL
REMARK 924 INTRA-LIGAND FREE ENERGY PREDICTED BY IDOCK:   -0.55 KCAL/MOL
REMARK 927      BINDING AFFINITY PREDICTED BY RF-SCORE:    0.00 PKD
ROOT
HETATM    1 CA   UNL     1     -10.507  12.633  69.952  1.00  0.00    -0.425 Ca 
HETATM    2  C   UNL     2      -9.890  14.285  66.183  1.00  0.00    -0.335 C  
HETATM    3  C   UNL     2     -10.003  12.867  66.660  1.00  0.00    -0.251 C  
HETATM    4  C   UNL     3     -12.033   9.227  70.604  1.00  0.00    -0.206 C  
HETATM    5  C   UNL     3     -10.763   9.435  69.842  1.00  0.00    -0.234 C  
HETATM    6  O   UNL     3     -10.180  10.531  69.966  1.00  0.00    -0.163 OA 
HETATM    7  O   UNL     2     -10.407  12.670  67.818  1.00  0.00    -0.212 OA 
ENDROOT
BRANCH   3   8
HETATM    8  C   UNL     2      -9.606  11.749  65.735  1.00  0.00    -0.253 C  
BRANCH   8   9
HETATM    9  C   UNL     2     -10.817  11.174  65.023  1.00  0.00    -0.244 C  
HETATM   10  O   UNL     2      -9.915  10.973  62.885  1.00  0.00    -0.299 OA 
HETATM   11  O   UNL     2     -11.341  12.717  63.353  1.00  0.00    -0.482 OA 
HETATM   12  C   UNL     2     -10.687  11.669  63.593  1.00  0.00    -0.435 C  
ENDBRANCH   8   9
ENDBRANCH   3   8
BRANCH   5  13
HETATM   13  C   UNL     3     -10.306   8.367  68.877  1.00  0.00    -0.231 C  
BRANCH  13  14
HETATM   14  C   UNL     3      -8.812   8.177  69.012  1.00  0.00    -0.144 C  
HETATM   15  C   UNL     3      -8.197   8.571  67.684  1.00  0.00    -0.118 C  
HETATM   16  O   UNL     3      -7.653   9.702  67.680  1.00  0.00    -0.090 OA 
HETATM   17  O   UNL     3      -8.316   7.686  66.793  1.00  0.00    -0.119 OA 
ENDBRANCH  13  14
ENDBRANCH   5  13
TORSDOF 4
ENDMDL
MODEL      180
REMARK 921   NORMALIZED FREE ENERGY PREDICTED BY IDOCK:   -3.57 KCAL/MOL
REMARK 922        TOTAL FREE ENERGY PREDICTED BY IDOCK:   -4.77 KCAL/MOL
REMARK 923 INTER-LIGAND FREE ENERGY PREDICTED BY IDOCK:   -4.24 KCAL/MOL
REMARK 924 INTRA-LIGAND FREE ENERGY PREDICTED BY IDOCK:   -0.53 KCAL/MOL
REMARK 927      BINDING AFFINITY PREDICTED BY RF-SCORE:    0.00 PKD
ROOT
HETATM    1 CA   UNL     1     -11.813  11.708  69.521  1.00  0.00    -0.212 Ca 
HETATM    2  C   UNL     2      -8.276   9.937  68.228  1.00  0.00    -0.109 C  
HETATM    3  C   UNL     2      -8.828  11.324  68.075  1.00  0.00    -0.148 C  
HETATM    4  C   UNL     3     -12.286  15.418  70.125  1.00  0.00    -0.395 C  
HETATM    5  C   UNL     3     -11.935  14.832  68.795  1.00  0.00    -0.257 C  
HETATM    6  O   UNL     3     -12.127  13.612  68.625  1.00  0.00    -0.360 OA 
HETATM    7  O   UNL     2      -9.819  11.637  68.755  1.00  0.00    -0.193 OA 
ENDROOT
BRANCH   3   8
HETATM    8  C   UNL     2      -8.181  12.267  67.097  1.00  0.00    -0.179 C  
BRANCH   8   9
HETATM    9  C   UNL     2      -6.951  12.920  67.701  1.00  0.00    -0.152 C  
HETATM   10  O   UNL     2      -8.001  14.578  68.953  1.00  0.00    -0.140 OA 
HETATM   11  O   UNL     2      -6.999  15.131  66.958  1.00  0.00    -0.221 OA 
HETATM   12  C   UNL     2      -7.350  14.371  67.898  1.00  0.00    -0.154 C  
ENDBRANCH   8   9
ENDBRANCH   3   8
BRANCH   5  13
HETATM   13  C   UNL     3     -11.263  15.709  67.765  1.00  0.00    -0.297 C  
BRANCH  13  14
HETATM   14  C   UNL     3     -10.539  16.837  68.463  1.00  0.00    -0.354 C  
HETATM   15  C   UNL     3     -10.172  17.851  67.398  1.00  0.00    -0.360 C  
HETATM   16  O   UNL     3     -10.908  18.867  67.374  1.00  0.00    -0.458 OA 
HETATM   17  O   UNL     3      -9.168  17.517  66.711  1.00  0.00    -0.249 OA 
ENDBRANCH  13  14
ENDBRANCH   5  13
TORSDOF 4
ENDMDL
MODEL      181
REMARK 921   NORMALIZED FREE ENERGY PREDICTED BY IDOCK:   -3.55 KCAL/MOL
REMARK 922        TOTAL FREE ENERGY PREDICTED BY IDOCK:   -4.75 KCAL/MOL
REMARK 923 INTER-LIGAND FREE ENERGY PREDICTED BY IDOCK:   -4.18 KCAL/MOL
REMARK 924 INTRA-LIGAND FREE ENERGY PREDICTED BY IDOCK:   -0.56 KCAL/MOL
REMARK 927      BINDING AFFINITY PREDICTED BY RF-SCORE:    0.00 PKD
ROOT
HETATM    1 CA   UNL     1     -12.421  10.224  70.004  1.00  0.00    -0.258 Ca 
HETATM    2  C   UNL     2     -11.942  12.893  66.847  1.00  0.00    -0.402 C  
HETATM    3  C   UNL     2     -11.292  11.580  67.169  1.00  0.00    -0.284 C  
HETATM    4  C   UNL     3     -11.658   6.515  69.843  1.00  0.00    -0.433 C  
HETATM    5  C   UNL     3     -10.633   7.583  69.634  1.00  0.00    -0.239 C  
HETATM    6  O   UNL     3     -10.900   8.735  70.029  1.00  0.00    -0.231 OA 
HETATM    7  O   UNL     2     -11.788  10.888  68.073  1.00  0.00    -0.585 OA 
ENDROOT
BRANCH   3   8
HETATM    8  C   UNL     2     -10.063  11.164  66.407  1.00  0.00    -0.269 C  
BRANCH   8   9
HETATM    9  C   UNL     2      -8.937  10.784  67.351  1.00  0.00    -0.141 C  
HETATM   10  O   UNL     2      -7.710  12.761  67.261  1.00  0.00    -0.163 OA 
HETATM   11  O   UNL     2      -6.989  10.926  66.075  1.00  0.00    -0.127 OA 
HETATM   12  C   UNL     2      -7.740  11.573  66.850  1.00  0.00    -0.157 C  
ENDBRANCH   8   9
ENDBRANCH   3   8
BRANCH   5  13
HETATM   13  C   UNL     3      -9.378   7.251  68.860  1.00  0.00    -0.144 C  
BRANCH  13  14
HETATM   14  C   UNL     3      -9.661   7.360  67.379  1.00  0.00    -0.196 C  
HETATM   15  C   UNL     3      -9.621   5.952  66.818  1.00  0.00    -0.148 C  
HETATM   16  O   UNL     3     -10.750   5.452  66.594  1.00  0.00    -0.295 OA 
HETATM   17  O   UNL     3      -8.451   5.512  66.651  1.00  0.00    -0.112 OA 
ENDBRANCH  13  14
ENDBRANCH   5  13
TORSDOF 4
ENDMDL
MODEL      182
REMARK 921   NORMALIZED FREE ENERGY PREDICTED BY IDOCK:   -3.54 KCAL/MOL
REMARK 922        TOTAL FREE ENERGY PREDICTED BY IDOCK:   -4.74 KCAL/MOL
REMARK 923 INTER-LIGAND FREE ENERGY PREDICTED BY IDOCK:   -4.36 KCAL/MOL
REMARK 924 INTRA-LIGAND FREE ENERGY PREDICTED BY IDOCK:   -0.38 KCAL/MOL
REMARK 927      BINDING AFFINITY PREDICTED BY RF-SCORE:    0.00 PKD
ROOT
HETATM    1 CA   UNL     1      -8.509  13.110  66.089  1.00  0.00    -0.380 Ca 
HETATM    2  C   UNL     2      -7.669   9.392  64.418  1.00  0.00    -0.119 C  
HETATM    3  C   UNL     2      -8.759   9.867  65.333  1.00  0.00    -0.155 C  
HETATM    4  C   UNL     3     -11.941  14.258  67.211  1.00  0.00    -0.439 C  
HETATM    5  C   UNL     3     -11.228  13.081  67.795  1.00  0.00    -0.279 C  
HETATM    6  O   UNL     3     -10.000  12.987  67.602  1.00  0.00    -0.208 OA 
HETATM    7  O   UNL     2      -8.890  11.091  65.501  1.00  0.00    -0.195 OA 
ENDROOT
BRANCH   3   8
HETATM    8  C   UNL     2      -9.630   8.854  66.024  1.00  0.00    -0.320 C  
BRANCH   8   9
HETATM    9  C   UNL     2      -8.798   7.735  66.622  1.00  0.00    -0.166 C  
HETATM   10  O   UNL     2     -10.070   7.318  68.528  1.00  0.00    -0.161 OA 
HETATM   11  O   UNL     2      -8.118   8.521  68.711  1.00  0.00    -0.116 OA 
HETATM   12  C   UNL     2      -9.012   7.862  68.120  1.00  0.00    -0.131 C  
ENDBRANCH   8   9
ENDBRANCH   3   8
BRANCH   5  13
HETATM   13  C   UNL     3     -12.034  12.008  68.488  1.00  0.00    -0.273 C  
BRANCH  13  14
HETATM   14  C   UNL     3     -11.868  12.145  69.984  1.00  0.00    -0.383 C  
HETATM   15  C   UNL     3     -12.059  10.763  70.577  1.00  0.00    -0.366 C  
HETATM   16  O   UNL     3     -10.992  10.190  70.910  1.00  0.00    -0.318 OA 
HETATM   17  O   UNL     3     -13.268  10.412  70.656  1.00  0.00    -0.350 OA 
ENDBRANCH  13  14
ENDBRANCH   5  13
TORSDOF 4
ENDMDL
MODEL      183
REMARK 921   NORMALIZED FREE ENERGY PREDICTED BY IDOCK:   -3.51 KCAL/MOL
REMARK 922        TOTAL FREE ENERGY PREDICTED BY IDOCK:   -4.69 KCAL/MOL
REMARK 923 INTER-LIGAND FREE ENERGY PREDICTED BY IDOCK:   -4.20 KCAL/MOL
REMARK 924 INTRA-LIGAND FREE ENERGY PREDICTED BY IDOCK:   -0.49 KCAL/MOL
REMARK 927      BINDING AFFINITY PREDICTED BY RF-SCORE:    0.00 PKD
ROOT
HETATM    1 CA   UNL     1      -7.073  14.507  68.523  1.00  0.00    -0.090 Ca 
HETATM    2  C   UNL     2      -5.278  10.843  67.702  1.00  0.00    -0.040 C  
HETATM    3  C   UNL     2      -6.440  11.562  67.082  1.00  0.00    -0.123 C  
HETATM    4  C   UNL     3      -9.036  16.569  66.023  1.00  0.00    -0.290 C  
HETATM    5  C   UNL     3      -9.427  15.190  66.450  1.00  0.00    -0.296 C  
HETATM    6  O   UNL     3      -8.923  14.738  67.497  1.00  0.00    -0.175 OA 
HETATM    7  O   UNL     2      -6.624  12.752  67.390  1.00  0.00    -0.153 OA 
ENDROOT
BRANCH   3   8
HETATM    8  C   UNL     2      -7.342  10.818  66.136  1.00  0.00    -0.127 C  
BRANCH   8   9
HETATM    9  C   UNL     2      -7.805   9.506  66.741  1.00  0.00    -0.101 C  
HETATM   10  O   UNL     2     -10.074   9.659  66.242  1.00  0.00    -0.258 OA 
HETATM   11  O   UNL     2      -9.355  10.096  68.383  1.00  0.00    -0.132 OA 
HETATM   12  C   UNL     2      -9.237   9.771  67.173  1.00  0.00    -0.138 C  
ENDBRANCH   8   9
ENDBRANCH   3   8
BRANCH   5  13
HETATM   13  C   UNL     3     -10.315  14.369  65.545  1.00  0.00    -0.382 C  
BRANCH  13  14
HETATM   14  C   UNL     3     -11.705  14.303  66.136  1.00  0.00    -0.397 C  
HETATM   15  C   UNL     3     -12.187  12.875  65.970  1.00  0.00    -0.366 C  
HETATM   16  O   UNL     3     -12.139  12.187  67.019  1.00  0.00    -0.591 OA 
HETATM   17  O   UNL     3     -12.578  12.609  64.800  1.00  0.00    -0.542 OA 
ENDBRANCH  13  14
ENDBRANCH   5  13
TORSDOF 4
ENDMDL
MODEL      184
REMARK 921   NORMALIZED FREE ENERGY PREDICTED BY IDOCK:   -3.49 KCAL/MOL
REMARK 922        TOTAL FREE ENERGY PREDICTED BY IDOCK:   -4.67 KCAL/MOL
REMARK 923 INTER-LIGAND FREE ENERGY PREDICTED BY IDOCK:   -4.32 KCAL/MOL
REMARK 924 INTRA-LIGAND FREE ENERGY PREDICTED BY IDOCK:   -0.35 KCAL/MOL
REMARK 927      BINDING AFFINITY PREDICTED BY RF-SCORE:    0.00 PKD
ROOT
HETATM    1 CA   UNL     1     -11.842  11.824  71.021  1.00  0.00    -0.315 Ca 
HETATM    2  C   UNL     2     -10.278   8.028  71.702  1.00  0.00    -0.256 C  
HETATM    3  C   UNL     2     -10.385   8.871  70.465  1.00  0.00    -0.203 C  
HETATM    4  C   UNL     3     -10.790  14.131  68.206  1.00  0.00    -0.259 C  
HETATM    5  C   UNL     3     -11.405  12.785  67.990  1.00  0.00    -0.292 C  
HETATM    6  O   UNL     3     -12.009  12.259  68.945  1.00  0.00    -0.308 OA 
HETATM    7  O   UNL     2     -10.706  10.064  70.597  1.00  0.00    -0.303 OA 
ENDROOT
BRANCH   3   8
HETATM    8  C   UNL     2     -10.123   8.243  69.124  1.00  0.00    -0.205 C  
BRANCH   8   9
HETATM    9  C   UNL     2      -8.916   7.325  69.177  1.00  0.00    -0.135 C  
HETATM   10  O   UNL     2      -7.536   8.457  67.681  1.00  0.00    -0.095 OA 
HETATM   11  O   UNL     2      -8.630   6.554  66.993  1.00  0.00    -0.112 OA 
HETATM   12  C   UNL     2      -8.282   7.452  67.803  1.00  0.00    -0.119 C  
ENDBRANCH   8   9
ENDBRANCH   3   8
BRANCH   5  13
HETATM   13  C   UNL     3     -11.172  12.077  66.676  1.00  0.00    -0.380 C  
BRANCH  13  14
HETATM   14  C   UNL     3     -10.238  12.903  65.821  1.00  0.00    -0.298 C  
HETATM   15  C   UNL     3     -10.839  12.949  64.430  1.00  0.00    -0.380 C  
HETATM   16  O   UNL     3     -11.412  14.029  64.149  1.00  0.00    -0.323 OA 
HETATM   17  O   UNL     3     -10.651  11.893  63.766  1.00  0.00    -0.338 OA 
ENDBRANCH  13  14
ENDBRANCH   5  13
TORSDOF 4
ENDMDL
MODEL      185
REMARK 921   NORMALIZED FREE ENERGY PREDICTED BY IDOCK:   -3.48 KCAL/MOL
REMARK 922        TOTAL FREE ENERGY PREDICTED BY IDOCK:   -4.67 KCAL/MOL
REMARK 923 INTER-LIGAND FREE ENERGY PREDICTED BY IDOCK:   -4.29 KCAL/MOL
REMARK 924 INTRA-LIGAND FREE ENERGY PREDICTED BY IDOCK:   -0.38 KCAL/MOL
REMARK 927      BINDING AFFINITY PREDICTED BY RF-SCORE:    0.00 PKD
ROOT
HETATM    1 CA   UNL     1      -9.199  14.621  64.829  1.00  0.00    -0.397 Ca 
HETATM    2  C   UNL     2     -10.059  10.550  64.890  1.00  0.00    -0.403 C  
HETATM    3  C   UNL     2      -9.711  11.527  65.974  1.00  0.00    -0.226 C  
HETATM    4  C   UNL     3      -9.676  16.983  67.753  1.00  0.00    -0.258 C  
HETATM    5  C   UNL     3      -8.753  15.806  67.779  1.00  0.00    -0.170 C  
HETATM    6  O   UNL     3      -8.420  15.301  66.688  1.00  0.00    -0.259 OA 
HETATM    7  O   UNL     2      -9.717  12.737  65.695  1.00  0.00    -0.223 OA 
ENDROOT
BRANCH   3   8
HETATM    8  C   UNL     2      -9.352  11.009  67.340  1.00  0.00    -0.165 C  
BRANCH   8   9
HETATM    9  C   UNL     2     -10.330   9.941  67.794  1.00  0.00    -0.268 C  
HETATM   10  O   UNL     2     -12.231  11.267  68.023  1.00  0.00    -0.621 OA 
HETATM   11  O   UNL     2     -11.063  10.630  69.900  1.00  0.00    -0.270 OA 
HETATM   12  C   UNL     2     -11.324  10.684  68.670  1.00  0.00    -0.281 C  
ENDBRANCH   8   9
ENDBRANCH   3   8
BRANCH   5  13
HETATM   13  C   UNL     3      -8.360  15.213  69.111  1.00  0.00    -0.221 C  
BRANCH  13  14
HETATM   14  C   UNL     3      -7.120  14.367  68.936  1.00  0.00    -0.116 C  
HETATM   15  C   UNL     3      -6.251  14.600  70.156  1.00  0.00    -0.165 C  
HETATM   16  O   UNL     3      -6.284  13.672  71.000  1.00  0.00    -0.109 OA 
HETATM   17  O   UNL     3      -5.617  15.690  70.121  1.00  0.00    -0.137 OA 
ENDBRANCH  13  14
ENDBRANCH   5  13
TORSDOF 4
ENDMDL
MODEL      186
REMARK 921   NORMALIZED FREE ENERGY PREDICTED BY IDOCK:   -3.46 KCAL/MOL
REMARK 922        TOTAL FREE ENERGY PREDICTED BY IDOCK:   -4.63 KCAL/MOL
REMARK 923 INTER-LIGAND FREE ENERGY PREDICTED BY IDOCK:   -4.31 KCAL/MOL
REMARK 924 INTRA-LIGAND FREE ENERGY PREDICTED BY IDOCK:   -0.33 KCAL/MOL
REMARK 927      BINDING AFFINITY PREDICTED BY RF-SCORE:    0.00 PKD
ROOT
HETATM    1 CA   UNL     1      -8.060   7.237  72.769  1.00  0.00    -0.097 Ca 
HETATM    2  C   UNL     2     -10.870   4.225  73.362  1.00  0.00    -0.337 C  
HETATM    3  C   UNL     2     -10.859   5.440  72.482  1.00  0.00    -0.250 C  
HETATM    4  C   UNL     3      -7.756   9.331  69.625  1.00  0.00    -0.087 C  
HETATM    5  C   UNL     3      -8.973   9.310  70.494  1.00  0.00    -0.250 C  
HETATM    6  O   UNL     3      -8.857   8.864  71.652  1.00  0.00    -0.264 OA 
HETATM    7  O   UNL     2      -9.788   6.054  72.345  1.00  0.00    -0.163 OA 
ENDROOT
BRANCH   3   8
HETATM    8  C   UNL     2     -12.139   5.878  71.823  1.00  0.00     0.110 C  
BRANCH   8   9
HETATM    9  C   UNL     2     -11.951   7.191  71.084  1.00  0.00    -0.381 C  
HETATM   10  O   UNL     2     -11.934   8.634  72.912  1.00  0.00    -0.184 OA 
HETATM   11  O   UNL     2     -13.827   8.472  71.615  1.00  0.00    -0.379 OA 
HETATM   12  C   UNL     2     -12.643   8.221  71.959  1.00  0.00    -0.349 C  
ENDBRANCH   8   9
ENDBRANCH   3   8
BRANCH   5  13
HETATM   13  C   UNL     3     -10.302   9.716  69.901  1.00  0.00    -0.282 C  
BRANCH  13  14
HETATM   14  C   UNL     3     -10.075  10.770  68.841  1.00  0.00    -0.217 C  
HETATM   15  C   UNL     3     -10.972  10.417  67.670  1.00  0.00    -0.312 C  
HETATM   16  O   UNL     3     -12.008  11.120  67.583  1.00  0.00    -0.613 OA 
HETATM   17  O   UNL     3     -10.522   9.480  66.957  1.00  0.00    -0.249 OA 
ENDBRANCH  13  14
ENDBRANCH   5  13
TORSDOF 4
ENDMDL
MODEL      187
REMARK 921   NORMALIZED FREE ENERGY PREDICTED BY IDOCK:   -3.46 KCAL/MOL
REMARK 922        TOTAL FREE ENERGY PREDICTED BY IDOCK:   -4.63 KCAL/MOL
REMARK 923 INTER-LIGAND FREE ENERGY PREDICTED BY IDOCK:   -4.18 KCAL/MOL
REMARK 924 INTRA-LIGAND FREE ENERGY PREDICTED BY IDOCK:   -0.45 KCAL/MOL
REMARK 927      BINDING AFFINITY PREDICTED BY RF-SCORE:    0.00 PKD
ROOT
HETATM    1 CA   UNL     1      -7.359  14.836  68.548  1.00  0.00    -0.095 Ca 
HETATM    2  C   UNL     2      -7.193  10.703  68.094  1.00  0.00    -0.086 C  
HETATM    3  C   UNL     2      -8.336  11.653  68.298  1.00  0.00    -0.159 C  
HETATM    4  C   UNL     3     -10.365  16.990  67.721  1.00  0.00    -0.335 C  
HETATM    5  C   UNL     3     -10.378  15.908  68.753  1.00  0.00    -0.228 C  
HETATM    6  O   UNL     3      -9.282  15.494  69.179  1.00  0.00    -0.211 OA 
HETATM    7  O   UNL     2      -8.113  12.870  68.184  1.00  0.00    -0.141 OA 
ENDROOT
BRANCH   3   8
HETATM    8  C   UNL     2      -9.692  11.104  68.651  1.00  0.00    -0.202 C  
BRANCH   8   9
HETATM    9  C   UNL     2      -9.635   9.603  68.864  1.00  0.00    -0.161 C  
HETATM   10  O   UNL     2     -11.480   9.367  70.265  1.00  0.00    -0.244 OA 
HETATM   11  O   UNL     2      -9.363   9.316  71.164  1.00  0.00    -0.254 OA 
HETATM   12  C   UNL     2     -10.223   9.393  70.248  1.00  0.00    -0.247 C  
ENDBRANCH   8   9
ENDBRANCH   3   8
BRANCH   5  13
HETATM   13  C   UNL     3     -11.698  15.290  69.149  1.00  0.00    -0.355 C  
BRANCH  13  14
HETATM   14  C   UNL     3     -11.562  14.647  70.510  1.00  0.00    -0.319 C  
HETATM   15  C   UNL     3     -12.429  15.446  71.463  1.00  0.00    -0.384 C  
HETATM   16  O   UNL     3     -13.521  14.898  71.752  1.00  0.00    -0.332 OA 
HETATM   17  O   UNL     3     -11.905  16.533  71.829  1.00  0.00    -0.423 OA 
ENDBRANCH  13  14
ENDBRANCH   5  13
TORSDOF 4
ENDMDL
MODEL      188
REMARK 921   NORMALIZED FREE ENERGY PREDICTED BY IDOCK:   -3.45 KCAL/MOL
REMARK 922        TOTAL FREE ENERGY PREDICTED BY IDOCK:   -4.63 KCAL/MOL
REMARK 923 INTER-LIGAND FREE ENERGY PREDICTED BY IDOCK:   -4.20 KCAL/MOL
REMARK 924 INTRA-LIGAND FREE ENERGY PREDICTED BY IDOCK:   -0.43 KCAL/MOL
REMARK 927      BINDING AFFINITY PREDICTED BY RF-SCORE:    0.00 PKD
ROOT
HETATM    1 CA   UNL     1     -12.655  10.882  68.556  1.00  0.00    -0.284 Ca 
HETATM    2  C   UNL     2     -13.455   9.528  72.409  1.00  0.00    -0.475 C  
HETATM    3  C   UNL     2     -12.352   9.224  71.439  1.00  0.00    -0.343 C  
HETATM    4  C   UNL     3      -9.221  10.970  66.957  1.00  0.00    -0.164 C  
HETATM    5  C   UNL     3      -9.892   9.714  67.415  1.00  0.00    -0.171 C  
HETATM    6  O   UNL     3     -11.122   9.747  67.613  1.00  0.00    -0.244 OA 
HETATM    7  O   UNL     2     -12.244   9.944  70.432  1.00  0.00    -0.217 OA 
ENDROOT
BRANCH   3   8
HETATM    8  C   UNL     2     -11.440   8.058  71.707  1.00  0.00    -0.324 C  
BRANCH   8   9
HETATM    9  C   UNL     2     -12.081   6.752  71.277  1.00  0.00    -0.421 C  
HETATM   10  O   UNL     2     -10.150   5.531  70.830  1.00  0.00    -0.189 OA 
HETATM   11  O   UNL     2     -11.365   6.405  69.083  1.00  0.00    -0.364 OA 
HETATM   12  C   UNL     2     -11.097   6.153  70.287  1.00  0.00    -0.366 C  
ENDBRANCH   8   9
ENDBRANCH   3   8
BRANCH   5  13
HETATM   13  C   UNL     3      -9.043   8.503  67.725  1.00  0.00    -0.143 C  
BRANCH  13  14
HETATM   14  C   UNL     3      -9.289   7.439  66.680  1.00  0.00    -0.215 C  
HETATM   15  C   UNL     3      -7.930   6.985  66.185  1.00  0.00    -0.110 C  
HETATM   16  O   UNL     3      -7.553   5.881  66.649  1.00  0.00    -0.092 OA 
HETATM   17  O   UNL     3      -7.399   7.786  65.369  1.00  0.00    -0.072 OA 
ENDBRANCH  13  14
ENDBRANCH   5  13
TORSDOF 4
ENDMDL
MODEL      189
REMARK 921   NORMALIZED FREE ENERGY PREDICTED BY IDOCK:   -3.44 KCAL/MOL
REMARK 922        TOTAL FREE ENERGY PREDICTED BY IDOCK:   -4.61 KCAL/MOL
REMARK 923 INTER-LIGAND FREE ENERGY PREDICTED BY IDOCK:   -5.15 KCAL/MOL
REMARK 924 INTRA-LIGAND FREE ENERGY PREDICTED BY IDOCK:    0.54 KCAL/MOL
REMARK 927      BINDING AFFINITY PREDICTED BY RF-SCORE:    0.00 PKD
ROOT
HETATM    1 CA   UNL     1      -8.920  15.093  71.055  1.00  0.00    -0.160 Ca 
HETATM    2  C   UNL     2      -8.136  15.790  67.028  1.00  0.00    -0.272 C  
HETATM    3  C   UNL     2      -9.407  15.779  67.824  1.00  0.00    -0.206 C  
HETATM    4  C   UNL     3     -11.930  16.416  72.939  1.00  0.00    -0.569 C  
HETATM    5  C   UNL     3     -12.025  15.492  71.768  1.00  0.00    -0.419 C  
HETATM    6  O   UNL     3     -11.001  14.862  71.436  1.00  0.00    -0.142 OA 
HETATM    7  O   UNL     2      -9.322  15.754  69.063  1.00  0.00    -0.210 OA 
ENDROOT
BRANCH   3   8
HETATM    8  C   UNL     2     -10.726  15.778  67.100  1.00  0.00    -0.312 C  
BRANCH   8   9
HETATM    9  C   UNL     2     -10.953  14.461  66.380  1.00  0.00    -0.319 C  
HETATM   10  O   UNL     2     -12.321  13.422  67.953  1.00  0.00    -0.203 OA 
HETATM   11  O   UNL     2     -10.104  12.823  67.809  1.00  0.00    -0.214 OA 
HETATM   12  C   UNL     2     -11.150  13.449  67.495  1.00  0.00    -0.274 C  
ENDBRANCH   8   9
ENDBRANCH   3   8
BRANCH   5  13
HETATM   13  C   UNL     3     -13.309  15.446  70.975  1.00  0.00    -0.545 C  
BRANCH  13  14
HETATM   14  C   UNL     3     -14.261  14.465  71.620  1.00  0.00    -0.512 C  
HETATM   15  C   UNL     3     -13.434  13.273  72.060  1.00  0.00    -0.507 C  
HETATM   16  O   UNL     3     -13.190  13.238  73.291  1.00  0.00    -0.082 OA 
HETATM   17  O   UNL     3     -13.133  12.493  71.115  1.00  0.00    -0.207 OA 
ENDBRANCH  13  14
ENDBRANCH   5  13
TORSDOF 4
ENDMDL
MODEL      190
REMARK 921   NORMALIZED FREE ENERGY PREDICTED BY IDOCK:   -3.44 KCAL/MOL
REMARK 922        TOTAL FREE ENERGY PREDICTED BY IDOCK:   -4.60 KCAL/MOL
REMARK 923 INTER-LIGAND FREE ENERGY PREDICTED BY IDOCK:   -4.16 KCAL/MOL
REMARK 924 INTRA-LIGAND FREE ENERGY PREDICTED BY IDOCK:   -0.45 KCAL/MOL
REMARK 927      BINDING AFFINITY PREDICTED BY RF-SCORE:    0.00 PKD
ROOT
HETATM    1 CA   UNL     1     -12.777  15.830  69.330  1.00  0.00    -0.460 Ca 
HETATM    2  C   UNL     2     -12.323  11.789  70.214  1.00  0.00    -0.320 C  
HETATM    3  C   UNL     2     -11.542  12.728  69.343  1.00  0.00    -0.298 C  
HETATM    4  C   UNL     3      -9.981  18.136  68.225  1.00  0.00    -0.380 C  
HETATM    5  C   UNL     3     -10.415  16.929  67.455  1.00  0.00    -0.328 C  
HETATM    6  O   UNL     3     -11.531  16.440  67.716  1.00  0.00    -0.127 OA 
HETATM    7  O   UNL     2     -11.777  13.944  69.435  1.00  0.00    -0.273 OA 
ENDROOT
BRANCH   3   8
HETATM    8  C   UNL     2     -10.527  12.166  68.384  1.00  0.00    -0.242 C  
BRANCH   8   9
HETATM    9  C   UNL     2     -10.683  10.664  68.242  1.00  0.00    -0.260 C  
HETATM   10  O   UNL     2      -9.167   9.987  69.874  1.00  0.00    -0.215 OA 
HETATM   11  O   UNL     2      -8.567   9.876  67.656  1.00  0.00    -0.121 OA 
HETATM   12  C   UNL     2      -9.328  10.102  68.633  1.00  0.00    -0.161 C  
ENDBRANCH   8   9
ENDBRANCH   3   8
BRANCH   5  13
HETATM   13  C   UNL     3      -9.446  16.293  66.486  1.00  0.00    -0.289 C  
BRANCH  13  14
HETATM   14  C   UNL     3      -8.062  16.285  67.095  1.00  0.00    -0.219 C  
HETATM   15  C   UNL     3      -7.916  14.974  67.841  1.00  0.00    -0.138 C  
HETATM   16  O   UNL     3      -7.227  14.112  67.243  1.00  0.00    -0.148 OA 
HETATM   17  O   UNL     3      -8.501  14.964  68.958  1.00  0.00    -0.182 OA 
ENDBRANCH  13  14
ENDBRANCH   5  13
TORSDOF 4
ENDMDL
MODEL      191
REMARK 921   NORMALIZED FREE ENERGY PREDICTED BY IDOCK:   -3.43 KCAL/MOL
REMARK 922        TOTAL FREE ENERGY PREDICTED BY IDOCK:   -4.60 KCAL/MOL
REMARK 923 INTER-LIGAND FREE ENERGY PREDICTED BY IDOCK:   -4.30 KCAL/MOL
REMARK 924 INTRA-LIGAND FREE ENERGY PREDICTED BY IDOCK:   -0.30 KCAL/MOL
REMARK 927      BINDING AFFINITY PREDICTED BY RF-SCORE:    0.00 PKD
ROOT
HETATM    1 CA   UNL     1     -10.974  10.477  64.607  1.00  0.00    -0.318 Ca 
HETATM    2  C   UNL     2     -10.397   7.649  67.606  1.00  0.00    -0.303 C  
HETATM    3  C   UNL     2     -10.201   9.136  67.566  1.00  0.00    -0.245 C  
HETATM    4  C   UNL     3     -11.658  14.156  65.197  1.00  0.00    -0.344 C  
HETATM    5  C   UNL     3     -10.408  13.464  65.637  1.00  0.00    -0.290 C  
HETATM    6  O   UNL     3     -10.135  12.364  65.116  1.00  0.00    -0.277 OA 
HETATM    7  O   UNL     2     -10.662   9.762  66.596  1.00  0.00    -0.147 OA 
ENDROOT
BRANCH   3   8
HETATM    8  C   UNL     2      -9.441   9.806  68.678  1.00  0.00    -0.151 C  
BRANCH   8   9
HETATM    9  C   UNL     2      -9.877   9.277  70.032  1.00  0.00    -0.232 C  
HETATM   10  O   UNL     2      -7.872   9.544  71.186  1.00  0.00    -0.326 OA 
HETATM   11  O   UNL     2      -8.488   7.451  70.457  1.00  0.00    -0.133 OA 
HETATM   12  C   UNL     2      -8.612   8.691  70.636  1.00  0.00    -0.163 C  
ENDBRANCH   8   9
ENDBRANCH   3   8
BRANCH   5  13
HETATM   13  C   UNL     3      -9.599  14.061  66.764  1.00  0.00    -0.293 C  
BRANCH  13  14
HETATM   14  C   UNL     3      -9.649  15.569  66.671  1.00  0.00    -0.273 C  
HETATM   15  C   UNL     3     -10.247  16.072  67.970  1.00  0.00    -0.245 C  
HETATM   16  O   UNL     3      -9.410  16.545  68.776  1.00  0.00    -0.230 OA 
HETATM   17  O   UNL     3     -11.501  15.947  68.027  1.00  0.00    -0.328 OA 
ENDBRANCH  13  14
ENDBRANCH   5  13
TORSDOF 4
ENDMDL
MODEL      192
REMARK 921   NORMALIZED FREE ENERGY PREDICTED BY IDOCK:   -3.40 KCAL/MOL
REMARK 922        TOTAL FREE ENERGY PREDICTED BY IDOCK:   -4.57 KCAL/MOL
REMARK 923 INTER-LIGAND FREE ENERGY PREDICTED BY IDOCK:   -4.21 KCAL/MOL
REMARK 924 INTRA-LIGAND FREE ENERGY PREDICTED BY IDOCK:   -0.36 KCAL/MOL
REMARK 927      BINDING AFFINITY PREDICTED BY RF-SCORE:    0.00 PKD
ROOT
HETATM    1 CA   UNL     1      -7.598   8.977  69.337  1.00  0.00    -0.064 Ca 
HETATM    2  C   UNL     2      -9.392   5.381  70.417  1.00  0.00    -0.203 C  
HETATM    3  C   UNL     2      -9.647   6.342  69.293  1.00  0.00    -0.133 C  
HETATM    4  C   UNL     3      -7.564  10.418  65.832  1.00  0.00    -0.146 C  
HETATM    5  C   UNL     3      -8.814  10.164  66.613  1.00  0.00    -0.132 C  
HETATM    6  O   UNL     3      -8.711  10.010  67.846  1.00  0.00    -0.124 OA 
HETATM    7  O   UNL     2      -8.809   7.235  69.085  1.00  0.00    -0.136 OA 
ENDROOT
BRANCH   3   8
HETATM    8  C   UNL     2     -10.906   6.203  68.481  1.00  0.00    -0.389 C  
BRANCH   8   9
HETATM    9  C   UNL     2     -10.702   6.709  67.065  1.00  0.00    -0.437 C  
HETATM   10  O   UNL     2     -10.871   4.683  65.930  1.00  0.00    -0.274 OA 
HETATM   11  O   UNL     2      -8.797   5.612  66.286  1.00  0.00    -0.128 OA 
HETATM   12  C   UNL     2     -10.053   5.546  66.336  1.00  0.00    -0.182 C  
ENDBRANCH   8   9
ENDBRANCH   3   8
BRANCH   5  13
HETATM   13  C   UNL     3     -10.118   9.992  65.870  1.00  0.00    -0.319 C  
BRANCH  13  14
HETATM   14  C   UNL     3     -10.419  11.251  65.090  1.00  0.00    -0.351 C  
HETATM   15  C   UNL     3     -10.929  12.274  66.085  1.00  0.00    -0.293 C  
HETATM   16  O   UNL     3     -10.087  13.149  66.406  1.00  0.00    -0.267 OA 
HETATM   17  O   UNL     3     -12.131  12.093  66.422  1.00  0.00    -0.630 OA 
ENDBRANCH  13  14
ENDBRANCH   5  13
TORSDOF 4
ENDMDL
MODEL      193
REMARK 921   NORMALIZED FREE ENERGY PREDICTED BY IDOCK:   -3.39 KCAL/MOL
REMARK 922        TOTAL FREE ENERGY PREDICTED BY IDOCK:   -4.55 KCAL/MOL
REMARK 923 INTER-LIGAND FREE ENERGY PREDICTED BY IDOCK:   -4.01 KCAL/MOL
REMARK 924 INTRA-LIGAND FREE ENERGY PREDICTED BY IDOCK:   -0.54 KCAL/MOL
REMARK 927      BINDING AFFINITY PREDICTED BY RF-SCORE:    0.00 PKD
ROOT
HETATM    1 CA   UNL     1      -6.094  10.968  68.948  1.00  0.00    -0.042 Ca 
HETATM    2  C   UNL     2      -6.091  14.992  67.886  1.00  0.00    -0.170 C  
HETATM    3  C   UNL     2      -7.198  14.032  68.210  1.00  0.00    -0.114 C  
HETATM    4  C   UNL     3      -8.824   9.252  70.938  1.00  0.00    -0.252 C  
HETATM    5  C   UNL     3      -9.047   9.895  69.606  1.00  0.00    -0.227 C  
HETATM    6  O   UNL     3      -8.050  10.130  68.896  1.00  0.00    -0.101 OA 
HETATM    7  O   UNL     2      -6.894  12.935  68.709  1.00  0.00    -0.090 OA 
ENDROOT
BRANCH   3   8
HETATM    8  C   UNL     2      -8.619  14.420  67.903  1.00  0.00    -0.165 C  
BRANCH   8   9
HETATM    9  C   UNL     2      -8.683  15.363  66.716  1.00  0.00    -0.304 C  
HETATM   10  O   UNL     2     -10.975  15.775  66.706  1.00  0.00    -0.293 OA 
HETATM   11  O   UNL     2     -10.081  14.314  65.169  1.00  0.00    -0.373 OA 
HETATM   12  C   UNL     2     -10.063  15.135  66.124  1.00  0.00    -0.295 C  
ENDBRANCH   8   9
ENDBRANCH   3   8
BRANCH   5  13
HETATM   13  C   UNL     3     -10.443  10.332  69.230  1.00  0.00    -0.250 C  
BRANCH  13  14
HETATM   14  C   UNL     3     -10.379  11.684  68.556  1.00  0.00    -0.224 C  
HETATM   15  C   UNL     3     -10.981  11.517  67.175  1.00  0.00    -0.286 C  
HETATM   16  O   UNL     3     -12.151  11.959  67.064  1.00  0.00    -0.600 OA 
HETATM   17  O   UNL     3     -10.200  10.972  66.348  1.00  0.00    -0.221 OA 
ENDBRANCH  13  14
ENDBRANCH   5  13
TORSDOF 4
ENDMDL
MODEL      194
REMARK 921   NORMALIZED FREE ENERGY PREDICTED BY IDOCK:   -3.38 KCAL/MOL
REMARK 922        TOTAL FREE ENERGY PREDICTED BY IDOCK:   -4.54 KCAL/MOL
REMARK 923 INTER-LIGAND FREE ENERGY PREDICTED BY IDOCK:   -4.09 KCAL/MOL
REMARK 924 INTRA-LIGAND FREE ENERGY PREDICTED BY IDOCK:   -0.45 KCAL/MOL
REMARK 927      BINDING AFFINITY PREDICTED BY RF-SCORE:    0.00 PKD
ROOT
HETATM    1 CA   UNL     1      -6.355   8.462  66.150  1.00  0.00    -0.043 Ca 
HETATM    2  C   UNL     2      -7.351   6.066  69.404  1.00  0.00    -0.079 C  
HETATM    3  C   UNL     2      -8.148   7.031  68.577  1.00  0.00    -0.124 C  
HETATM    4  C   UNL     3      -8.806   9.709  63.544  1.00  0.00    -0.255 C  
HETATM    5  C   UNL     3      -8.895  10.050  64.997  1.00  0.00    -0.186 C  
HETATM    6  O   UNL     3      -7.882   9.875  65.702  1.00  0.00    -0.117 OA 
HETATM    7  O   UNL     2      -7.646   7.450  67.521  1.00  0.00    -0.101 OA 
ENDROOT
BRANCH   3   8
HETATM    8  C   UNL     2      -9.503   7.468  69.062  1.00  0.00    -0.145 C  
BRANCH   8   9
HETATM    9  C   UNL     2      -9.493   7.718  70.559  1.00  0.00    -0.163 C  
HETATM   10  O   UNL     2     -10.561   9.787  70.587  1.00  0.00    -0.292 OA 
HETATM   11  O   UNL     2      -8.277   9.688  70.848  1.00  0.00    -0.290 OA 
HETATM   12  C   UNL     2      -9.439   9.229  70.692  1.00  0.00    -0.272 C  
ENDBRANCH   8   9
ENDBRANCH   3   8
BRANCH   5  13
HETATM   13  C   UNL     3     -10.227  10.478  65.568  1.00  0.00    -0.325 C  
BRANCH  13  14
HETATM   14  C   UNL     3     -10.359  11.980  65.457  1.00  0.00    -0.298 C  
HETATM   15  C   UNL     3     -11.589  12.254  64.616  1.00  0.00    -0.344 C  
HETATM   16  O   UNL     3     -12.597  12.611  65.273  1.00  0.00    -0.630 OA 
HETATM   17  O   UNL     3     -11.399  12.093  63.379  1.00  0.00    -0.424 OA 
ENDBRANCH  13  14
ENDBRANCH   5  13
TORSDOF 4
ENDMDL
MODEL      195
REMARK 921   NORMALIZED FREE ENERGY PREDICTED BY IDOCK:   -3.38 KCAL/MOL
REMARK 922        TOTAL FREE ENERGY PREDICTED BY IDOCK:   -4.53 KCAL/MOL
REMARK 923 INTER-LIGAND FREE ENERGY PREDICTED BY IDOCK:   -4.10 KCAL/MOL
REMARK 924 INTRA-LIGAND FREE ENERGY PREDICTED BY IDOCK:   -0.43 KCAL/MOL
REMARK 927      BINDING AFFINITY PREDICTED BY RF-SCORE:    0.00 PKD
ROOT
HETATM    1 CA   UNL     1     -13.383   9.982  69.484  1.00  0.00    -0.568 Ca 
HETATM    2  C   UNL     2     -11.942   7.862  72.763  1.00  0.00    -0.223 C  
HETATM    3  C   UNL     2     -11.269   8.745  71.753  1.00  0.00    -0.340 C  
HETATM    4  C   UNL     3     -11.748  13.064  68.005  1.00  0.00    -0.397 C  
HETATM    5  C   UNL     3     -11.088  11.724  68.069  1.00  0.00    -0.242 C  
HETATM    6  O   UNL     3     -11.809  10.725  68.259  1.00  0.00    -0.504 OA 
HETATM    7  O   UNL     2     -11.985   9.428  71.003  1.00  0.00    -0.293 OA 
ENDROOT
BRANCH   3   8
HETATM    8  C   UNL     2      -9.766   8.754  71.673  1.00  0.00    -0.366 C  
BRANCH   8   9
HETATM    9  C   UNL     2      -9.231   7.383  71.302  1.00  0.00    -0.153 C  
HETATM   10  O   UNL     2      -7.715   8.022  69.654  1.00  0.00    -0.097 OA 
HETATM   11  O   UNL     2      -9.738   7.113  69.041  1.00  0.00    -0.149 OA 
HETATM   12  C   UNL     2      -8.848   7.508  69.838  1.00  0.00    -0.141 C  
ENDBRANCH   8   9
ENDBRANCH   3   8
BRANCH   5  13
HETATM   13  C   UNL     3      -9.580  11.648  68.015  1.00  0.00    -0.184 C  
BRANCH  13  14
HETATM   14  C   UNL     3      -8.997  12.969  68.461  1.00  0.00    -0.048 C  
HETATM   15  C   UNL     3      -8.001  13.393  67.399  1.00  0.00    -0.163 C  
HETATM   16  O   UNL     3      -8.418  14.290  66.627  1.00  0.00    -0.100 OA 
HETATM   17  O   UNL     3      -6.899  12.783  67.472  1.00  0.00    -0.134 OA 
ENDBRANCH  13  14
ENDBRANCH   5  13
TORSDOF 4
ENDMDL
MODEL      196
REMARK 921   NORMALIZED FREE ENERGY PREDICTED BY IDOCK:   -3.37 KCAL/MOL
REMARK 922        TOTAL FREE ENERGY PREDICTED BY IDOCK:   -4.52 KCAL/MOL
REMARK 923 INTER-LIGAND FREE ENERGY PREDICTED BY IDOCK:   -3.88 KCAL/MOL
REMARK 924 INTRA-LIGAND FREE ENERGY PREDICTED BY IDOCK:   -0.64 KCAL/MOL
REMARK 927      BINDING AFFINITY PREDICTED BY RF-SCORE:    0.00 PKD
ROOT
HETATM    1 CA   UNL     1      -9.775   8.573  74.114  1.00  0.00    -0.215 Ca 
HETATM    2  C   UNL     2      -6.128   8.747  72.118  1.00  0.00    -0.075 C  
HETATM    3  C   UNL     2      -7.503   8.339  71.679  1.00  0.00    -0.093 C  
HETATM    4  C   UNL     3     -13.172   8.791  72.448  1.00  0.00    -0.441 C  
HETATM    5  C   UNL     3     -12.178   7.710  72.167  1.00  0.00    -0.264 C  
HETATM    6  O   UNL     3     -11.254   7.538  72.987  1.00  0.00    -0.361 OA 
HETATM    7  O   UNL     2      -8.458   8.594  72.432  1.00  0.00    -0.342 OA 
ENDROOT
BRANCH   3   8
HETATM    8  C   UNL     2      -7.671   7.623  70.366  1.00  0.00    -0.090 C  
BRANCH   8   9
HETATM    9  C   UNL     2      -6.988   8.378  69.241  1.00  0.00    -0.054 C  
HETATM   10  O   UNL     2      -8.856   9.418  68.317  1.00  0.00    -0.128 OA 
HETATM   11  O   UNL     2      -7.959   7.573  67.278  1.00  0.00    -0.114 OA 
HETATM   12  C   UNL     2      -8.042   8.474  68.152  1.00  0.00    -0.119 C  
ENDBRANCH   8   9
ENDBRANCH   3   8
BRANCH   5  13
HETATM   13  C   UNL     3     -12.266   6.957  70.861  1.00  0.00    -0.404 C  
BRANCH  13  14
HETATM   14  C   UNL     3     -11.073   7.307  70.000  1.00  0.00    -0.262 C  
HETATM   15  C   UNL     3     -10.865   6.150  69.044  1.00  0.00    -0.350 C  
HETATM   16  O   UNL     3     -11.271   6.365  67.875  1.00  0.00    -0.319 OA 
HETATM   17  O   UNL     3     -10.299   5.155  69.574  1.00  0.00    -0.251 OA 
ENDBRANCH  13  14
ENDBRANCH   5  13
TORSDOF 4
ENDMDL
MODEL      197
REMARK 921   NORMALIZED FREE ENERGY PREDICTED BY IDOCK:   -3.36 KCAL/MOL
REMARK 922        TOTAL FREE ENERGY PREDICTED BY IDOCK:   -4.51 KCAL/MOL
REMARK 923 INTER-LIGAND FREE ENERGY PREDICTED BY IDOCK:   -3.94 KCAL/MOL
REMARK 924 INTRA-LIGAND FREE ENERGY PREDICTED BY IDOCK:   -0.57 KCAL/MOL
REMARK 927      BINDING AFFINITY PREDICTED BY RF-SCORE:    0.00 PKD
ROOT
HETATM    1 CA   UNL     1     -11.069   9.856  69.320  1.00  0.00    -0.201 Ca 
HETATM    2  C   UNL     2      -7.754   9.269  66.874  1.00  0.00    -0.094 C  
HETATM    3  C   UNL     2      -8.610  10.471  67.147  1.00  0.00    -0.127 C  
HETATM    4  C   UNL     3     -12.130  13.192  70.770  1.00  0.00    -0.290 C  
HETATM    5  C   UNL     3     -12.056  12.911  69.303  1.00  0.00    -0.182 C  
HETATM    6  O   UNL     3     -12.024  11.719  68.938  1.00  0.00    -0.311 OA 
HETATM    7  O   UNL     2      -9.409  10.416  68.096  1.00  0.00    -0.141 OA 
ENDROOT
BRANCH   3   8
HETATM    8  C   UNL     2      -8.485  11.677  66.257  1.00  0.00    -0.066 C  
BRANCH   8   9
HETATM    9  C   UNL     2      -9.843  12.125  65.750  1.00  0.00    -0.264 C  
HETATM   10  O   UNL     2     -10.305  10.340  64.328  1.00  0.00    -0.198 OA 
HETATM   11  O   UNL     2      -9.601  12.342  63.440  1.00  0.00    -0.281 OA 
HETATM   12  C   UNL     2      -9.939  11.542  64.351  1.00  0.00    -0.269 C  
ENDBRANCH   8   9
ENDBRANCH   3   8
BRANCH   5  13
HETATM   13  C   UNL     3     -11.910  14.068  68.343  1.00  0.00    -0.397 C  
BRANCH  13  14
HETATM   14  C   UNL     3     -10.640  14.824  68.661  1.00  0.00    -0.255 C  
HETATM   15  C   UNL     3     -11.047  16.242  69.008  1.00  0.00    -0.331 C  
HETATM   16  O   UNL     3     -11.037  16.498  70.236  1.00  0.00    -0.348 OA 
HETATM   17  O   UNL     3     -11.317  16.948  67.998  1.00  0.00    -0.190 OA 
ENDBRANCH  13  14
ENDBRANCH   5  13
TORSDOF 4
ENDMDL
MODEL      198
REMARK 921   NORMALIZED FREE ENERGY PREDICTED BY IDOCK:   -3.35 KCAL/MOL
REMARK 922        TOTAL FREE ENERGY PREDICTED BY IDOCK:   -4.50 KCAL/MOL
REMARK 923 INTER-LIGAND FREE ENERGY PREDICTED BY IDOCK:   -4.02 KCAL/MOL
REMARK 924 INTRA-LIGAND FREE ENERGY PREDICTED BY IDOCK:   -0.48 KCAL/MOL
REMARK 927      BINDING AFFINITY PREDICTED BY RF-SCORE:    0.00 PKD
ROOT
HETATM    1 CA   UNL     1     -11.796  10.986  71.457  1.00  0.00    -0.294 Ca 
HETATM    2  C   UNL     2      -8.918  11.180  68.458  1.00  0.00    -0.168 C  
HETATM    3  C   UNL     2      -9.645  10.030  69.089  1.00  0.00    -0.210 C  
HETATM    4  C   UNL     3     -14.314   8.185  71.869  1.00  0.00    -0.566 C  
HETATM    5  C   UNL     3     -12.834   7.988  71.943  1.00  0.00    -0.320 C  
HETATM    6  O   UNL     3     -12.119   8.992  72.127  1.00  0.00    -0.363 OA 
HETATM    7  O   UNL     2     -10.618  10.283  69.819  1.00  0.00    -0.242 OA 
ENDROOT
BRANCH   3   8
HETATM    8  C   UNL     2      -9.161   8.628  68.836  1.00  0.00    -0.145 C  
BRANCH   8   9
HETATM    9  C   UNL     2      -7.693   8.619  68.451  1.00  0.00    -0.100 C  
HETATM   10  O   UNL     2      -7.829   7.293  66.541  1.00  0.00    -0.104 OA 
HETATM   11  O   UNL     2      -7.055   6.375  68.503  1.00  0.00    -0.077 OA 
HETATM   12  C   UNL     2      -7.492   7.285  67.752  1.00  0.00    -0.102 C  
ENDBRANCH   8   9
ENDBRANCH   3   8
BRANCH   5  13
HETATM   13  C   UNL     3     -12.266   6.613  71.681  1.00  0.00    -0.401 C  
BRANCH  13  14
HETATM   14  C   UNL     3     -10.802   6.737  71.324  1.00  0.00    -0.266 C  
HETATM   15  C   UNL     3     -10.371   5.397  70.759  1.00  0.00    -0.251 C  
HETATM   16  O   UNL     3     -10.266   5.373  69.508  1.00  0.00    -0.219 OA 
HETATM   17  O   UNL     3     -10.171   4.520  71.642  1.00  0.00    -0.193 OA 
ENDBRANCH  13  14
ENDBRANCH   5  13
TORSDOF 4
ENDMDL
MODEL      199
REMARK 921   NORMALIZED FREE ENERGY PREDICTED BY IDOCK:   -3.32 KCAL/MOL
REMARK 922        TOTAL FREE ENERGY PREDICTED BY IDOCK:   -4.47 KCAL/MOL
REMARK 923 INTER-LIGAND FREE ENERGY PREDICTED BY IDOCK:   -3.96 KCAL/MOL
REMARK 924 INTRA-LIGAND FREE ENERGY PREDICTED BY IDOCK:   -0.50 KCAL/MOL
REMARK 927      BINDING AFFINITY PREDICTED BY RF-SCORE:    0.00 PKD
ROOT
HETATM    1 CA   UNL     1      -9.641  14.453  64.422  1.00  0.00    -0.432 Ca 
HETATM    2  C   UNL     2      -9.160  10.821  66.397  1.00  0.00    -0.188 C  
HETATM    3  C   UNL     2      -9.069  12.245  66.861  1.00  0.00    -0.208 C  
HETATM    4  C   UNL     3     -10.645  17.708  66.081  1.00  0.00    -0.220 C  
HETATM    5  C   UNL     3      -9.398  16.955  66.418  1.00  0.00    -0.276 C  
HETATM    6  O   UNL     3      -8.995  16.098  65.607  1.00  0.00    -0.370 OA 
HETATM    7  O   UNL     2      -9.476  13.137  66.097  1.00  0.00    -0.237 OA 
ENDROOT
BRANCH   3   8
HETATM    8  C   UNL     2      -8.474  12.540  68.211  1.00  0.00    -0.165 C  
BRANCH   8   9
HETATM    9  C   UNL     2      -7.675  13.830  68.187  1.00  0.00    -0.140 C  
HETATM   10  O   UNL     2      -5.535  12.926  68.027  1.00  0.00    -0.081 OA 
HETATM   11  O   UNL     2      -6.278  13.727  70.052  1.00  0.00    -0.138 OA 
HETATM   12  C   UNL     2      -6.346  13.466  68.823  1.00  0.00    -0.094 C  
ENDBRANCH   8   9
ENDBRANCH   3   8
BRANCH   5  13
HETATM   13  C   UNL     3      -8.749  17.179  67.764  1.00  0.00    -0.220 C  
BRANCH  13  14
HETATM   14  C   UNL     3      -7.474  17.968  67.579  1.00  0.00    -0.217 C  
HETATM   15  C   UNL     3      -7.707  19.333  68.197  1.00  0.00    -0.297 C  
HETATM   16  O   UNL     3      -7.173  19.489  69.323  1.00  0.00    -0.356 OA 
HETATM   17  O   UNL     3      -8.391  20.104  67.471  1.00  0.00    -0.323 OA 
ENDBRANCH  13  14
ENDBRANCH   5  13
TORSDOF 4
ENDMDL
MODEL      200
REMARK 921   NORMALIZED FREE ENERGY PREDICTED BY IDOCK:   -3.30 KCAL/MOL
REMARK 922        TOTAL FREE ENERGY PREDICTED BY IDOCK:   -4.43 KCAL/MOL
REMARK 923 INTER-LIGAND FREE ENERGY PREDICTED BY IDOCK:   -3.79 KCAL/MOL
REMARK 924 INTRA-LIGAND FREE ENERGY PREDICTED BY IDOCK:   -0.64 KCAL/MOL
REMARK 927      BINDING AFFINITY PREDICTED BY RF-SCORE:    0.00 PKD
ROOT
HETATM    1 CA   UNL     1     -10.998   6.048  69.269  1.00  0.00    -0.177 Ca 
HETATM    2  C   UNL     2      -7.915   6.730  66.558  1.00  0.00    -0.105 C  
HETATM    3  C   UNL     2      -8.569   7.604  67.587  1.00  0.00    -0.116 C  
HETATM    4  C   UNL     3     -11.488   7.938  72.517  1.00  0.00    -0.455 C  
HETATM    5  C   UNL     3     -11.519   8.583  71.168  1.00  0.00    -0.276 C  
HETATM    6  O   UNL     3     -11.680   7.850  70.173  1.00  0.00    -0.037 OA 
HETATM    7  O   UNL     2      -9.327   7.069  68.413  1.00  0.00    -0.132 OA 
ENDROOT
BRANCH   3   8
HETATM    8  C   UNL     2      -8.304   9.085  67.566  1.00  0.00    -0.116 C  
BRANCH   8   9
HETATM    9  C   UNL     2      -8.117   9.587  66.146  1.00  0.00    -0.111 C  
HETATM   10  O   UNL     2      -8.941  11.748  66.416  1.00  0.00    -0.206 OA 
HETATM   11  O   UNL     2     -10.255  10.153  65.404  1.00  0.00    -0.298 OA 
HETATM   12  C   UNL     2      -9.221  10.612  65.957  1.00  0.00    -0.182 C  
ENDBRANCH   8   9
ENDBRANCH   3   8
BRANCH   5  13
HETATM   13  C   UNL     3     -11.243  10.064  71.060  1.00  0.00    -0.387 C  
BRANCH  13  14
HETATM   14  C   UNL     3     -10.531  10.346  69.756  1.00  0.00    -0.284 C  
HETATM   15  C   UNL     3     -11.382  11.344  68.996  1.00  0.00    -0.280 C  
HETATM   16  O   UNL     3     -10.951  12.522  69.029  1.00  0.00    -0.233 OA 
HETATM   17  O   UNL     3     -12.385  10.825  68.436  1.00  0.00    -0.396 OA 
ENDBRANCH  13  14
ENDBRANCH   5  13
TORSDOF 4
ENDMDL
MODEL      201
REMARK 921   NORMALIZED FREE ENERGY PREDICTED BY IDOCK:   -3.27 KCAL/MOL
REMARK 922        TOTAL FREE ENERGY PREDICTED BY IDOCK:   -4.40 KCAL/MOL
REMARK 923 INTER-LIGAND FREE ENERGY PREDICTED BY IDOCK:   -4.06 KCAL/MOL
REMARK 924 INTRA-LIGAND FREE ENERGY PREDICTED BY IDOCK:   -0.34 KCAL/MOL
REMARK 927      BINDING AFFINITY PREDICTED BY RF-SCORE:    0.00 PKD
ROOT
HETATM    1 CA   UNL     1     -11.836   9.435  67.213  1.00  0.00    -0.335 Ca 
HETATM    2  C   UNL     2     -12.860  12.752  64.918  1.00  0.00    -0.357 C  
HETATM    3  C   UNL     2     -11.663  12.439  65.766  1.00  0.00    -0.414 C  
HETATM    4  C   UNL     3      -8.295   8.426  68.107  1.00  0.00    -0.128 C  
HETATM    5  C   UNL     3      -8.916   9.723  68.516  1.00  0.00    -0.124 C  
HETATM    6  O   UNL     3     -10.159   9.818  68.466  1.00  0.00    -0.156 OA 
HETATM    7  O   UNL     2     -11.520  11.273  66.170  1.00  0.00    -0.217 OA 
ENDROOT
BRANCH   3   8
HETATM    8  C   UNL     2     -10.701  13.543  66.111  1.00  0.00    -0.289 C  
BRANCH   8   9
HETATM    9  C   UNL     2     -10.357  14.371  64.887  1.00  0.00    -0.419 C  
HETATM   10  O   UNL     2      -8.995  15.965  65.900  1.00  0.00    -0.323 OA 
HETATM   11  O   UNL     2     -11.159  16.514  65.346  1.00  0.00    -0.172 OA 
HETATM   12  C   UNL     2     -10.143  15.775  65.426  1.00  0.00    -0.302 C  
ENDBRANCH   8   9
ENDBRANCH   3   8
BRANCH   5  13
HETATM   13  C   UNL     3      -8.018  10.889  68.859  1.00  0.00    -0.146 C  
BRANCH  13  14
HETATM   14  C   UNL     3      -6.615  10.383  69.107  1.00  0.00    -0.054 C  
HETATM   15  C   UNL     3      -6.235  10.809  70.511  1.00  0.00    -0.086 C  
HETATM   16  O   UNL     3      -6.291   9.889  71.364  1.00  0.00    -0.296 OA 
HETATM   17  O   UNL     3      -5.904  12.023  70.596  1.00  0.00    -0.240 OA 
ENDBRANCH  13  14
ENDBRANCH   5  13
TORSDOF 4
ENDMDL
MODEL      202
REMARK 921   NORMALIZED FREE ENERGY PREDICTED BY IDOCK:   -3.26 KCAL/MOL
REMARK 922        TOTAL FREE ENERGY PREDICTED BY IDOCK:   -4.38 KCAL/MOL
REMARK 923 INTER-LIGAND FREE ENERGY PREDICTED BY IDOCK:   -3.77 KCAL/MOL
REMARK 924 INTRA-LIGAND FREE ENERGY PREDICTED BY IDOCK:   -0.62 KCAL/MOL
REMARK 927      BINDING AFFINITY PREDICTED BY RF-SCORE:    0.00 PKD
ROOT
HETATM    1 CA   UNL     1      -8.624   4.029  68.284  1.00  0.00    -0.086 Ca 
HETATM    2  C   UNL     2      -6.621   6.675  65.773  1.00  0.00    -0.047 C  
HETATM    3  C   UNL     2      -7.681   6.876  66.816  1.00  0.00    -0.102 C  
HETATM    4  C   UNL     3     -10.195   4.959  71.605  1.00  0.00    -0.267 C  
HETATM    5  C   UNL     3     -10.615   5.545  70.295  1.00  0.00    -0.287 C  
HETATM    6  O   UNL     3     -10.282   4.948  69.253  1.00  0.00    -0.207 OA 
HETATM    7  O   UNL     2      -7.945   5.926  67.572  1.00  0.00    -0.101 OA 
ENDROOT
BRANCH   3   8
HETATM    8  C   UNL     2      -8.393   8.199  66.892  1.00  0.00    -0.115 C  
BRANCH   8   9
HETATM    9  C   UNL     2      -9.882   8.033  66.655  1.00  0.00    -0.322 C  
HETATM   10  O   UNL     2     -10.279   9.995  65.464  1.00  0.00    -0.280 OA 
HETATM   11  O   UNL     2     -10.880   9.875  67.681  1.00  0.00    -0.274 OA 
HETATM   12  C   UNL     2     -10.417   9.453  66.590  1.00  0.00    -0.168 C  
ENDBRANCH   8   9
ENDBRANCH   3   8
BRANCH   5  13
HETATM   13  C   UNL     3     -11.318   6.883  70.284  1.00  0.00    -0.373 C  
BRANCH  13  14
HETATM   14  C   UNL     3     -10.292   7.987  70.395  1.00  0.00    -0.206 C  
HETATM   15  C   UNL     3     -10.680   8.830  71.595  1.00  0.00    -0.327 C  
HETATM   16  O   UNL     3      -9.985   8.622  72.619  1.00  0.00    -0.248 OA 
HETATM   17  O   UNL     3     -11.634   9.622  71.365  1.00  0.00    -0.358 OA 
ENDBRANCH  13  14
ENDBRANCH   5  13
TORSDOF 4
ENDMDL
MODEL      203
REMARK 921   NORMALIZED FREE ENERGY PREDICTED BY IDOCK:   -3.25 KCAL/MOL
REMARK 922        TOTAL FREE ENERGY PREDICTED BY IDOCK:   -4.38 KCAL/MOL
REMARK 923 INTER-LIGAND FREE ENERGY PREDICTED BY IDOCK:   -3.90 KCAL/MOL
REMARK 924 INTRA-LIGAND FREE ENERGY PREDICTED BY IDOCK:   -0.48 KCAL/MOL
REMARK 927      BINDING AFFINITY PREDICTED BY RF-SCORE:    0.00 PKD
ROOT
HETATM    1 CA   UNL     1     -10.747   4.093  71.380  1.00  0.00    -0.148 Ca 
HETATM    2  C   UNL     2     -12.866   7.629  71.954  1.00  0.00    -0.308 C  
HETATM    3  C   UNL     2     -11.812   7.230  70.963  1.00  0.00    -0.318 C  
HETATM    4  C   UNL     3      -9.207   2.997  68.095  1.00  0.00    -0.248 C  
HETATM    5  C   UNL     3      -8.816   4.245  68.820  1.00  0.00    -0.101 C  
HETATM    6  O   UNL     3      -9.127   4.345  70.023  1.00  0.00    -0.089 OA 
HETATM    7  O   UNL     2     -11.507   6.029  70.886  1.00  0.00    -0.284 OA 
ENDROOT
BRANCH   3   8
HETATM    8  C   UNL     2     -11.156   8.293  70.124  1.00  0.00    -0.189 C  
BRANCH   8   9
HETATM    9  C   UNL     2     -10.823   9.517  70.956  1.00  0.00    -0.423 C  
HETATM   10  O   UNL     2     -12.756  10.755  70.566  1.00  0.00    -0.336 OA 
HETATM   11  O   UNL     2     -10.819  11.302  69.452  1.00  0.00    -0.233 OA 
HETATM   12  C   UNL     2     -11.542  10.658  70.257  1.00  0.00    -0.336 C  
ENDBRANCH   8   9
ENDBRANCH   3   8
BRANCH   5  13
HETATM   13  C   UNL     3      -8.170   5.369  68.044  1.00  0.00    -0.099 C  
BRANCH  13  14
HETATM   14  C   UNL     3      -9.005   6.620  68.186  1.00  0.00    -0.121 C  
HETATM   15  C   UNL     3      -9.817   6.755  66.913  1.00  0.00    -0.175 C  
HETATM   16  O   UNL     3     -11.020   6.415  67.027  1.00  0.00    -0.365 OA 
HETATM   17  O   UNL     3      -9.153   7.205  65.939  1.00  0.00    -0.122 OA 
ENDBRANCH  13  14
ENDBRANCH   5  13
TORSDOF 4
ENDMDL
MODEL      204
REMARK 921   NORMALIZED FREE ENERGY PREDICTED BY IDOCK:   -3.24 KCAL/MOL
REMARK 922        TOTAL FREE ENERGY PREDICTED BY IDOCK:   -4.37 KCAL/MOL
REMARK 923 INTER-LIGAND FREE ENERGY PREDICTED BY IDOCK:   -3.97 KCAL/MOL
REMARK 924 INTRA-LIGAND FREE ENERGY PREDICTED BY IDOCK:   -0.40 KCAL/MOL
REMARK 927      BINDING AFFINITY PREDICTED BY RF-SCORE:    0.00 PKD
ROOT
HETATM    1 CA   UNL     1     -12.911  11.408  68.882  1.00  0.00    -0.242 Ca 
HETATM    2  C   UNL     2     -13.164   9.068  72.315  1.00  0.00    -0.519 C  
HETATM    3  C   UNL     2     -12.175   9.107  71.188  1.00  0.00    -0.285 C  
HETATM    4  C   UNL     3      -9.707  12.167  67.007  1.00  0.00    -0.208 C  
HETATM    5  C   UNL     3     -10.254  10.787  67.191  1.00  0.00    -0.213 C  
HETATM    6  O   UNL     3     -11.451  10.672  67.520  1.00  0.00    -0.460 OA 
HETATM    7  O   UNL     2     -12.227  10.063  70.396  1.00  0.00    -0.246 OA 
ENDROOT
BRANCH   3   8
HETATM    8  C   UNL     2     -11.180   7.987  71.046  1.00  0.00    -0.287 C  
BRANCH   8   9
HETATM    9  C   UNL     2     -10.612   7.587  72.396  1.00  0.00    -0.299 C  
HETATM   10  O   UNL     2      -9.547   5.614  71.769  1.00  0.00    -0.155 OA 
HETATM   11  O   UNL     2     -11.561   5.510  72.874  1.00  0.00    -0.297 OA 
HETATM   12  C   UNL     2     -10.562   6.070  72.352  1.00  0.00    -0.217 C  
ENDBRANCH   8   9
ENDBRANCH   3   8
BRANCH   5  13
HETATM   13  C   UNL     3      -9.315   9.608  67.086  1.00  0.00    -0.168 C  
BRANCH  13  14
HETATM   14  C   UNL     3      -7.933  10.028  67.531  1.00  0.00    -0.106 C  
HETATM   15  C   UNL     3      -6.968   9.591  66.447  1.00  0.00    -0.088 C  
HETATM   16  O   UNL     3      -6.576  10.519  65.698  1.00  0.00    -0.124 OA 
HETATM   17  O   UNL     3      -6.699   8.359  66.480  1.00  0.00    -0.058 OA 
ENDBRANCH  13  14
ENDBRANCH   5  13
TORSDOF 4
ENDMDL
MODEL      205
REMARK 921   NORMALIZED FREE ENERGY PREDICTED BY IDOCK:   -3.22 KCAL/MOL
REMARK 922        TOTAL FREE ENERGY PREDICTED BY IDOCK:   -4.34 KCAL/MOL
REMARK 923 INTER-LIGAND FREE ENERGY PREDICTED BY IDOCK:   -3.72 KCAL/MOL
REMARK 924 INTRA-LIGAND FREE ENERGY PREDICTED BY IDOCK:   -0.62 KCAL/MOL
REMARK 927      BINDING AFFINITY PREDICTED BY RF-SCORE:    0.00 PKD
ROOT
HETATM    1 CA   UNL     1     -11.836  12.464  70.181  1.00  0.00    -0.244 Ca 
HETATM    2  C   UNL     2      -9.163   9.311  70.669  1.00  0.00    -0.321 C  
HETATM    3  C   UNL     2      -9.499  10.180  69.493  1.00  0.00    -0.214 C  
HETATM    4  C   UNL     3     -11.495  15.217  67.600  1.00  0.00    -0.287 C  
HETATM    5  C   UNL     3     -11.643  13.770  67.255  1.00  0.00    -0.361 C  
HETATM    6  O   UNL     3     -12.075  13.000  68.136  1.00  0.00    -0.307 OA 
HETATM    7  O   UNL     2     -10.187  11.196  69.693  1.00  0.00    -0.025 OA 
ENDROOT
BRANCH   3   8
HETATM    8  C   UNL     2      -9.014   9.783  68.125  1.00  0.00    -0.119 C  
BRANCH   8   9
HETATM    9  C   UNL     2      -7.801  10.598  67.717  1.00  0.00    -0.108 C  
HETATM   10  O   UNL     2      -6.622   8.946  66.577  1.00  0.00    -0.065 OA 
HETATM   11  O   UNL     2      -5.978   9.530  68.707  1.00  0.00    -0.043 OA 
HETATM   12  C   UNL     2      -6.668   9.589  67.656  1.00  0.00    -0.063 C  
ENDBRANCH   8   9
ENDBRANCH   3   8
BRANCH   5  13
HETATM   13  C   UNL     3     -11.161  13.286  65.908  1.00  0.00    -0.309 C  
BRANCH  13  14
HETATM   14  C   UNL     3     -11.075  11.777  65.919  1.00  0.00    -0.355 C  
HETATM   15  C   UNL     3     -10.615  11.351  64.539  1.00  0.00    -0.328 C  
HETATM   16  O   UNL     3      -9.404  11.024  64.475  1.00  0.00    -0.209 OA 
HETATM   17  O   UNL     3     -11.531  11.379  63.673  1.00  0.00    -0.364 OA 
ENDBRANCH  13  14
ENDBRANCH   5  13
TORSDOF 4
ENDMDL
MODEL      206
REMARK 921   NORMALIZED FREE ENERGY PREDICTED BY IDOCK:   -3.22 KCAL/MOL
REMARK 922        TOTAL FREE ENERGY PREDICTED BY IDOCK:   -4.34 KCAL/MOL
REMARK 923 INTER-LIGAND FREE ENERGY PREDICTED BY IDOCK:   -3.74 KCAL/MOL
REMARK 924 INTRA-LIGAND FREE ENERGY PREDICTED BY IDOCK:   -0.60 KCAL/MOL
REMARK 927      BINDING AFFINITY PREDICTED BY RF-SCORE:    0.00 PKD
ROOT
HETATM    1 CA   UNL     1      -9.335   8.768  68.353  1.00  0.00    -0.132 Ca 
HETATM    2  C   UNL     2      -5.616  10.206  67.163  1.00  0.00    -0.045 C  
HETATM    3  C   UNL     2      -6.927  10.886  67.425  1.00  0.00    -0.084 C  
HETATM    4  C   UNL     3     -11.969  10.803  70.164  1.00  0.00    -0.432 C  
HETATM    5  C   UNL     3     -11.459  11.134  68.798  1.00  0.00    -0.299 C  
HETATM    6  O   UNL     3     -10.859  10.242  68.166  1.00  0.00    -0.227 OA 
HETATM    7  O   UNL     2      -7.824  10.233  67.983  1.00  0.00    -0.098 OA 
ENDROOT
BRANCH   3   8
HETATM    8  C   UNL     2      -7.112  12.314  66.988  1.00  0.00    -0.040 C  
BRANCH   8   9
HETATM    9  C   UNL     2      -7.383  13.218  68.176  1.00  0.00    -0.120 C  
HETATM   10  O   UNL     2      -6.151  15.076  67.504  1.00  0.00    -0.295 OA 
HETATM   11  O   UNL     2      -5.289  13.664  69.103  1.00  0.00    -0.073 OA 
HETATM   12  C   UNL     2      -6.143  14.089  68.282  1.00  0.00    -0.117 C  
ENDBRANCH   8   9
ENDBRANCH   3   8
BRANCH   5  13
HETATM   13  C   UNL     3     -11.589  12.551  68.292  1.00  0.00    -0.376 C  
BRANCH  13  14
HETATM   14  C   UNL     3     -10.918  12.664  66.942  1.00  0.00    -0.297 C  
HETATM   15  C   UNL     3     -11.383  13.970  66.327  1.00  0.00    -0.333 C  
HETATM   16  O   UNL     3     -10.539  14.897  66.382  1.00  0.00    -0.293 OA 
HETATM   17  O   UNL     3     -12.545  13.911  65.841  1.00  0.00    -0.478 OA 
ENDBRANCH  13  14
ENDBRANCH   5  13
TORSDOF 4
ENDMDL
MODEL      207
REMARK 921   NORMALIZED FREE ENERGY PREDICTED BY IDOCK:   -3.22 KCAL/MOL
REMARK 922        TOTAL FREE ENERGY PREDICTED BY IDOCK:   -4.33 KCAL/MOL
REMARK 923 INTER-LIGAND FREE ENERGY PREDICTED BY IDOCK:   -4.02 KCAL/MOL
REMARK 924 INTRA-LIGAND FREE ENERGY PREDICTED BY IDOCK:   -0.32 KCAL/MOL
REMARK 927      BINDING AFFINITY PREDICTED BY RF-SCORE:    0.00 PKD
ROOT
HETATM    1 CA   UNL     1     -12.203   9.832  70.039  1.00  0.00    -0.305 Ca 
HETATM    2  C   UNL     2      -8.550   7.946  69.392  1.00  0.00    -0.137 C  
HETATM    3  C   UNL     2      -8.979   9.381  69.296  1.00  0.00    -0.154 C  
HETATM    4  C   UNL     3     -12.624  13.475  70.996  1.00  0.00    -0.438 C  
HETATM    5  C   UNL     3     -11.989  13.020  69.720  1.00  0.00    -0.308 C  
HETATM    6  O   UNL     3     -12.195  11.846  69.351  1.00  0.00    -0.235 OA 
HETATM    7  O   UNL     2     -10.089   9.692  69.759  1.00  0.00    -0.203 OA 
ENDROOT
BRANCH   3   8
HETATM    8  C   UNL     2      -8.068  10.375  68.630  1.00  0.00    -0.118 C  
BRANCH   8   9
HETATM    9  C   UNL     2      -7.085   9.682  67.705  1.00  0.00    -0.088 C  
HETATM   10  O   UNL     2      -6.161  11.561  66.686  1.00  0.00    -0.142 OA 
HETATM   11  O   UNL     2      -7.720  10.308  65.548  1.00  0.00    -0.140 OA 
HETATM   12  C   UNL     2      -6.967  10.612  66.510  1.00  0.00    -0.125 C  
ENDBRANCH   8   9
ENDBRANCH   3   8
BRANCH   5  13
HETATM   13  C   UNL     3     -11.045  13.953  69.000  1.00  0.00    -0.302 C  
BRANCH  13  14
HETATM   14  C   UNL     3     -11.754  14.564  67.813  1.00  0.00    -0.403 C  
HETATM   15  C   UNL     3     -10.868  15.681  67.298  1.00  0.00    -0.298 C  
HETATM   16  O   UNL     3     -10.222  15.392  66.261  1.00  0.00    -0.264 OA 
HETATM   17  O   UNL     3     -10.933  16.734  67.989  1.00  0.00    -0.356 OA 
ENDBRANCH  13  14
ENDBRANCH   5  13
TORSDOF 4
ENDMDL
MODEL      208
REMARK 921   NORMALIZED FREE ENERGY PREDICTED BY IDOCK:   -3.21 KCAL/MOL
REMARK 922        TOTAL FREE ENERGY PREDICTED BY IDOCK:   -4.33 KCAL/MOL
REMARK 923 INTER-LIGAND FREE ENERGY PREDICTED BY IDOCK:   -3.69 KCAL/MOL
REMARK 924 INTRA-LIGAND FREE ENERGY PREDICTED BY IDOCK:   -0.64 KCAL/MOL
REMARK 927      BINDING AFFINITY PREDICTED BY RF-SCORE:    0.00 PKD
ROOT
HETATM    1 CA   UNL     1      -5.943  12.574  65.978  1.00  0.00    -0.126 Ca 
HETATM    2  C   UNL     2      -6.012  16.561  67.169  1.00  0.00    -0.186 C  
HETATM    3  C   UNL     2      -6.762  15.351  67.642  1.00  0.00    -0.173 C  
HETATM    4  C   UNL     3      -6.907   9.639  68.171  1.00  0.00    -0.069 C  
HETATM    5  C   UNL     3      -7.849  10.738  67.795  1.00  0.00    -0.109 C  
HETATM    6  O   UNL     3      -7.546  11.460  66.825  1.00  0.00    -0.145 OA 
HETATM    7  O   UNL     2      -6.381  14.236  67.248  1.00  0.00    -0.296 OA 
ENDROOT
BRANCH   3   8
HETATM    8  C   UNL     2      -7.949  15.532  68.548  1.00  0.00    -0.137 C  
BRANCH   8   9
HETATM    9  C   UNL     2      -9.209  15.812  67.750  1.00  0.00    -0.197 C  
HETATM   10  O   UNL     2     -10.622  14.254  68.747  1.00  0.00    -0.242 OA 
HETATM   11  O   UNL     2      -9.721  13.804  66.679  1.00  0.00    -0.271 OA 
HETATM   12  C   UNL     2      -9.941  14.482  67.716  1.00  0.00    -0.225 C  
ENDBRANCH   8   9
ENDBRANCH   3   8
BRANCH   5  13
HETATM   13  C   UNL     3      -9.055  10.998  68.666  1.00  0.00    -0.174 C  
BRANCH  13  14
HETATM   14  C   UNL     3     -10.210  10.149  68.187  1.00  0.00    -0.200 C  
HETATM   15  C   UNL     3     -11.441  10.615  68.939  1.00  0.00    -0.265 C  
HETATM   16  O   UNL     3     -12.214  11.342  68.268  1.00  0.00    -0.611 OA 
HETATM   17  O   UNL     3     -11.501  10.182  70.122  1.00  0.00    -0.261 OA 
ENDBRANCH  13  14
ENDBRANCH   5  13
TORSDOF 4
ENDMDL
MODEL      209
REMARK 921   NORMALIZED FREE ENERGY PREDICTED BY IDOCK:   -3.17 KCAL/MOL
REMARK 922        TOTAL FREE ENERGY PREDICTED BY IDOCK:   -4.28 KCAL/MOL
REMARK 923 INTER-LIGAND FREE ENERGY PREDICTED BY IDOCK:   -3.73 KCAL/MOL
REMARK 924 INTRA-LIGAND FREE ENERGY PREDICTED BY IDOCK:   -0.54 KCAL/MOL
REMARK 927      BINDING AFFINITY PREDICTED BY RF-SCORE:    0.00 PKD
ROOT
HETATM    1 CA   UNL     1      -6.375  11.773  69.003  1.00  0.00    -0.052 Ca 
HETATM    2  C   UNL     2      -5.692  15.797  69.818  1.00  0.00    -0.136 C  
HETATM    3  C   UNL     2      -6.947  15.015  69.564  1.00  0.00    -0.187 C  
HETATM    4  C   UNL     3      -9.608   9.932  69.722  1.00  0.00    -0.261 C  
HETATM    5  C   UNL     3      -9.506  11.098  68.791  1.00  0.00    -0.165 C  
HETATM    6  O   UNL     3      -8.375  11.414  68.372  1.00  0.00    -0.141 OA 
HETATM    7  O   UNL     2      -6.873  13.774  69.562  1.00  0.00    -0.089 OA 
ENDROOT
BRANCH   3   8
HETATM    8  C   UNL     2      -8.231  15.754  69.302  1.00  0.00    -0.247 C  
BRANCH   8   9
HETATM    9  C   UNL     2      -8.262  16.311  67.891  1.00  0.00    -0.156 C  
HETATM   10  O   UNL     2      -8.713  18.539  68.393  1.00  0.00    -0.312 OA 
HETATM   11  O   UNL     2     -10.408  17.188  67.621  1.00  0.00    -0.320 OA 
HETATM   12  C   UNL     2      -9.232  17.477  67.965  1.00  0.00    -0.275 C  
ENDBRANCH   8   9
ENDBRANCH   3   8
BRANCH   5  13
HETATM   13  C   UNL     3     -10.747  11.905  68.492  1.00  0.00    -0.254 C  
BRANCH  13  14
HETATM   14  C   UNL     3     -10.346  13.293  68.047  1.00  0.00    -0.243 C  
HETATM   15  C   UNL     3     -10.713  13.409  66.581  1.00  0.00    -0.282 C  
HETATM   16  O   UNL     3     -11.757  14.070  66.359  1.00  0.00    -0.355 OA 
HETATM   17  O   UNL     3      -9.897  12.832  65.811  1.00  0.00    -0.262 OA 
ENDBRANCH  13  14
ENDBRANCH   5  13
TORSDOF 4
ENDMDL
MODEL      210
REMARK 921   NORMALIZED FREE ENERGY PREDICTED BY IDOCK:   -3.16 KCAL/MOL
REMARK 922        TOTAL FREE ENERGY PREDICTED BY IDOCK:   -4.27 KCAL/MOL
REMARK 923 INTER-LIGAND FREE ENERGY PREDICTED BY IDOCK:   -3.78 KCAL/MOL
REMARK 924 INTRA-LIGAND FREE ENERGY PREDICTED BY IDOCK:   -0.49 KCAL/MOL
REMARK 927      BINDING AFFINITY PREDICTED BY RF-SCORE:    0.00 PKD
ROOT
HETATM    1 CA   UNL     1     -11.139  10.857  70.769  1.00  0.00    -0.283 Ca 
HETATM    2  C   UNL     2     -12.461   7.042  71.776  1.00  0.00    -0.393 C  
HETATM    3  C   UNL     2     -11.695   7.569  70.598  1.00  0.00    -0.215 C  
HETATM    4  C   UNL     3      -8.192  11.605  68.508  1.00  0.00    -0.144 C  
HETATM    5  C   UNL     3      -9.411  10.862  68.064  1.00  0.00    -0.163 C  
HETATM    6  O   UNL     3     -10.440  10.957  68.762  1.00  0.00    -0.181 OA 
HETATM    7  O   UNL     2     -11.246   8.726  70.663  1.00  0.00    -0.252 OA 
ENDROOT
BRANCH   3   8
HETATM    8  C   UNL     2     -11.521   6.696  69.386  1.00  0.00    -0.288 C  
BRANCH   8   9
HETATM    9  C   UNL     2     -10.079   6.699  68.913  1.00  0.00    -0.178 C  
HETATM   10  O   UNL     2      -9.752   4.400  68.737  1.00  0.00    -0.163 OA 
HETATM   11  O   UNL     2      -8.891   5.531  70.546  1.00  0.00    -0.131 OA 
HETATM   12  C   UNL     2      -9.500   5.403  69.452  1.00  0.00    -0.133 C  
ENDBRANCH   8   9
ENDBRANCH   3   8
BRANCH   5  13
HETATM   13  C   UNL     3      -9.314   9.948  66.865  1.00  0.00    -0.184 C  
BRANCH  13  14
HETATM   14  C   UNL     3      -8.797  10.730  65.680  1.00  0.00    -0.202 C  
HETATM   15  C   UNL     3      -9.963  11.535  65.141  1.00  0.00    -0.262 C  
HETATM   16  O   UNL     3      -9.938  12.752  65.450  1.00  0.00    -0.265 OA 
HETATM   17  O   UNL     3     -10.768  10.854  64.450  1.00  0.00    -0.340 OA 
ENDBRANCH  13  14
ENDBRANCH   5  13
TORSDOF 4
ENDMDL
MODEL      211
REMARK 921   NORMALIZED FREE ENERGY PREDICTED BY IDOCK:   -3.13 KCAL/MOL
REMARK 922        TOTAL FREE ENERGY PREDICTED BY IDOCK:   -4.23 KCAL/MOL
REMARK 923 INTER-LIGAND FREE ENERGY PREDICTED BY IDOCK:   -3.82 KCAL/MOL
REMARK 924 INTRA-LIGAND FREE ENERGY PREDICTED BY IDOCK:   -0.41 KCAL/MOL
REMARK 927      BINDING AFFINITY PREDICTED BY RF-SCORE:    0.00 PKD
ROOT
HETATM    1 CA   UNL     1     -12.101  11.807  65.825  1.00  0.00    -0.358 Ca 
HETATM    2  C   UNL     2     -10.706   8.165  67.277  1.00  0.00    -0.263 C  
HETATM    3  C   UNL     2     -10.170   9.563  67.369  1.00  0.00    -0.227 C  
HETATM    4  C   UNL     3     -11.277  15.194  67.311  1.00  0.00    -0.324 C  
HETATM    5  C   UNL     3     -10.251  14.264  66.747  1.00  0.00    -0.272 C  
HETATM    6  O   UNL     3     -10.643  13.347  65.997  1.00  0.00    -0.280 OA 
HETATM    7  O   UNL     2     -10.912  10.499  67.025  1.00  0.00    -0.257 OA 
ENDROOT
BRANCH   3   8
HETATM    8  C   UNL     2      -8.760   9.778  67.849  1.00  0.00    -0.125 C  
BRANCH   8   9
HETATM    9  C   UNL     2      -8.738  10.208  69.304  1.00  0.00    -0.186 C  
HETATM   10  O   UNL     2      -6.963   8.895  70.043  1.00  0.00    -0.041 OA 
HETATM   11  O   UNL     2      -9.120   8.260  70.530  1.00  0.00    -0.143 OA 
HETATM   12  C   UNL     2      -8.216   8.994  70.052  1.00  0.00    -0.127 C  
ENDBRANCH   8   9
ENDBRANCH   3   8
BRANCH   5  13
HETATM   13  C   UNL     3      -8.815  14.400  67.195  1.00  0.00    -0.244 C  
BRANCH  13  14
HETATM   14  C   UNL     3      -8.295  15.763  66.799  1.00  0.00    -0.309 C  
HETATM   15  C   UNL     3      -7.116  16.064  67.702  1.00  0.00    -0.154 C  
HETATM   16  O   UNL     3      -5.995  15.916  67.157  1.00  0.00    -0.324 OA 
HETATM   17  O   UNL     3      -7.451  16.433  68.861  1.00  0.00    -0.189 OA 
ENDBRANCH  13  14
ENDBRANCH   5  13
TORSDOF 4
ENDMDL
MODEL      212
REMARK 921   NORMALIZED FREE ENERGY PREDICTED BY IDOCK:   -3.13 KCAL/MOL
REMARK 922        TOTAL FREE ENERGY PREDICTED BY IDOCK:   -4.23 KCAL/MOL
REMARK 923 INTER-LIGAND FREE ENERGY PREDICTED BY IDOCK:   -3.81 KCAL/MOL
REMARK 924 INTRA-LIGAND FREE ENERGY PREDICTED BY IDOCK:   -0.42 KCAL/MOL
REMARK 927      BINDING AFFINITY PREDICTED BY RF-SCORE:    0.00 PKD
ROOT
HETATM    1 CA   UNL     1      -6.090  12.987  67.522  1.00  0.00    -0.079 Ca 
HETATM    2  C   UNL     2      -7.937  16.656  66.851  1.00  0.00    -0.255 C  
HETATM    3  C   UNL     2      -8.322  15.249  66.497  1.00  0.00    -0.089 C  
HETATM    4  C   UNL     3      -7.886   9.655  67.700  1.00  0.00    -0.095 C  
HETATM    5  C   UNL     3      -7.876  10.529  66.486  1.00  0.00    -0.134 C  
HETATM    6  O   UNL     3      -7.005  11.418  66.413  1.00  0.00    -0.100 OA 
HETATM    7  O   UNL     2      -7.683  14.319  67.017  1.00  0.00    -0.090 OA 
ENDROOT
BRANCH   3   8
HETATM    8  C   UNL     2      -9.442  15.020  65.519  1.00  0.00    -0.078 C  
BRANCH   8   9
HETATM    9  C   UNL     2     -10.739  15.627  66.021  1.00  0.00    -0.322 C  
HETATM   10  O   UNL     2     -12.083  15.189  64.171  1.00  0.00    -0.543 OA 
HETATM   11  O   UNL     2     -11.262  17.314  64.496  1.00  0.00    -1.083 OA 
HETATM   12  C   UNL     2     -11.449  16.098  64.765  1.00  0.00    -0.168 C  
ENDBRANCH   8   9
ENDBRANCH   3   8
BRANCH   5  13
HETATM   13  C   UNL     3      -8.979  10.375  65.465  1.00  0.00    -0.199 C  
BRANCH  13  14
HETATM   14  C   UNL     3      -9.542  11.737  65.128  1.00  0.00    -0.173 C  
HETATM   15  C   UNL     3     -11.011  11.710  65.498  1.00  0.00    -0.270 C  
HETATM   16  O   UNL     3     -11.285  12.300  66.571  1.00  0.00    -0.289 OA 
HETATM   17  O   UNL     3     -11.731  11.108  64.655  1.00  0.00     0.157 OA 
ENDBRANCH  13  14
ENDBRANCH   5  13
TORSDOF 4
ENDMDL
MODEL      213
REMARK 921   NORMALIZED FREE ENERGY PREDICTED BY IDOCK:   -3.12 KCAL/MOL
REMARK 922        TOTAL FREE ENERGY PREDICTED BY IDOCK:   -4.21 KCAL/MOL
REMARK 923 INTER-LIGAND FREE ENERGY PREDICTED BY IDOCK:   -3.73 KCAL/MOL
REMARK 924 INTRA-LIGAND FREE ENERGY PREDICTED BY IDOCK:   -0.49 KCAL/MOL
REMARK 927      BINDING AFFINITY PREDICTED BY RF-SCORE:    0.00 PKD
ROOT
HETATM    1 CA   UNL     1     -10.075   7.941  68.759  1.00  0.00    -0.161 Ca 
HETATM    2  C   UNL     2      -5.985   7.503  69.388  1.00  0.00    -0.030 C  
HETATM    3  C   UNL     2      -6.819   8.661  68.926  1.00  0.00    -0.061 C  
HETATM    4  C   UNL     3     -11.950  11.232  68.892  1.00  0.00    -0.378 C  
HETATM    5  C   UNL     3     -10.853  10.940  67.918  1.00  0.00    -0.247 C  
HETATM    6  O   UNL     3     -10.537   9.748  67.734  1.00  0.00    -0.233 OA 
HETATM    7  O   UNL     2      -8.053   8.575  69.038  1.00  0.00    -0.111 OA 
ENDROOT
BRANCH   3   8
HETATM    8  C   UNL     2      -6.138   9.864  68.331  1.00  0.00    -0.046 C  
BRANCH   8   9
HETATM    9  C   UNL     2      -6.973  10.468  67.217  1.00  0.00    -0.087 C  
HETATM   10  O   UNL     2      -5.306  11.683  66.137  1.00  0.00    -0.304 OA 
HETATM   11  O   UNL     2      -6.800  12.778  67.500  1.00  0.00    -0.134 OA 
HETATM   12  C   UNL     2      -6.292  11.790  66.908  1.00  0.00    -0.131 C  
ENDBRANCH   8   9
ENDBRANCH   3   8
BRANCH   5  13
HETATM   13  C   UNL     3     -10.106  12.093  67.291  1.00  0.00    -0.214 C  
BRANCH  13  14
HETATM   14  C   UNL     3     -10.186  11.982  65.786  1.00  0.00    -0.274 C  
HETATM   15  C   UNL     3     -11.246  12.964  65.327  1.00  0.00    -0.288 C  
HETATM   16  O   UNL     3     -10.790  14.022  64.828  1.00  0.00    -0.382 OA 
HETATM   17  O   UNL     3     -12.424  12.552  65.506  1.00  0.00    -0.646 OA 
ENDBRANCH  13  14
ENDBRANCH   5  13
TORSDOF 4
ENDMDL
MODEL      214
REMARK 921   NORMALIZED FREE ENERGY PREDICTED BY IDOCK:   -3.08 KCAL/MOL
REMARK 922        TOTAL FREE ENERGY PREDICTED BY IDOCK:   -4.16 KCAL/MOL
REMARK 923 INTER-LIGAND FREE ENERGY PREDICTED BY IDOCK:   -3.75 KCAL/MOL
REMARK 924 INTRA-LIGAND FREE ENERGY PREDICTED BY IDOCK:   -0.41 KCAL/MOL
REMARK 927      BINDING AFFINITY PREDICTED BY RF-SCORE:    0.00 PKD
ROOT
HETATM    1 CA   UNL     1      -6.759   9.409  70.625  1.00  0.00    -0.041 Ca 
HETATM    2  C   UNL     2      -8.033   5.993  72.632  1.00  0.00    -0.104 C  
HETATM    3  C   UNL     2      -8.543   6.697  71.409  1.00  0.00    -0.125 C  
HETATM    4  C   UNL     3      -7.389  10.134  66.960  1.00  0.00    -0.091 C  
HETATM    5  C   UNL     3      -8.477   9.962  67.971  1.00  0.00    -0.117 C  
HETATM    6  O   UNL     3      -8.175  10.060  69.177  1.00  0.00    -0.115 OA 
HETATM    7  O   UNL     2      -7.831   7.582  70.904  1.00  0.00    -0.092 OA 
ENDROOT
BRANCH   3   8
HETATM    8  C   UNL     2      -9.892   6.326  70.858  1.00  0.00    -0.207 C  
BRANCH   8   9
HETATM    9  C   UNL     2     -10.911   6.162  71.971  1.00  0.00    -0.292 C  
HETATM   10  O   UNL     2     -12.630   7.456  71.080  1.00  0.00    -0.335 OA 
HETATM   11  O   UNL     2     -11.316   8.320  72.759  1.00  0.00    -0.381 OA 
HETATM   12  C   UNL     2     -11.715   7.450  71.942  1.00  0.00    -0.288 C  
ENDBRANCH   8   9
ENDBRANCH   3   8
BRANCH   5  13
HETATM   13  C   UNL     3      -9.858   9.570  67.500  1.00  0.00    -0.213 C  
BRANCH  13  14
HETATM   14  C   UNL     3     -10.251  10.437  66.326  1.00  0.00    -0.286 C  
HETATM   15  C   UNL     3     -10.688  11.773  66.893  1.00  0.00    -0.250 C  
HETATM   16  O   UNL     3      -9.837  12.688  66.775  1.00  0.00    -0.224 OA 
HETATM   17  O   UNL     3     -11.851  11.757  67.381  1.00  0.00    -0.590 OA 
ENDBRANCH  13  14
ENDBRANCH   5  13
TORSDOF 4
ENDMDL
MODEL      215
REMARK 921   NORMALIZED FREE ENERGY PREDICTED BY IDOCK:   -3.05 KCAL/MOL
REMARK 922        TOTAL FREE ENERGY PREDICTED BY IDOCK:   -4.13 KCAL/MOL
REMARK 923 INTER-LIGAND FREE ENERGY PREDICTED BY IDOCK:   -3.53 KCAL/MOL
REMARK 924 INTRA-LIGAND FREE ENERGY PREDICTED BY IDOCK:   -0.60 KCAL/MOL
REMARK 927      BINDING AFFINITY PREDICTED BY RF-SCORE:    0.00 PKD
ROOT
HETATM    1 CA   UNL     1      -9.464   3.903  71.070  1.00  0.00    -0.095 Ca 
HETATM    2  C   UNL     2     -10.277   6.512  74.208  1.00  0.00    -0.373 C  
HETATM    3  C   UNL     2      -9.887   6.741  72.777  1.00  0.00    -0.166 C  
HETATM    4  C   UNL     3      -9.819   4.753  67.395  1.00  0.00    -0.214 C  
HETATM    5  C   UNL     3      -8.885   5.460  68.323  1.00  0.00    -0.104 C  
HETATM    6  O   UNL     3      -8.601   4.903  69.402  1.00  0.00    -0.086 OA 
HETATM    7  O   UNL     2      -9.919   5.772  72.000  1.00  0.00    -0.170 OA 
ENDROOT
BRANCH   3   8
HETATM    8  C   UNL     2      -9.456   8.116  72.346  1.00  0.00    -0.319 C  
BRANCH   8   9
HETATM    9  C   UNL     2     -10.641   8.937  71.873  1.00  0.00    -0.419 C  
HETATM   10  O   UNL     2     -11.114   7.786  69.904  1.00  0.00    -0.230 OA 
HETATM   11  O   UNL     2     -10.006   9.800  69.800  1.00  0.00    -0.207 OA 
HETATM   12  C   UNL     2     -10.593   8.836  70.358  1.00  0.00    -0.221 C  
ENDBRANCH   8   9
ENDBRANCH   3   8
BRANCH   5  13
HETATM   13  C   UNL     3      -8.421   6.854  67.972  1.00  0.00    -0.124 C  
BRANCH  13  14
HETATM   14  C   UNL     3      -8.709   7.124  66.513  1.00  0.00    -0.139 C  
HETATM   15  C   UNL     3      -9.428   8.457  66.446  1.00  0.00    -0.227 C  
HETATM   16  O   UNL     3      -8.708   9.415  66.071  1.00  0.00    -0.139 OA 
HETATM   17  O   UNL     3     -10.647   8.388  66.763  1.00  0.00    -0.295 OA 
ENDBRANCH  13  14
ENDBRANCH   5  13
TORSDOF 4
ENDMDL
MODEL      216
REMARK 921   NORMALIZED FREE ENERGY PREDICTED BY IDOCK:   -3.04 KCAL/MOL
REMARK 922        TOTAL FREE ENERGY PREDICTED BY IDOCK:   -4.11 KCAL/MOL
REMARK 923 INTER-LIGAND FREE ENERGY PREDICTED BY IDOCK:   -3.60 KCAL/MOL
REMARK 924 INTRA-LIGAND FREE ENERGY PREDICTED BY IDOCK:   -0.51 KCAL/MOL
REMARK 927      BINDING AFFINITY PREDICTED BY RF-SCORE:    0.00 PKD
ROOT
HETATM    1 CA   UNL     1      -6.888  11.322  66.513  1.00  0.00    -0.093 Ca 
HETATM    2  C   UNL     2      -6.356   9.368  70.148  1.00  0.00    -0.058 C  
HETATM    3  C   UNL     2      -7.583   9.803  69.403  1.00  0.00    -0.104 C  
HETATM    4  C   UNL     3      -9.992  11.080  64.354  1.00  0.00    -0.368 C  
HETATM    5  C   UNL     3      -9.990  11.624  65.746  1.00  0.00    -0.237 C  
HETATM    6  O   UNL     3      -8.897  11.966  66.239  1.00  0.00    -0.186 OA 
HETATM    7  O   UNL     2      -7.452  10.176  68.226  1.00  0.00    -0.081 OA 
ENDROOT
BRANCH   3   8
HETATM    8  C   UNL     2      -8.912   9.791  70.110  1.00  0.00    -0.235 C  
BRANCH   8   9
HETATM    9  C   UNL     2      -9.247   8.402  70.620  1.00  0.00    -0.177 C  
HETATM   10  O   UNL     2     -10.352   7.584  68.740  1.00  0.00    -0.194 OA 
HETATM   11  O   UNL     2     -11.576   8.269  70.563  1.00  0.00    -0.241 OA 
HETATM   12  C   UNL     2     -10.533   8.033  69.900  1.00  0.00    -0.233 C  
ENDBRANCH   8   9
ENDBRANCH   3   8
BRANCH   5  13
HETATM   13  C   UNL     3     -11.281  11.629  66.531  1.00  0.00    -0.356 C  
BRANCH  13  14
HETATM   14  C   UNL     3     -11.099  10.824  67.798  1.00  0.00    -0.381 C  
HETATM   15  C   UNL     3     -11.721  11.628  68.923  1.00  0.00    -0.334 C  
HETATM   16  O   UNL     3     -12.847  11.214  69.293  1.00  0.00    -0.131 OA 
HETATM   17  O   UNL     3     -10.996  12.580  69.321  1.00  0.00    -0.189 OA 
ENDBRANCH  13  14
ENDBRANCH   5  13
TORSDOF 4
ENDMDL
MODEL      217
REMARK 921   NORMALIZED FREE ENERGY PREDICTED BY IDOCK:   -3.04 KCAL/MOL
REMARK 922        TOTAL FREE ENERGY PREDICTED BY IDOCK:   -4.11 KCAL/MOL
REMARK 923 INTER-LIGAND FREE ENERGY PREDICTED BY IDOCK:   -3.66 KCAL/MOL
REMARK 924 INTRA-LIGAND FREE ENERGY PREDICTED BY IDOCK:   -0.45 KCAL/MOL
REMARK 927      BINDING AFFINITY PREDICTED BY RF-SCORE:    0.00 PKD
ROOT
HETATM    1 CA   UNL     1     -12.059  11.494  66.151  1.00  0.00    -0.303 Ca 
HETATM    2  C   UNL     2     -10.561   7.835  67.450  1.00  0.00    -0.345 C  
HETATM    3  C   UNL     2     -10.202   9.252  67.787  1.00  0.00    -0.218 C  
HETATM    4  C   UNL     3     -11.877  14.732  68.112  1.00  0.00    -0.318 C  
HETATM    5  C   UNL     3     -10.674  13.969  67.656  1.00  0.00    -0.257 C  
HETATM    6  O   UNL     3     -10.827  13.121  66.754  1.00  0.00    -0.272 OA 
HETATM    7  O   UNL     2     -10.967  10.155  67.409  1.00  0.00    -0.292 OA 
ENDROOT
BRANCH   3   8
HETATM    8  C   UNL     2      -8.931   9.527  68.543  1.00  0.00    -0.128 C  
BRANCH   8   9
HETATM    9  C   UNL     2      -7.712   9.198  67.701  1.00  0.00    -0.089 C  
HETATM   10  O   UNL     2      -6.323  10.939  68.381  1.00  0.00    -0.052 OA 
HETATM   11  O   UNL     2      -7.379  11.065  66.341  1.00  0.00    -0.142 OA 
HETATM   12  C   UNL     2      -7.057  10.543  67.440  1.00  0.00    -0.090 C  
ENDBRANCH   8   9
ENDBRANCH   3   8
BRANCH   5  13
HETATM   13  C   UNL     3      -9.363  14.172  68.377  1.00  0.00    -0.208 C  
BRANCH  13  14
HETATM   14  C   UNL     3      -9.509  15.301  69.372  1.00  0.00    -0.231 C  
HETATM   15  C   UNL     3      -8.651  16.446  68.868  1.00  0.00    -0.250 C  
HETATM   16  O   UNL     3      -9.296  17.373  68.321  1.00  0.00    -0.261 OA 
HETATM   17  O   UNL     3      -7.421  16.290  69.096  1.00  0.00    -0.205 OA 
ENDBRANCH  13  14
ENDBRANCH   5  13
TORSDOF 4
ENDMDL
MODEL      218
REMARK 921   NORMALIZED FREE ENERGY PREDICTED BY IDOCK:   -3.01 KCAL/MOL
REMARK 922        TOTAL FREE ENERGY PREDICTED BY IDOCK:   -4.08 KCAL/MOL
REMARK 923 INTER-LIGAND FREE ENERGY PREDICTED BY IDOCK:   -3.35 KCAL/MOL
REMARK 924 INTRA-LIGAND FREE ENERGY PREDICTED BY IDOCK:   -0.73 KCAL/MOL
REMARK 927      BINDING AFFINITY PREDICTED BY RF-SCORE:    0.00 PKD
ROOT
HETATM    1 CA   UNL     1      -8.473  11.123  69.970  1.00  0.00    -0.366 Ca 
HETATM    2  C   UNL     2      -5.284   9.572  72.146  1.00  0.00    -0.076 C  
HETATM    3  C   UNL     2      -6.504   8.937  71.547  1.00  0.00    -0.076 C  
HETATM    4  C   UNL     3     -10.608   9.147  67.541  1.00  0.00    -0.317 C  
HETATM    5  C   UNL     3     -10.502   8.832  68.999  1.00  0.00    -0.203 C  
HETATM    6  O   UNL     3     -10.055   9.716  69.757  1.00  0.00    -0.203 OA 
HETATM    7  O   UNL     2      -7.186   9.610  70.757  1.00  0.00    -0.220 OA 
ENDROOT
BRANCH   3   8
HETATM    8  C   UNL     2      -6.865   7.529  71.939  1.00  0.00    -0.061 C  
BRANCH   8   9
HETATM    9  C   UNL     2      -6.819   7.352  73.445  1.00  0.00    -0.069 C  
HETATM   10  O   UNL     2      -8.377   5.634  73.654  1.00  0.00    -0.112 OA 
HETATM   11  O   UNL     2      -8.988   7.788  74.185  1.00  0.00    -0.251 OA 
HETATM   12  C   UNL     2      -8.211   6.870  73.814  1.00  0.00    -0.118 C  
ENDBRANCH   8   9
ENDBRANCH   3   8
BRANCH   5  13
HETATM   13  C   UNL     3     -10.827   7.434  69.471  1.00  0.00    -0.201 C  
BRANCH  13  14
HETATM   14  C   UNL     3     -10.264   7.231  70.859  1.00  0.00    -0.203 C  
HETATM   15  C   UNL     3     -11.446   7.069  71.795  1.00  0.00    -0.267 C  
HETATM   16  O   UNL     3     -11.672   5.884  72.143  1.00  0.00    -0.294 OA 
HETATM   17  O   UNL     3     -12.008   8.159  72.089  1.00  0.00    -0.317 OA 
ENDBRANCH  13  14
ENDBRANCH   5  13
TORSDOF 4
ENDMDL
MODEL      219
REMARK 921   NORMALIZED FREE ENERGY PREDICTED BY IDOCK:   -2.97 KCAL/MOL
REMARK 922        TOTAL FREE ENERGY PREDICTED BY IDOCK:   -4.03 KCAL/MOL
REMARK 923 INTER-LIGAND FREE ENERGY PREDICTED BY IDOCK:   -3.62 KCAL/MOL
REMARK 924 INTRA-LIGAND FREE ENERGY PREDICTED BY IDOCK:   -0.41 KCAL/MOL
REMARK 927      BINDING AFFINITY PREDICTED BY RF-SCORE:    0.00 PKD
ROOT
HETATM    1 CA   UNL     1      -7.430   8.314  66.800  1.00  0.00    -0.074 Ca 
HETATM    2  C   UNL     2      -8.835   4.938  64.813  1.00  0.00    -0.147 C  
HETATM    3  C   UNL     2      -9.327   5.679  66.022  1.00  0.00    -0.134 C  
HETATM    4  C   UNL     3      -9.559  10.632  68.910  1.00  0.00    -0.204 C  
HETATM    5  C   UNL     3      -9.357   9.182  69.217  1.00  0.00    -0.157 C  
HETATM    6  O   UNL     3      -8.398   8.598  68.674  1.00  0.00    -0.120 OA 
HETATM    7  O   UNL     2      -8.832   6.791  66.268  1.00  0.00    -0.140 OA 
ENDROOT
BRANCH   3   8
HETATM    8  C   UNL     2     -10.376   5.044  66.894  1.00  0.00    -0.267 C  
BRANCH   8   9
HETATM    9  C   UNL     2      -9.761   4.024  67.834  1.00  0.00    -0.148 C  
HETATM   10  O   UNL     2     -10.311   5.026  69.863  1.00  0.00    -0.279 OA 
HETATM   11  O   UNL     2      -8.162   5.201  69.060  1.00  0.00    -0.087 OA 
HETATM   12  C   UNL     2      -9.364   4.828  69.060  1.00  0.00    -0.135 C  
ENDBRANCH   8   9
ENDBRANCH   3   8
BRANCH   5  13
HETATM   13  C   UNL     3     -10.377   8.466  70.070  1.00  0.00    -0.211 C  
BRANCH  13  14
HETATM   14  C   UNL     3     -10.567   9.224  71.364  1.00  0.00    -0.417 C  
HETATM   15  C   UNL     3     -11.660   8.510  72.135  1.00  0.00    -0.377 C  
HETATM   16  O   UNL     3     -11.245   7.793  73.078  1.00  0.00    -0.405 OA 
HETATM   17  O   UNL     3     -12.821   8.766  71.714  1.00  0.00    -0.323 OA 
ENDBRANCH  13  14
ENDBRANCH   5  13
TORSDOF 4
ENDMDL
MODEL      220
REMARK 921   NORMALIZED FREE ENERGY PREDICTED BY IDOCK:   -2.96 KCAL/MOL
REMARK 922        TOTAL FREE ENERGY PREDICTED BY IDOCK:   -4.01 KCAL/MOL
REMARK 923 INTER-LIGAND FREE ENERGY PREDICTED BY IDOCK:   -3.62 KCAL/MOL
REMARK 924 INTRA-LIGAND FREE ENERGY PREDICTED BY IDOCK:   -0.39 KCAL/MOL
REMARK 927      BINDING AFFINITY PREDICTED BY RF-SCORE:    0.00 PKD
ROOT
HETATM    1 CA   UNL     1     -11.586  10.116  69.421  1.00  0.00    -0.220 Ca 
HETATM    2  C   UNL     2      -9.759   9.178  65.802  1.00  0.00    -0.299 C  
HETATM    3  C   UNL     2     -10.116   8.348  67.000  1.00  0.00    -0.284 C  
HETATM    4  C   UNL     3     -13.495   7.661  71.587  1.00  0.00    -0.415 C  
HETATM    5  C   UNL     3     -12.044   7.519  71.252  1.00  0.00    -0.323 C  
HETATM    6  O   UNL     3     -11.441   8.523  70.825  1.00  0.00    -0.269 OA 
HETATM    7  O   UNL     2     -10.858   8.851  67.860  1.00  0.00    -0.164 OA 
ENDROOT
BRANCH   3   8
HETATM    8  C   UNL     2      -9.552   6.959  67.124  1.00  0.00    -0.182 C  
BRANCH   8   9
HETATM    9  C   UNL     2      -8.099   6.918  66.686  1.00  0.00    -0.110 C  
HETATM   10  O   UNL     2      -7.189   5.862  68.552  1.00  0.00    -0.078 OA 
HETATM   11  O   UNL     2      -6.933   8.135  68.300  1.00  0.00    -0.072 OA 
HETATM   12  C   UNL     2      -7.310   6.977  67.982  1.00  0.00    -0.097 C  
ENDBRANCH   8   9
ENDBRANCH   3   8
BRANCH   5  13
HETATM   13  C   UNL     3     -11.406   6.152  71.332  1.00  0.00    -0.336 C  
BRANCH  13  14
HETATM   14  C   UNL     3     -11.325   5.722  72.779  1.00  0.00    -0.328 C  
HETATM   15  C   UNL     3     -10.028   4.955  72.939  1.00  0.00    -0.157 C  
HETATM   16  O   UNL     3      -9.107   5.604  73.493  1.00  0.00    -0.132 OA 
HETATM   17  O   UNL     3     -10.085   3.773  72.502  1.00  0.00    -0.156 OA 
ENDBRANCH  13  14
ENDBRANCH   5  13
TORSDOF 4
ENDMDL
MODEL      221
REMARK 921   NORMALIZED FREE ENERGY PREDICTED BY IDOCK:   -2.91 KCAL/MOL
REMARK 922        TOTAL FREE ENERGY PREDICTED BY IDOCK:   -3.96 KCAL/MOL
REMARK 923 INTER-LIGAND FREE ENERGY PREDICTED BY IDOCK:   -3.34 KCAL/MOL
REMARK 924 INTRA-LIGAND FREE ENERGY PREDICTED BY IDOCK:   -0.61 KCAL/MOL
REMARK 927      BINDING AFFINITY PREDICTED BY RF-SCORE:    0.00 PKD
ROOT
HETATM    1 CA   UNL     1      -8.646   4.137  68.768  1.00  0.00    -0.080 Ca 
HETATM    2  C   UNL     2      -7.196   7.846  67.559  1.00  0.00    -0.088 C  
HETATM    3  C   UNL     2      -7.872   7.385  68.817  1.00  0.00    -0.121 C  
HETATM    4  C   UNL     3      -9.054   3.036  72.371  1.00  0.00    -0.136 C  
HETATM    5  C   UNL     3      -9.775   4.202  71.772  1.00  0.00    -0.175 C  
HETATM    6  O   UNL     3      -9.832   4.278  70.529  1.00  0.00    -0.200 OA 
HETATM    7  O   UNL     2      -8.004   6.162  68.996  1.00  0.00    -0.105 OA 
ENDROOT
BRANCH   3   8
HETATM    8  C   UNL     2      -8.380   8.409  69.795  1.00  0.00    -0.125 C  
BRANCH   8   9
HETATM    9  C   UNL     2      -8.728   9.709  69.092  1.00  0.00    -0.151 C  
HETATM   10  O   UNL     2     -10.913   9.958  69.858  1.00  0.00    -0.247 OA 
HETATM   11  O   UNL     2     -10.543   9.200  67.718  1.00  0.00    -0.248 OA 
HETATM   12  C   UNL     2     -10.226   9.625  68.859  1.00  0.00    -0.201 C  
ENDBRANCH   8   9
ENDBRANCH   3   8
BRANCH   5  13
HETATM   13  C   UNL     3     -10.298   5.285  72.685  1.00  0.00    -0.247 C  
BRANCH  13  14
HETATM   14  C   UNL     3     -11.768   5.504  72.410  1.00  0.00    -0.182 C  
HETATM   15  C   UNL     3     -11.893   6.855  71.732  1.00  0.00    -0.316 C  
HETATM   16  O   UNL     3     -12.075   6.797  70.492  1.00  0.00    -0.386 OA 
HETATM   17  O   UNL     3     -11.809   7.828  72.531  1.00  0.00    -0.335 OA 
ENDBRANCH  13  14
ENDBRANCH   5  13
TORSDOF 4
ENDMDL
MODEL      222
REMARK 921   NORMALIZED FREE ENERGY PREDICTED BY IDOCK:   -2.88 KCAL/MOL
REMARK 922        TOTAL FREE ENERGY PREDICTED BY IDOCK:   -3.92 KCAL/MOL
REMARK 923 INTER-LIGAND FREE ENERGY PREDICTED BY IDOCK:   -3.39 KCAL/MOL
REMARK 924 INTRA-LIGAND FREE ENERGY PREDICTED BY IDOCK:   -0.53 KCAL/MOL
REMARK 927      BINDING AFFINITY PREDICTED BY RF-SCORE:    0.00 PKD
ROOT
HETATM    1 CA   UNL     1      -9.657  14.154  64.774  1.00  0.00    -0.461 Ca 
HETATM    2  C   UNL     2      -9.993  10.230  66.119  1.00  0.00    -0.300 C  
HETATM    3  C   UNL     2      -9.638  11.512  66.814  1.00  0.00    -0.186 C  
HETATM    4  C   UNL     3     -10.055  17.234  66.946  1.00  0.00    -0.304 C  
HETATM    5  C   UNL     3      -8.999  16.197  67.161  1.00  0.00    -0.200 C  
HETATM    6  O   UNL     3      -8.743  15.419  66.221  1.00  0.00    -0.300 OA 
HETATM    7  O   UNL     2      -9.827  12.579  66.208  1.00  0.00    -0.243 OA 
ENDROOT
BRANCH   3   8
HETATM    8  C   UNL     2      -9.051  11.456  68.199  1.00  0.00    -0.174 C  
BRANCH   8   9
HETATM    9  C   UNL     2      -7.938  10.427  68.279  1.00  0.00    -0.111 C  
HETATM   10  O   UNL     2      -7.017  11.052  70.324  1.00  0.00    -0.177 OA 
HETATM   11  O   UNL     2      -5.961  11.662  68.374  1.00  0.00    -0.049 OA 
HETATM   12  C   UNL     2      -6.845  11.112  69.081  1.00  0.00    -0.102 C  
ENDBRANCH   8   9
ENDBRANCH   3   8
BRANCH   5  13
HETATM   13  C   UNL     3      -8.373  16.063  68.530  1.00  0.00    -0.191 C  
BRANCH  13  14
HETATM   14  C   UNL     3      -7.111  15.239  68.424  1.00  0.00    -0.111 C  
HETATM   15  C   UNL     3      -6.405  15.341  69.762  1.00  0.00    -0.162 C  
HETATM   16  O   UNL     3      -6.532  14.328  70.492  1.00  0.00    -0.147 OA 
HETATM   17  O   UNL     3      -5.786  16.428  69.922  1.00  0.00    -0.172 OA 
ENDBRANCH  13  14
ENDBRANCH   5  13
TORSDOF 4
ENDMDL
MODEL      223
REMARK 921   NORMALIZED FREE ENERGY PREDICTED BY IDOCK:   -2.85 KCAL/MOL
REMARK 922        TOTAL FREE ENERGY PREDICTED BY IDOCK:   -3.88 KCAL/MOL
REMARK 923 INTER-LIGAND FREE ENERGY PREDICTED BY IDOCK:   -3.44 KCAL/MOL
REMARK 924 INTRA-LIGAND FREE ENERGY PREDICTED BY IDOCK:   -0.44 KCAL/MOL
REMARK 927      BINDING AFFINITY PREDICTED BY RF-SCORE:    0.00 PKD
ROOT
HETATM    1 CA   UNL     1     -10.446   6.893  69.565  1.00  0.00    -0.178 Ca 
HETATM    2  C   UNL     2      -6.569   6.425  68.126  1.00  0.00    -0.066 C  
HETATM    3  C   UNL     2      -7.431   7.635  68.335  1.00  0.00    -0.104 C  
HETATM    4  C   UNL     3     -11.794  10.045  71.179  1.00  0.00    -0.481 C  
HETATM    5  C   UNL     3     -11.292   9.983  69.772  1.00  0.00    -0.228 C  
HETATM    6  O   UNL     3     -11.187   8.861  69.238  1.00  0.00     0.010 OA 
HETATM    7  O   UNL     2      -8.480   7.500  68.988  1.00  0.00    -0.131 OA 
ENDROOT
BRANCH   3   8
HETATM    8  C   UNL     2      -7.010   8.948  67.734  1.00  0.00    -0.075 C  
BRANCH   8   9
HETATM    9  C   UNL     2      -7.982   9.393  66.657  1.00  0.00    -0.108 C  
HETATM   10  O   UNL     2      -7.111   8.186  64.866  1.00  0.00    -0.075 OA 
HETATM   11  O   UNL     2      -6.669  10.437  65.035  1.00  0.00    -0.122 OA 
HETATM   12  C   UNL     2      -7.176   9.335  65.371  1.00  0.00    -0.090 C  
ENDBRANCH   8   9
ENDBRANCH   3   8
BRANCH   5  13
HETATM   13  C   UNL     3     -10.830  11.256  69.103  1.00  0.00    -0.269 C  
BRANCH  13  14
HETATM   14  C   UNL     3     -12.036  12.062  68.675  1.00  0.00    -0.290 C  
HETATM   15  C   UNL     3     -11.651  12.785  67.399  1.00  0.00    -0.356 C  
HETATM   16  O   UNL     3     -12.117  12.272  66.353  1.00  0.00    -0.623 OA 
HETATM   17  O   UNL     3     -10.933  13.803  67.595  1.00  0.00    -0.257 OA 
ENDBRANCH  13  14
ENDBRANCH   5  13
TORSDOF 4
ENDMDL
MODEL      224
REMARK 921   NORMALIZED FREE ENERGY PREDICTED BY IDOCK:   -2.83 KCAL/MOL
REMARK 922        TOTAL FREE ENERGY PREDICTED BY IDOCK:   -3.86 KCAL/MOL
REMARK 923 INTER-LIGAND FREE ENERGY PREDICTED BY IDOCK:   -3.27 KCAL/MOL
REMARK 924 INTRA-LIGAND FREE ENERGY PREDICTED BY IDOCK:   -0.59 KCAL/MOL
REMARK 927      BINDING AFFINITY PREDICTED BY RF-SCORE:    0.00 PKD
ROOT
HETATM    1 CA   UNL     1      -8.292  13.025  69.148  1.00  0.00    -0.286 Ca 
HETATM    2  C   UNL     2      -5.431  10.429  70.695  1.00  0.00    -0.081 C  
HETATM    3  C   UNL     2      -6.812  10.205  70.152  1.00  0.00    -0.146 C  
HETATM    4  C   UNL     3     -11.023  12.040  66.712  1.00  0.00    -0.329 C  
HETATM    5  C   UNL     3     -10.890  11.465  68.086  1.00  0.00    -0.213 C  
HETATM    6  O   UNL     3     -10.184  12.079  68.911  1.00  0.00    -0.169 OA 
HETATM    7  O   UNL     2      -7.363  11.143  69.552  1.00  0.00    -0.108 OA 
ENDROOT
BRANCH   3   8
HETATM    8  C   UNL     2      -7.479   8.874  70.369  1.00  0.00    -0.081 C  
BRANCH   8   9
HETATM    9  C   UNL     2      -6.916   8.175  71.593  1.00  0.00    -0.072 C  
HETATM   10  O   UNL     2      -8.661   6.686  71.991  1.00  0.00    -0.128 OA 
HETATM   11  O   UNL     2      -8.462   8.570  73.295  1.00  0.00    -0.372 OA 
HETATM   12  C   UNL     2      -8.141   7.759  72.389  1.00  0.00    -0.120 C  
ENDBRANCH   8   9
ENDBRANCH   3   8
BRANCH   5  13
HETATM   13  C   UNL     3     -11.514  10.121  68.380  1.00  0.00    -0.086 C  
BRANCH  13  14
HETATM   14  C   UNL     3     -10.490   9.228  69.042  1.00  0.00    -0.233 C  
HETATM   15  C   UNL     3     -11.020   8.896  70.422  1.00  0.00    -0.244 C  
HETATM   16  O   UNL     3     -11.509   7.744  70.526  1.00  0.00    -0.271 OA 
HETATM   17  O   UNL     3     -10.871   9.830  71.256  1.00  0.00    -0.334 OA 
ENDBRANCH  13  14
ENDBRANCH   5  13
TORSDOF 4
ENDMDL
MODEL      225
REMARK 921   NORMALIZED FREE ENERGY PREDICTED BY IDOCK:   -2.81 KCAL/MOL
REMARK 922        TOTAL FREE ENERGY PREDICTED BY IDOCK:   -3.83 KCAL/MOL
REMARK 923 INTER-LIGAND FREE ENERGY PREDICTED BY IDOCK:   -3.25 KCAL/MOL
REMARK 924 INTRA-LIGAND FREE ENERGY PREDICTED BY IDOCK:   -0.58 KCAL/MOL
REMARK 927      BINDING AFFINITY PREDICTED BY RF-SCORE:    0.00 PKD
ROOT
HETATM    1 CA   UNL     1     -10.432   5.577  70.626  1.00  0.00    -0.179 Ca 
HETATM    2  C   UNL     2      -6.272   5.496  70.654  1.00  0.00    -0.026 C  
HETATM    3  C   UNL     2      -7.262   6.623  70.664  1.00  0.00    -0.074 C  
HETATM    4  C   UNL     3     -12.555   8.415  71.967  1.00  0.00    -0.400 C  
HETATM    5  C   UNL     3     -11.584   8.566  70.841  1.00  0.00    -0.263 C  
HETATM    6  O   UNL     3     -11.191   7.532  70.265  1.00  0.00    -0.272 OA 
HETATM    7  O   UNL     2      -8.456   6.351  70.872  1.00  0.00    -0.128 OA 
ENDROOT
BRANCH   3   8
HETATM    8  C   UNL     2      -6.780   8.024  70.402  1.00  0.00    -0.037 C  
BRANCH   8   9
HETATM    9  C   UNL     2      -5.916   8.081  69.156  1.00  0.00    -0.038 C  
HETATM   10  O   UNL     2      -6.872   9.944  68.138  1.00  0.00    -0.064 OA 
HETATM   11  O   UNL     2      -7.395   7.841  67.367  1.00  0.00    -0.088 OA 
HETATM   12  C   UNL     2      -6.817   8.689  68.096  1.00  0.00    -0.069 C  
ENDBRANCH   8   9
ENDBRANCH   3   8
BRANCH   5  13
HETATM   13  C   UNL     3     -11.036   9.938  70.526  1.00  0.00    -0.398 C  
BRANCH  13  14
HETATM   14  C   UNL     3     -10.340   9.904  69.185  1.00  0.00    -0.225 C  
HETATM   15  C   UNL     3     -10.712  11.183  68.462  1.00  0.00    -0.201 C  
HETATM   16  O   UNL     3      -9.812  12.059  68.462  1.00  0.00    -0.209 OA 
HETATM   17  O   UNL     3     -11.869  11.158  67.959  1.00  0.00    -0.582 OA 
ENDBRANCH  13  14
ENDBRANCH   5  13
TORSDOF 4
ENDMDL
MODEL      226
REMARK 921   NORMALIZED FREE ENERGY PREDICTED BY IDOCK:   -2.79 KCAL/MOL
REMARK 922        TOTAL FREE ENERGY PREDICTED BY IDOCK:   -3.80 KCAL/MOL
REMARK 923 INTER-LIGAND FREE ENERGY PREDICTED BY IDOCK:   -3.36 KCAL/MOL
REMARK 924 INTRA-LIGAND FREE ENERGY PREDICTED BY IDOCK:   -0.45 KCAL/MOL
REMARK 927      BINDING AFFINITY PREDICTED BY RF-SCORE:    0.00 PKD
ROOT
HETATM    1 CA   UNL     1     -12.241  12.388  65.720  1.00  0.00    -0.357 Ca 
HETATM    2  C   UNL     2     -10.709   9.191  67.899  1.00  0.00    -0.224 C  
HETATM    3  C   UNL     2     -10.164  10.552  67.581  1.00  0.00    -0.197 C  
HETATM    4  C   UNL     3     -11.264  16.016  66.213  1.00  0.00     0.159 C  
HETATM    5  C   UNL     3     -10.303  14.946  65.803  1.00  0.00    -0.332 C  
HETATM    6  O   UNL     3     -10.771  13.882  65.352  1.00  0.00    -0.298 OA 
HETATM    7  O   UNL     2     -10.936  11.391  67.087  1.00  0.00    -0.255 OA 
ENDROOT
BRANCH   3   8
HETATM    8  C   UNL     2      -8.713  10.842  67.850  1.00  0.00    -0.129 C  
BRANCH   8   9
HETATM    9  C   UNL     2      -8.147  11.802  66.819  1.00  0.00    -0.133 C  
HETATM   10  O   UNL     2      -7.551  10.260  65.179  1.00  0.00    -0.139 OA 
HETATM   11  O   UNL     2      -5.923  11.160  66.532  1.00  0.00    -0.114 OA 
HETATM   12  C   UNL     2      -7.089  10.995  66.089  1.00  0.00    -0.054 C  
ENDBRANCH   8   9
ENDBRANCH   3   8
BRANCH   5  13
HETATM   13  C   UNL     3      -8.828  15.151  66.057  1.00  0.00     0.043 C  
BRANCH  13  14
HETATM   14  C   UNL     3      -8.636  16.371  66.928  1.00  0.00    -0.245 C  
HETATM   15  C   UNL     3      -7.444  17.126  66.373  1.00  0.00    -0.306 C  
HETATM   16  O   UNL     3      -7.743  18.142  65.700  1.00  0.00    -0.532 OA 
HETATM   17  O   UNL     3      -6.335  16.617  66.691  1.00  0.00    -0.244 OA 
ENDBRANCH  13  14
ENDBRANCH   5  13
TORSDOF 4
ENDMDL
MODEL      227
REMARK 921   NORMALIZED FREE ENERGY PREDICTED BY IDOCK:   -2.76 KCAL/MOL
REMARK 922        TOTAL FREE ENERGY PREDICTED BY IDOCK:   -3.77 KCAL/MOL
REMARK 923 INTER-LIGAND FREE ENERGY PREDICTED BY IDOCK:   -3.36 KCAL/MOL
REMARK 924 INTRA-LIGAND FREE ENERGY PREDICTED BY IDOCK:   -0.41 KCAL/MOL
REMARK 927      BINDING AFFINITY PREDICTED BY RF-SCORE:    0.00 PKD
ROOT
HETATM    1 CA   UNL     1     -11.908   6.626  68.440  1.00  0.00    -0.502 Ca 
HETATM    2  C   UNL     2      -9.495   3.560  66.991  1.00  0.00    -0.207 C  
HETATM    3  C   UNL     2      -9.296   5.044  67.089  1.00  0.00    -0.125 C  
HETATM    4  C   UNL     3     -10.641   9.951  69.743  1.00  0.00    -0.296 C  
HETATM    5  C   UNL     3     -10.431   9.475  68.341  1.00  0.00    -0.224 C  
HETATM    6  O   UNL     3     -11.153   8.548  67.924  1.00  0.00     0.072 OA 
HETATM    7  O   UNL     2     -10.102   5.699  67.770  1.00  0.00    -0.146 OA 
ENDROOT
BRANCH   3   8
HETATM    8  C   UNL     2      -8.151   5.681  66.349  1.00  0.00    -0.106 C  
BRANCH   8   9
HETATM    9  C   UNL     2      -8.608   6.915  65.593  1.00  0.00    -0.119 C  
HETATM   10  O   UNL     2      -8.255   6.159  63.419  1.00  0.00    -0.096 OA 
HETATM   11  O   UNL     2      -6.748   7.614  64.370  1.00  0.00    -0.047 OA 
HETATM   12  C   UNL     2      -7.786   6.905  64.316  1.00  0.00    -0.104 C  
ENDBRANCH   8   9
ENDBRANCH   3   8
BRANCH   5  13
HETATM   13  C   UNL     3      -9.289  10.050  67.537  1.00  0.00    -0.162 C  
BRANCH  13  14
HETATM   14  C   UNL     3      -9.601  11.486  67.182  1.00  0.00    -0.189 C  
HETATM   15  C   UNL     3     -10.724  11.454  66.164  1.00  0.00    -0.267 C  
HETATM   16  O   UNL     3     -11.854  11.739  66.630  1.00  0.00    -0.569 OA 
HETATM   17  O   UNL     3     -10.338  11.159  65.000  1.00  0.00    -0.272 OA 
ENDBRANCH  13  14
ENDBRANCH   5  13
TORSDOF 4
ENDMDL
MODEL      228
REMARK 921   NORMALIZED FREE ENERGY PREDICTED BY IDOCK:   -2.75 KCAL/MOL
REMARK 922        TOTAL FREE ENERGY PREDICTED BY IDOCK:   -3.76 KCAL/MOL
REMARK 923 INTER-LIGAND FREE ENERGY PREDICTED BY IDOCK:   -3.11 KCAL/MOL
REMARK 924 INTRA-LIGAND FREE ENERGY PREDICTED BY IDOCK:   -0.64 KCAL/MOL
REMARK 927      BINDING AFFINITY PREDICTED BY RF-SCORE:    0.00 PKD
ROOT
HETATM    1 CA   UNL     1      -6.053   9.166  70.087  1.00  0.00    -0.031 Ca 
HETATM    2  C   UNL     2      -7.365   8.336  73.948  1.00  0.00    -0.198 C  
HETATM    3  C   UNL     2      -7.696   7.732  72.615  1.00  0.00    -0.105 C  
HETATM    4  C   UNL     3      -6.041   6.687  67.221  1.00  0.00    -0.028 C  
HETATM    5  C   UNL     3      -7.281   7.130  67.930  1.00  0.00    -0.091 C  
HETATM    6  O   UNL     3      -7.223   8.170  68.614  1.00  0.00    -0.080 OA 
HETATM    7  O   UNL     2      -6.986   8.036  71.643  1.00  0.00    -0.057 OA 
ENDROOT
BRANCH   3   8
HETATM    8  C   UNL     2      -8.877   6.806  72.503  1.00  0.00    -0.134 C  
BRANCH   8   9
HETATM    9  C   UNL     2      -9.925   7.129  73.552  1.00  0.00    -0.344 C  
HETATM   10  O   UNL     2     -11.808   6.331  72.437  1.00  0.00    -0.291 OA 
HETATM   11  O   UNL     2     -11.411   8.596  72.510  1.00  0.00    -0.340 OA 
HETATM   12  C   UNL     2     -11.194   7.380  72.756  1.00  0.00    -0.332 C  
ENDBRANCH   8   9
ENDBRANCH   3   8
BRANCH   5  13
HETATM   13  C   UNL     3      -8.505   6.246  67.883  1.00  0.00    -0.117 C  
BRANCH  13  14
HETATM   14  C   UNL     3      -9.711   7.082  67.521  1.00  0.00    -0.167 C  
HETATM   15  C   UNL     3     -10.579   7.163  68.762  1.00  0.00    -0.196 C  
HETATM   16  O   UNL     3     -10.501   8.255  69.377  1.00  0.00    -0.220 OA 
HETATM   17  O   UNL     3     -11.256   6.120  68.971  1.00  0.00    -0.383 OA 
ENDBRANCH  13  14
ENDBRANCH   5  13
TORSDOF 4
ENDMDL
MODEL      229
REMARK 921   NORMALIZED FREE ENERGY PREDICTED BY IDOCK:   -2.73 KCAL/MOL
REMARK 922        TOTAL FREE ENERGY PREDICTED BY IDOCK:   -3.74 KCAL/MOL
REMARK 923 INTER-LIGAND FREE ENERGY PREDICTED BY IDOCK:   -3.20 KCAL/MOL
REMARK 924 INTRA-LIGAND FREE ENERGY PREDICTED BY IDOCK:   -0.53 KCAL/MOL
REMARK 927      BINDING AFFINITY PREDICTED BY RF-SCORE:    0.00 PKD
ROOT
HETATM    1 CA   UNL     1      -8.070  11.149  69.438  1.00  0.00    -0.129 Ca 
HETATM    2  C   UNL     2      -7.880   8.455  72.605  1.00  0.00    -0.144 C  
HETATM    3  C   UNL     2      -8.503   8.373  71.242  1.00  0.00    -0.149 C  
HETATM    4  C   UNL     3      -8.516  10.190  65.799  1.00  0.00    -0.153 C  
HETATM    5  C   UNL     3      -9.520   9.889  66.866  1.00  0.00    -0.163 C  
HETATM    6  O   UNL     3      -9.442  10.522  67.937  1.00  0.00    -0.145 OA 
HETATM    7  O   UNL     2      -8.217   9.253  70.414  1.00  0.00    -0.140 OA 
ENDROOT
BRANCH   3   8
HETATM    8  C   UNL     2      -9.459   7.251  70.940  1.00  0.00    -0.159 C  
BRANCH   8   9
HETATM    9  C   UNL     2     -10.388   6.994  72.112  1.00  0.00    -0.214 C  
HETATM   10  O   UNL     2     -12.333   6.503  70.930  1.00  0.00    -0.290 OA 
HETATM   11  O   UNL     2     -12.094   8.572  71.906  1.00  0.00    -0.304 OA 
HETATM   12  C   UNL     2     -11.761   7.397  71.604  1.00  0.00    -0.279 C  
ENDBRANCH   8   9
ENDBRANCH   3   8
BRANCH   5  13
HETATM   13  C   UNL     3     -10.503   8.762  66.648  1.00  0.00    -0.240 C  
BRANCH  13  14
HETATM   14  C   UNL     3     -10.374   7.762  67.774  1.00  0.00    -0.284 C  
HETATM   15  C   UNL     3      -9.404   6.695  67.306  1.00  0.00    -0.132 C  
HETATM   16  O   UNL     3      -8.251   6.794  67.793  1.00  0.00    -0.118 OA 
HETATM   17  O   UNL     3      -9.917   5.863  66.509  1.00  0.00    -0.162 OA 
ENDBRANCH  13  14
ENDBRANCH   5  13
TORSDOF 4
ENDMDL
MODEL      230
REMARK 921   NORMALIZED FREE ENERGY PREDICTED BY IDOCK:   -2.71 KCAL/MOL
REMARK 922        TOTAL FREE ENERGY PREDICTED BY IDOCK:   -3.71 KCAL/MOL
REMARK 923 INTER-LIGAND FREE ENERGY PREDICTED BY IDOCK:   -3.15 KCAL/MOL
REMARK 924 INTRA-LIGAND FREE ENERGY PREDICTED BY IDOCK:   -0.56 KCAL/MOL
REMARK 927      BINDING AFFINITY PREDICTED BY RF-SCORE:    0.00 PKD
ROOT
HETATM    1 CA   UNL     1      -8.255   8.543  72.886  1.00  0.00    -0.126 Ca 
HETATM    2  C   UNL     2      -6.518  11.212  70.206  1.00  0.00    -0.039 C  
HETATM    3  C   UNL     2      -7.666  10.254  70.079  1.00  0.00    -0.074 C  
HETATM    4  C   UNL     3     -11.832   7.306  72.705  1.00  0.00    -0.135 C  
HETATM    5  C   UNL     3     -10.816   7.068  71.633  1.00  0.00    -0.223 C  
HETATM    6  O   UNL     3      -9.613   7.216  71.925  1.00  0.00    -0.151 OA 
HETATM    7  O   UNL     2      -8.110   9.732  71.116  1.00  0.00    -0.153 OA 
ENDROOT
BRANCH   3   8
HETATM    8  C   UNL     2      -8.219   9.948  68.714  1.00  0.00    -0.114 C  
BRANCH   8   9
HETATM    9  C   UNL     2      -8.836  11.183  68.084  1.00  0.00    -0.148 C  
HETATM   10  O   UNL     2     -11.077  10.560  68.191  1.00  0.00    -0.253 OA 
HETATM   11  O   UNL     2      -9.956  10.415  66.187  1.00  0.00    -0.211 OA 
HETATM   12  C   UNL     2     -10.098  10.675  67.410  1.00  0.00    -0.194 C  
ENDBRANCH   8   9
ENDBRANCH   3   8
BRANCH   5  13
HETATM   13  C   UNL     3     -11.289   6.774  70.229  1.00  0.00    -0.404 C  
BRANCH  13  14
HETATM   14  C   UNL     3     -10.180   7.088  69.251  1.00  0.00    -0.193 C  
HETATM   15  C   UNL     3     -10.597   6.512  67.912  1.00  0.00    -0.252 C  
HETATM   16  O   UNL     3     -11.022   7.363  67.093  1.00  0.00    -0.312 OA 
HETATM   17  O   UNL     3     -10.435   5.264  67.829  1.00  0.00    -0.168 OA 
ENDBRANCH  13  14
ENDBRANCH   5  13
TORSDOF 4
ENDMDL
MODEL      231
REMARK 921   NORMALIZED FREE ENERGY PREDICTED BY IDOCK:   -2.69 KCAL/MOL
REMARK 922        TOTAL FREE ENERGY PREDICTED BY IDOCK:   -3.69 KCAL/MOL
REMARK 923 INTER-LIGAND FREE ENERGY PREDICTED BY IDOCK:   -3.20 KCAL/MOL
REMARK 924 INTRA-LIGAND FREE ENERGY PREDICTED BY IDOCK:   -0.49 KCAL/MOL
REMARK 927      BINDING AFFINITY PREDICTED BY RF-SCORE:    0.00 PKD
ROOT
HETATM    1 CA   UNL     1      -6.062  13.564  70.611  1.00  0.00    -0.128 Ca 
HETATM    2  C   UNL     2      -6.576   9.437  70.758  1.00  0.00    -0.096 C  
HETATM    3  C   UNL     2      -7.088  10.488  69.817  1.00  0.00    -0.150 C  
HETATM    4  C   UNL     3      -6.349  15.676  67.478  1.00  0.00    -0.181 C  
HETATM    5  C   UNL     3      -7.474  14.867  68.040  1.00  0.00    -0.126 C  
HETATM    6  O   UNL     3      -7.386  14.486  69.223  1.00  0.00    -0.144 OA 
HETATM    7  O   UNL     2      -6.595  11.626  69.886  1.00  0.00    -0.121 OA 
ENDROOT
BRANCH   3   8
HETATM    8  C   UNL     2      -8.184  10.134  68.848  1.00  0.00    -0.124 C  
BRANCH   8   9
HETATM    9  C   UNL     2      -9.512   9.967  69.563  1.00  0.00    -0.245 C  
HETATM   10  O   UNL     2      -9.441   7.668  69.925  1.00  0.00    -0.161 OA 
HETATM   11  O   UNL     2     -10.751   8.507  68.230  1.00  0.00    -0.154 OA 
HETATM   12  C   UNL     2      -9.960   8.561  69.208  1.00  0.00    -0.195 C  
ENDBRANCH   8   9
ENDBRANCH   3   8
BRANCH   5  13
HETATM   13  C   UNL     3      -8.604  14.453  67.127  1.00  0.00    -0.237 C  
BRANCH  13  14
HETATM   14  C   UNL     3      -9.802  14.057  67.960  1.00  0.00    -0.228 C  
HETATM   15  C   UNL     3     -10.843  15.144  67.781  1.00  0.00    -0.292 C  
HETATM   16  O   UNL     3     -11.781  14.840  67.004  1.00  0.00    -0.368 OA 
HETATM   17  O   UNL     3     -10.607  16.183  68.457  1.00  0.00    -0.256 OA 
ENDBRANCH  13  14
ENDBRANCH   5  13
TORSDOF 4
ENDMDL
MODEL      232
REMARK 921   NORMALIZED FREE ENERGY PREDICTED BY IDOCK:   -2.66 KCAL/MOL
REMARK 922        TOTAL FREE ENERGY PREDICTED BY IDOCK:   -3.65 KCAL/MOL
REMARK 923 INTER-LIGAND FREE ENERGY PREDICTED BY IDOCK:   -3.20 KCAL/MOL
REMARK 924 INTRA-LIGAND FREE ENERGY PREDICTED BY IDOCK:   -0.45 KCAL/MOL
REMARK 927      BINDING AFFINITY PREDICTED BY RF-SCORE:    0.00 PKD
ROOT
HETATM    1 CA   UNL     1      -9.278  14.410  70.824  1.00  0.00     0.113 Ca 
HETATM    2  C   UNL     2     -11.863  16.021  67.989  1.00  0.00     0.146 C  
HETATM    3  C   UNL     2     -10.372  15.861  68.023  1.00  0.00    -0.262 C  
HETATM    4  C   UNL     3      -5.852  12.977  70.069  1.00  0.00    -0.143 C  
HETATM    5  C   UNL     3      -6.231  14.401  69.813  1.00  0.00    -0.139 C  
HETATM    6  O   UNL     3      -7.241  14.850  70.389  1.00  0.00     0.071 OA 
HETATM    7  O   UNL     2      -9.881  15.142  68.909  1.00  0.00    -0.212 OA 
ENDROOT
BRANCH   3   8
HETATM    8  C   UNL     2      -9.533  16.586  67.006  1.00  0.00    -0.249 C  
BRANCH   8   9
HETATM    9  C   UNL     2     -10.400  17.402  66.065  1.00  0.00    -0.309 C  
HETATM   10  O   UNL     2      -8.993  19.236  65.779  1.00  0.00    -0.385 OA 
HETATM   11  O   UNL     2     -10.806  19.408  67.185  1.00  0.00    -0.484 OA 
HETATM   12  C   UNL     2     -10.033  18.845  66.367  1.00  0.00    -0.393 C  
ENDBRANCH   8   9
ENDBRANCH   3   8
BRANCH   5  13
HETATM   13  C   UNL     3      -5.450  15.193  68.790  1.00  0.00    -0.091 C  
BRANCH  13  14
HETATM   14  C   UNL     3      -6.370  15.594  67.660  1.00  0.00    -0.189 C  
HETATM   15  C   UNL     3      -5.888  16.940  67.156  1.00  0.00    -0.172 C  
HETATM   16  O   UNL     3      -5.240  16.889  66.082  1.00  0.00    -0.342 OA 
HETATM   17  O   UNL     3      -6.230  17.905  67.893  1.00  0.00    -0.160 OA 
ENDBRANCH  13  14
ENDBRANCH   5  13
TORSDOF 4
ENDMDL
MODEL      233
REMARK 921   NORMALIZED FREE ENERGY PREDICTED BY IDOCK:   -2.66 KCAL/MOL
REMARK 922        TOTAL FREE ENERGY PREDICTED BY IDOCK:   -3.65 KCAL/MOL
REMARK 923 INTER-LIGAND FREE ENERGY PREDICTED BY IDOCK:   -3.34 KCAL/MOL
REMARK 924 INTRA-LIGAND FREE ENERGY PREDICTED BY IDOCK:   -0.30 KCAL/MOL
REMARK 927      BINDING AFFINITY PREDICTED BY RF-SCORE:    0.00 PKD
ROOT
HETATM    1 CA   UNL     1      -9.514   6.164  64.857  1.00  0.00    -0.367 Ca 
HETATM    2  C   UNL     2      -8.107  10.016  64.149  1.00  0.00    -0.153 C  
HETATM    3  C   UNL     2      -8.478   9.289  65.409  1.00  0.00    -0.145 C  
HETATM    4  C   UNL     3      -9.083   4.260  68.105  1.00  0.00    -0.168 C  
HETATM    5  C   UNL     3      -9.830   5.551  67.993  1.00  0.00    -0.139 C  
HETATM    6  O   UNL     3     -10.195   5.917  66.858  1.00  0.00    -0.169 OA 
HETATM    7  O   UNL     2      -8.664   8.063  65.344  1.00  0.00    -0.147 OA 
ENDROOT
BRANCH   3   8
HETATM    8  C   UNL     2      -8.630  10.069  66.687  1.00  0.00    -0.130 C  
BRANCH   8   9
HETATM    9  C   UNL     2      -7.738  11.297  66.687  1.00  0.00    -0.148 C  
HETATM   10  O   UNL     2      -7.700  11.714  68.978  1.00  0.00    -0.097 OA 
HETATM   11  O   UNL     2      -9.035  13.000  67.616  1.00  0.00    -0.173 OA 
HETATM   12  C   UNL     2      -8.199  12.100  67.891  1.00  0.00    -0.155 C  
ENDBRANCH   8   9
ENDBRANCH   3   8
BRANCH   5  13
HETATM   13  C   UNL     3     -10.009   6.402  69.227  1.00  0.00    -0.178 C  
BRANCH  13  14
HETATM   14  C   UNL     3     -10.789   5.625  70.263  1.00  0.00    -0.336 C  
HETATM   15  C   UNL     3     -11.534   6.640  71.106  1.00  0.00    -0.320 C  
HETATM   16  O   UNL     3     -12.756   6.740  70.837  1.00  0.00    -0.301 OA 
HETATM   17  O   UNL     3     -10.806   7.216  71.961  1.00  0.00    -0.216 OA 
ENDBRANCH  13  14
ENDBRANCH   5  13
TORSDOF 4
ENDMDL
MODEL      234
REMARK 921   NORMALIZED FREE ENERGY PREDICTED BY IDOCK:   -2.64 KCAL/MOL
REMARK 922        TOTAL FREE ENERGY PREDICTED BY IDOCK:   -3.62 KCAL/MOL
REMARK 923 INTER-LIGAND FREE ENERGY PREDICTED BY IDOCK:   -3.16 KCAL/MOL
REMARK 924 INTRA-LIGAND FREE ENERGY PREDICTED BY IDOCK:   -0.46 KCAL/MOL
REMARK 927      BINDING AFFINITY PREDICTED BY RF-SCORE:    0.00 PKD
ROOT
HETATM    1 CA   UNL     1     -11.995   6.958  67.798  1.00  0.00    -0.530 Ca 
HETATM    2  C   UNL     2      -9.730   3.987  69.631  1.00  0.00    -0.245 C  
HETATM    3  C   UNL     2      -9.445   5.426  69.313  1.00  0.00    -0.133 C  
HETATM    4  C   UNL     3     -11.534  10.681  68.338  1.00  0.00    -0.330 C  
HETATM    5  C   UNL     3     -10.479   9.788  67.768  1.00  0.00    -0.246 C  
HETATM    6  O   UNL     3     -10.829   8.676  67.327  1.00  0.00    -0.217 OA 
HETATM    7  O   UNL     2     -10.392   6.144  68.953  1.00  0.00    -0.170 OA 
ENDROOT
BRANCH   3   8
HETATM    8  C   UNL     2      -8.033   5.934  69.420  1.00  0.00    -0.102 C  
BRANCH   8   9
HETATM    9  C   UNL     2      -7.923   7.025  70.470  1.00  0.00    -0.113 C  
HETATM   10  O   UNL     2      -6.419   5.987  71.913  1.00  0.00    -0.050 OA 
HETATM   11  O   UNL     2      -8.653   6.044  72.457  1.00  0.00    -0.120 OA 
HETATM   12  C   UNL     2      -7.632   6.281  71.761  1.00  0.00    -0.096 C  
ENDBRANCH   8   9
ENDBRANCH   3   8
BRANCH   5  13
HETATM   13  C   UNL     3      -9.033  10.217  67.855  1.00  0.00    -0.131 C  
BRANCH  13  14
HETATM   14  C   UNL     3      -8.804  11.391  66.930  1.00  0.00    -0.173 C  
HETATM   15  C   UNL     3      -8.451  10.819  65.571  1.00  0.00    -0.153 C  
HETATM   16  O   UNL     3      -9.388  10.852  64.736  1.00  0.00    -0.210 OA 
HETATM   17  O   UNL     3      -7.260  10.413  65.491  1.00  0.00    -0.144 OA 
ENDBRANCH  13  14
ENDBRANCH   5  13
TORSDOF 4
ENDMDL
MODEL      235
REMARK 921   NORMALIZED FREE ENERGY PREDICTED BY IDOCK:   -2.63 KCAL/MOL
REMARK 922        TOTAL FREE ENERGY PREDICTED BY IDOCK:   -3.61 KCAL/MOL
REMARK 923 INTER-LIGAND FREE ENERGY PREDICTED BY IDOCK:   -3.20 KCAL/MOL
REMARK 924 INTRA-LIGAND FREE ENERGY PREDICTED BY IDOCK:   -0.41 KCAL/MOL
REMARK 927      BINDING AFFINITY PREDICTED BY RF-SCORE:    0.00 PKD
ROOT
HETATM    1 CA   UNL     1     -10.642   4.083  71.659  1.00  0.00    -0.178 Ca 
HETATM    2  C   UNL     2     -12.485   7.802  71.962  1.00  0.00    -0.318 C  
HETATM    3  C   UNL     2     -11.530   7.224  70.959  1.00  0.00    -0.287 C  
HETATM    4  C   UNL     3      -9.407   2.531  68.431  1.00  0.00    -0.259 C  
HETATM    5  C   UNL     3      -8.887   3.819  68.984  1.00  0.00    -0.101 C  
HETATM    6  O   UNL     3      -9.107   4.070  70.186  1.00  0.00    -0.094 OA 
HETATM    7  O   UNL     2     -11.308   6.003  70.999  1.00  0.00    -0.295 OA 
ENDROOT
BRANCH   3   8
HETATM    8  C   UNL     2     -10.867   8.140  69.967  1.00  0.00    -0.233 C  
BRANCH   8   9
HETATM    9  C   UNL     2     -10.573   9.495  70.584  1.00  0.00    -0.374 C  
HETATM   10  O   UNL     2      -8.839  10.163  69.181  1.00  0.00    -0.152 OA 
HETATM   11  O   UNL     2      -8.352   9.383  71.289  1.00  0.00    -0.308 OA 
HETATM   12  C   UNL     2      -9.093   9.716  70.328  1.00  0.00    -0.225 C  
ENDBRANCH   8   9
ENDBRANCH   3   8
BRANCH   5  13
HETATM   13  C   UNL     3      -8.225   4.803  68.048  1.00  0.00    -0.095 C  
BRANCH  13  14
HETATM   14  C   UNL     3      -7.108   4.110  67.302  1.00  0.00    -0.067 C  
HETATM   15  C   UNL     3      -7.317   4.399  65.829  1.00  0.00    -0.080 C  
HETATM   16  O   UNL     3      -6.551   5.276  65.360  1.00  0.00    -0.039 OA 
HETATM   17  O   UNL     3      -8.221   3.696  65.301  1.00  0.00    -0.096 OA 
ENDBRANCH  13  14
ENDBRANCH   5  13
TORSDOF 4
ENDMDL
MODEL      236
REMARK 921   NORMALIZED FREE ENERGY PREDICTED BY IDOCK:   -2.62 KCAL/MOL
REMARK 922        TOTAL FREE ENERGY PREDICTED BY IDOCK:   -3.60 KCAL/MOL
REMARK 923 INTER-LIGAND FREE ENERGY PREDICTED BY IDOCK:   -3.22 KCAL/MOL
REMARK 924 INTRA-LIGAND FREE ENERGY PREDICTED BY IDOCK:   -0.38 KCAL/MOL
REMARK 927      BINDING AFFINITY PREDICTED BY RF-SCORE:    0.00 PKD
ROOT
HETATM    1 CA   UNL     1     -10.747   4.093  71.380  1.00  0.00    -0.148 Ca 
HETATM    2  C   UNL     2     -12.866   7.629  71.954  1.00  0.00    -0.308 C  
HETATM    3  C   UNL     2     -11.812   7.230  70.963  1.00  0.00    -0.318 C  
HETATM    4  C   UNL     3      -9.207   2.997  68.095  1.00  0.00    -0.248 C  
HETATM    5  C   UNL     3      -8.816   4.245  68.820  1.00  0.00    -0.101 C  
HETATM    6  O   UNL     3      -9.127   4.345  70.023  1.00  0.00    -0.089 OA 
HETATM    7  O   UNL     2     -11.507   6.029  70.886  1.00  0.00    -0.284 OA 
ENDROOT
BRANCH   3   8
HETATM    8  C   UNL     2     -11.156   8.293  70.124  1.00  0.00    -0.189 C  
BRANCH   8   9
HETATM    9  C   UNL     2     -10.823   9.517  70.956  1.00  0.00    -0.423 C  
HETATM   10  O   UNL     2     -12.756  10.755  70.566  1.00  0.00    -0.336 OA 
HETATM   11  O   UNL     2     -10.819  11.302  69.452  1.00  0.00    -0.233 OA 
HETATM   12  C   UNL     2     -11.542  10.658  70.257  1.00  0.00    -0.336 C  
ENDBRANCH   8   9
ENDBRANCH   3   8
BRANCH   5  13
HETATM   13  C   UNL     3      -8.170   5.369  68.044  1.00  0.00    -0.099 C  
BRANCH  13  14
HETATM   14  C   UNL     3      -7.076   4.805  67.165  1.00  0.00    -0.072 C  
HETATM   15  C   UNL     3      -5.761   5.081  67.867  1.00  0.00    -0.017 C  
HETATM   16  O   UNL     3      -5.264   4.084  68.445  1.00  0.00    -0.010 OA 
HETATM   17  O   UNL     3      -5.365   6.272  67.743  1.00  0.00    -0.004 OA 
ENDBRANCH  13  14
ENDBRANCH   5  13
TORSDOF 4
ENDMDL
MODEL      237
REMARK 921   NORMALIZED FREE ENERGY PREDICTED BY IDOCK:   -2.57 KCAL/MOL
REMARK 922        TOTAL FREE ENERGY PREDICTED BY IDOCK:   -3.53 KCAL/MOL
REMARK 923 INTER-LIGAND FREE ENERGY PREDICTED BY IDOCK:   -2.98 KCAL/MOL
REMARK 924 INTRA-LIGAND FREE ENERGY PREDICTED BY IDOCK:   -0.55 KCAL/MOL
REMARK 927      BINDING AFFINITY PREDICTED BY RF-SCORE:    0.00 PKD
ROOT
HETATM    1 CA   UNL     1      -7.217   5.436  68.479  1.00  0.00    -0.058 Ca 
HETATM    2  C   UNL     2     -11.145   6.705  67.953  1.00  0.00    -0.310 C  
HETATM    3  C   UNL     2     -10.344   6.373  69.178  1.00  0.00    -0.208 C  
HETATM    4  C   UNL     3      -5.168   5.968  71.622  1.00  0.00    -0.021 C  
HETATM    5  C   UNL     3      -6.437   5.177  71.582  1.00  0.00    -0.032 C  
HETATM    6  O   UNL     3      -6.847   4.787  70.472  1.00  0.00    -0.035 OA 
HETATM    7  O   UNL     2      -9.117   6.228  69.053  1.00  0.00    -0.129 OA 
ENDROOT
BRANCH   3   8
HETATM    8  C   UNL     2     -11.053   6.211  70.495  1.00  0.00    -0.405 C  
BRANCH   8   9
HETATM    9  C   UNL     2     -12.224   7.169  70.608  1.00  0.00    -0.245 C  
HETATM   10  O   UNL     2     -11.049   9.180  70.560  1.00  0.00    -0.242 OA 
HETATM   11  O   UNL     2     -11.843   8.380  72.566  1.00  0.00    -0.391 OA 
HETATM   12  C   UNL     2     -11.654   8.382  71.322  1.00  0.00    -0.283 C  
ENDBRANCH   8   9
ENDBRANCH   3   8
BRANCH   5  13
HETATM   13  C   UNL     3      -7.219   4.985  72.860  1.00  0.00    -0.085 C  
BRANCH  13  14
HETATM   14  C   UNL     3      -8.612   5.543  72.683  1.00  0.00    -0.124 C  
HETATM   15  C   UNL     3      -8.607   6.939  73.275  1.00  0.00    -0.121 C  
HETATM   16  O   UNL     3      -8.557   7.861  72.425  1.00  0.00    -0.121 OA 
HETATM   17  O   UNL     3      -8.669   6.950  74.535  1.00  0.00    -0.167 OA 
ENDBRANCH  13  14
ENDBRANCH   5  13
TORSDOF 4
ENDMDL
MODEL      238
REMARK 921   NORMALIZED FREE ENERGY PREDICTED BY IDOCK:   -2.56 KCAL/MOL
REMARK 922        TOTAL FREE ENERGY PREDICTED BY IDOCK:   -3.53 KCAL/MOL
REMARK 923 INTER-LIGAND FREE ENERGY PREDICTED BY IDOCK:   -2.97 KCAL/MOL
REMARK 924 INTRA-LIGAND FREE ENERGY PREDICTED BY IDOCK:   -0.56 KCAL/MOL
REMARK 927      BINDING AFFINITY PREDICTED BY RF-SCORE:    0.00 PKD
ROOT
HETATM    1 CA   UNL     1      -9.316   8.859  70.718  1.00  0.00    -0.136 Ca 
HETATM    2  C   UNL     2      -8.481   7.154  67.015  1.00  0.00    -0.122 C  
HETATM    3  C   UNL     2      -9.370   6.730  68.146  1.00  0.00    -0.122 C  
HETATM    4  C   UNL     3     -12.493   8.287  72.703  1.00  0.00    -0.217 C  
HETATM    5  C   UNL     3     -11.534   7.199  72.340  1.00  0.00    -0.264 C  
HETATM    6  O   UNL     3     -10.383   7.527  71.989  1.00  0.00    -0.193 OA 
HETATM    7  O   UNL     2      -9.596   7.550  69.052  1.00  0.00    -0.152 OA 
ENDROOT
BRANCH   3   8
HETATM    8  C   UNL     2      -9.934   5.335  68.153  1.00  0.00    -0.209 C  
BRANCH   8   9
HETATM    9  C   UNL     2      -9.084   4.407  69.002  1.00  0.00    -0.180 C  
HETATM   10  O   UNL     2      -7.694   3.566  67.334  1.00  0.00    -0.077 OA 
HETATM   11  O   UNL     2      -9.429   2.275  68.119  1.00  0.00    -0.208 OA 
HETATM   12  C   UNL     2      -8.685   3.288  68.056  1.00  0.00    -0.106 C  
ENDBRANCH   8   9
ENDBRANCH   3   8
BRANCH   5  13
HETATM   13  C   UNL     3     -12.027   5.771  72.304  1.00  0.00    -0.147 C  
BRANCH  13  14
HETATM   14  C   UNL     3     -10.842   4.833  72.297  1.00  0.00    -0.131 C  
HETATM   15  C   UNL     3     -10.780   4.190  73.668  1.00  0.00    -0.238 C  
HETATM   16  O   UNL     3     -11.210   3.012  73.707  1.00  0.00    -0.217 OA 
HETATM   17  O   UNL     3     -10.289   4.942  74.554  1.00  0.00    -0.253 OA 
ENDBRANCH  13  14
ENDBRANCH   5  13
TORSDOF 4
ENDMDL
MODEL      239
REMARK 921   NORMALIZED FREE ENERGY PREDICTED BY IDOCK:   -2.56 KCAL/MOL
REMARK 922        TOTAL FREE ENERGY PREDICTED BY IDOCK:   -3.53 KCAL/MOL
REMARK 923 INTER-LIGAND FREE ENERGY PREDICTED BY IDOCK:   -2.90 KCAL/MOL
REMARK 924 INTRA-LIGAND FREE ENERGY PREDICTED BY IDOCK:   -0.62 KCAL/MOL
REMARK 927      BINDING AFFINITY PREDICTED BY RF-SCORE:    0.00 PKD
ROOT
HETATM    1 CA   UNL     1     -11.926   6.622  67.628  1.00  0.00    -0.569 Ca 
HETATM    2  C   UNL     2      -9.533   3.537  69.069  1.00  0.00    -0.213 C  
HETATM    3  C   UNL     2      -9.228   4.950  68.665  1.00  0.00    -0.120 C  
HETATM    4  C   UNL     3     -11.145  10.314  67.972  1.00  0.00    -0.336 C  
HETATM    5  C   UNL     3     -10.275   9.347  67.234  1.00  0.00    -0.246 C  
HETATM    6  O   UNL     3     -10.771   8.254  66.897  1.00  0.00    -0.299 OA 
HETATM    7  O   UNL     2     -10.182   5.723  68.475  1.00  0.00    -0.160 OA 
ENDROOT
BRANCH   3   8
HETATM    8  C   UNL     2      -7.794   5.368  68.486  1.00  0.00    -0.088 C  
BRANCH   8   9
HETATM    9  C   UNL     2      -7.065   4.429  67.544  1.00  0.00    -0.064 C  
HETATM   10  O   UNL     2      -6.061   6.013  66.162  1.00  0.00    -0.030 OA 
HETATM   11  O   UNL     2      -7.928   4.888  65.425  1.00  0.00    -0.096 OA 
HETATM   12  C   UNL     2      -7.004   5.184  66.227  1.00  0.00    -0.067 C  
ENDBRANCH   8   9
ENDBRANCH   3   8
BRANCH   5  13
HETATM   13  C   UNL     3      -8.817   9.684  67.030  1.00  0.00    -0.142 C  
BRANCH  13  14
HETATM   14  C   UNL     3      -8.580  10.019  65.575  1.00  0.00    -0.162 C  
HETATM   15  C   UNL     3      -7.630   8.971  65.030  1.00  0.00    -0.103 C  
HETATM   16  O   UNL     3      -8.181   8.089  64.327  1.00  0.00    -0.141 OA 
HETATM   17  O   UNL     3      -6.428   9.162  65.360  1.00  0.00    -0.066 OA 
ENDBRANCH  13  14
ENDBRANCH   5  13
TORSDOF 4
ENDMDL
MODEL      240
REMARK 921   NORMALIZED FREE ENERGY PREDICTED BY IDOCK:   -2.54 KCAL/MOL
REMARK 922        TOTAL FREE ENERGY PREDICTED BY IDOCK:   -3.50 KCAL/MOL
REMARK 923 INTER-LIGAND FREE ENERGY PREDICTED BY IDOCK:   -3.09 KCAL/MOL
REMARK 924 INTRA-LIGAND FREE ENERGY PREDICTED BY IDOCK:   -0.41 KCAL/MOL
REMARK 927      BINDING AFFINITY PREDICTED BY RF-SCORE:    0.00 PKD
ROOT
HETATM    1 CA   UNL     1      -7.200   5.156  69.084  1.00  0.00    -0.047 Ca 
HETATM    2  C   UNL     2     -10.553   6.998  67.447  1.00  0.00    -0.372 C  
HETATM    3  C   UNL     2     -10.136   6.731  68.863  1.00  0.00    -0.164 C  
HETATM    4  C   UNL     3      -5.845   5.812  72.561  1.00  0.00    -0.035 C  
HETATM    5  C   UNL     3      -7.209   5.262  72.293  1.00  0.00    -0.091 C  
HETATM    6  O   UNL     3      -7.432   4.778  71.165  1.00  0.00    -0.068 OA 
HETATM    7  O   UNL     2      -8.970   6.352  69.068  1.00  0.00    -0.128 OA 
ENDROOT
BRANCH   3   8
HETATM    8  C   UNL     2     -11.140   6.908  69.969  1.00  0.00    -0.344 C  
BRANCH   8   9
HETATM    9  C   UNL     2     -11.159   8.342  70.465  1.00  0.00    -0.267 C  
HETATM   10  O   UNL     2      -9.301   8.265  71.866  1.00  0.00    -0.172 OA 
HETATM   11  O   UNL     2     -11.411   8.192  72.780  1.00  0.00    -0.397 OA 
HETATM   12  C   UNL     2     -10.558   8.271  71.858  1.00  0.00    -0.282 C  
ENDBRANCH   8   9
ENDBRANCH   3   8
BRANCH   5  13
HETATM   13  C   UNL     3      -8.281   5.417  73.346  1.00  0.00    -0.114 C  
BRANCH  13  14
HETATM   14  C   UNL     3      -9.628   5.099  72.739  1.00  0.00    -0.165 C  
HETATM   15  C   UNL     3     -10.036   3.736  73.263  1.00  0.00    -0.142 C  
HETATM   16  O   UNL     3     -10.898   3.769  74.175  1.00  0.00    -0.208 OA 
HETATM   17  O   UNL     3      -9.453   2.780  72.683  1.00  0.00    -0.096 OA 
ENDBRANCH  13  14
ENDBRANCH   5  13
TORSDOF 4
ENDMDL
MODEL      241
REMARK 921   NORMALIZED FREE ENERGY PREDICTED BY IDOCK:   -2.53 KCAL/MOL
REMARK 922        TOTAL FREE ENERGY PREDICTED BY IDOCK:   -3.49 KCAL/MOL
REMARK 923 INTER-LIGAND FREE ENERGY PREDICTED BY IDOCK:   -2.91 KCAL/MOL
REMARK 924 INTRA-LIGAND FREE ENERGY PREDICTED BY IDOCK:   -0.58 KCAL/MOL
REMARK 927      BINDING AFFINITY PREDICTED BY RF-SCORE:    0.00 PKD
ROOT
HETATM    1 CA   UNL     1     -12.045   6.613  67.571  1.00  0.00    -0.640 Ca 
HETATM    2  C   UNL     2      -9.532   3.440  68.539  1.00  0.00    -0.209 C  
HETATM    3  C   UNL     2      -9.266   4.886  68.235  1.00  0.00    -0.123 C  
HETATM    4  C   UNL     3     -11.251  10.270  68.170  1.00  0.00    -0.294 C  
HETATM    5  C   UNL     3     -10.442   9.379  67.282  1.00  0.00    -0.264 C  
HETATM    6  O   UNL     3     -10.960   8.314  66.894  1.00  0.00    -0.107 OA 
HETATM    7  O   UNL     2     -10.235   5.662  68.192  1.00  0.00    -0.160 OA 
ENDROOT
BRANCH   3   8
HETATM    8  C   UNL     2      -7.853   5.333  67.977  1.00  0.00    -0.091 C  
BRANCH   8   9
HETATM    9  C   UNL     2      -7.424   4.997  66.560  1.00  0.00    -0.087 C  
HETATM   10  O   UNL     2      -6.695   7.106  65.895  1.00  0.00    -0.050 OA 
HETATM   11  O   UNL     2      -8.743   6.340  65.182  1.00  0.00    -0.081 OA 
HETATM   12  C   UNL     2      -7.639   6.284  65.784  1.00  0.00    -0.084 C  
ENDBRANCH   8   9
ENDBRANCH   3   8
BRANCH   5  13
HETATM   13  C   UNL     3      -9.006   9.748  66.990  1.00  0.00    -0.152 C  
BRANCH  13  14
HETATM   14  C   UNL     3      -8.458  10.570  68.134  1.00  0.00    -0.123 C  
HETATM   15  C   UNL     3      -7.915  11.852  67.534  1.00  0.00    -0.155 C  
HETATM   16  O   UNL     3      -8.656  12.852  67.692  1.00  0.00    -0.159 OA 
HETATM   17  O   UNL     3      -6.789  11.711  66.982  1.00  0.00    -0.129 OA 
ENDBRANCH  13  14
ENDBRANCH   5  13
TORSDOF 4
ENDMDL
MODEL      242
REMARK 921   NORMALIZED FREE ENERGY PREDICTED BY IDOCK:   -2.51 KCAL/MOL
REMARK 922        TOTAL FREE ENERGY PREDICTED BY IDOCK:   -3.47 KCAL/MOL
REMARK 923 INTER-LIGAND FREE ENERGY PREDICTED BY IDOCK:   -2.75 KCAL/MOL
REMARK 924 INTRA-LIGAND FREE ENERGY PREDICTED BY IDOCK:   -0.72 KCAL/MOL
REMARK 927      BINDING AFFINITY PREDICTED BY RF-SCORE:    0.00 PKD
ROOT
HETATM    1 CA   UNL     1     -10.184   5.913  70.349  1.00  0.00    -0.160 Ca 
HETATM    2  C   UNL     2      -7.684   2.788  69.207  1.00  0.00    -0.048 C  
HETATM    3  C   UNL     2      -8.142   4.029  68.498  1.00  0.00    -0.075 C  
HETATM    4  C   UNL     3     -10.070   9.418  68.913  1.00  0.00    -0.201 C  
HETATM    5  C   UNL     3     -10.366   8.198  68.101  1.00  0.00    -0.201 C  
HETATM    6  O   UNL     3     -10.704   7.161  68.706  1.00  0.00    -0.212 OA 
HETATM    7  O   UNL     2      -8.720   4.903  69.164  1.00  0.00    -0.087 OA 
ENDROOT
BRANCH   3   8
HETATM    8  C   UNL     2      -7.904   4.157  67.018  1.00  0.00    -0.096 C  
BRANCH   8   9
HETATM    9  C   UNL     2      -8.992   3.455  66.227  1.00  0.00    -0.149 C  
HETATM   10  O   UNL     2      -9.221   4.989  64.489  1.00  0.00    -0.075 OA 
HETATM   11  O   UNL     2     -10.783   4.950  66.178  1.00  0.00    -0.317 OA 
HETATM   12  C   UNL     2      -9.756   4.580  65.551  1.00  0.00    -0.195 C  
ENDBRANCH   8   9
ENDBRANCH   3   8
BRANCH   5  13
HETATM   13  C   UNL     3     -10.133   8.239  66.609  1.00  0.00    -0.351 C  
BRANCH  13  14
HETATM   14  C   UNL     3      -8.653   8.115  66.330  1.00  0.00    -0.157 C  
HETATM   15  C   UNL     3      -8.314   9.157  65.282  1.00  0.00    -0.146 C  
HETATM   16  O   UNL     3      -7.740  10.178  65.735  1.00  0.00    -0.124 OA 
HETATM   17  O   UNL     3      -8.650   8.823  64.113  1.00  0.00    -0.158 OA 
ENDBRANCH  13  14
ENDBRANCH   5  13
TORSDOF 4
ENDMDL
MODEL      243
REMARK 921   NORMALIZED FREE ENERGY PREDICTED BY IDOCK:   -2.48 KCAL/MOL
REMARK 922        TOTAL FREE ENERGY PREDICTED BY IDOCK:   -3.43 KCAL/MOL
REMARK 923 INTER-LIGAND FREE ENERGY PREDICTED BY IDOCK:   -2.94 KCAL/MOL
REMARK 924 INTRA-LIGAND FREE ENERGY PREDICTED BY IDOCK:   -0.49 KCAL/MOL
REMARK 927      BINDING AFFINITY PREDICTED BY RF-SCORE:    0.00 PKD
ROOT
HETATM    1 CA   UNL     1     -11.900   6.955  67.940  1.00  0.00    -0.514 Ca 
HETATM    2  C   UNL     2      -9.420   4.064  69.617  1.00  0.00    -0.262 C  
HETATM    3  C   UNL     2      -9.213   5.517  69.305  1.00  0.00    -0.113 C  
HETATM    4  C   UNL     3     -11.572  10.687  68.507  1.00  0.00    -0.279 C  
HETATM    5  C   UNL     3     -10.509   9.847  67.873  1.00  0.00    -0.236 C  
HETATM    6  O   UNL     3     -10.834   8.726  67.435  1.00  0.00    -0.213 OA 
HETATM    7  O   UNL     2     -10.207   6.197  69.003  1.00  0.00    -0.163 OA 
ENDROOT
BRANCH   3   8
HETATM    8  C   UNL     2      -7.821   6.085  69.349  1.00  0.00    -0.099 C  
BRANCH   8   9
HETATM    9  C   UNL     2      -7.849   7.580  69.607  1.00  0.00    -0.119 C  
HETATM   10  O   UNL     2      -6.214   8.240  68.086  1.00  0.00    -0.048 OA 
HETATM   11  O   UNL     2      -5.696   8.123  70.324  1.00  0.00    -0.023 OA 
HETATM   12  C   UNL     2      -6.434   8.044  69.308  1.00  0.00    -0.036 C  
ENDBRANCH   8   9
ENDBRANCH   3   8
BRANCH   5  13
HETATM   13  C   UNL     3      -9.081  10.338  67.893  1.00  0.00    -0.133 C  
BRANCH  13  14
HETATM   14  C   UNL     3      -9.037  11.725  68.492  1.00  0.00    -0.144 C  
HETATM   15  C   UNL     3      -8.661  12.677  67.374  1.00  0.00    -0.189 C  
HETATM   16  O   UNL     3      -9.623  13.338  66.911  1.00  0.00    -0.234 OA 
HETATM   17  O   UNL     3      -7.431  12.665  67.096  1.00  0.00    -0.134 OA 
ENDBRANCH  13  14
ENDBRANCH   5  13
TORSDOF 4
ENDMDL
MODEL      244
REMARK 921   NORMALIZED FREE ENERGY PREDICTED BY IDOCK:   -2.43 KCAL/MOL
REMARK 922        TOTAL FREE ENERGY PREDICTED BY IDOCK:   -3.36 KCAL/MOL
REMARK 923 INTER-LIGAND FREE ENERGY PREDICTED BY IDOCK:   -2.98 KCAL/MOL
REMARK 924 INTRA-LIGAND FREE ENERGY PREDICTED BY IDOCK:   -0.37 KCAL/MOL
REMARK 927      BINDING AFFINITY PREDICTED BY RF-SCORE:    0.00 PKD
ROOT
HETATM    1 CA   UNL     1     -10.457  10.381  69.058  1.00  0.00    -0.162 Ca 
HETATM    2  C   UNL     2      -9.696   9.914  64.993  1.00  0.00    -0.359 C  
HETATM    3  C   UNL     2      -9.606   8.969  66.154  1.00  0.00    -0.272 C  
HETATM    4  C   UNL     3     -11.405   7.576  71.423  1.00  0.00    -0.284 C  
HETATM    5  C   UNL     3     -10.111   7.629  70.675  1.00  0.00    -0.187 C  
HETATM    6  O   UNL     3      -9.757   8.725  70.197  1.00  0.00    -0.165 OA 
HETATM    7  O   UNL     2     -10.106   9.321  67.236  1.00  0.00    -0.198 OA 
ENDROOT
BRANCH   3   8
HETATM    8  C   UNL     2      -8.903   7.651  65.974  1.00  0.00    -0.186 C  
BRANCH   8   9
HETATM    9  C   UNL     2      -7.400   7.810  66.119  1.00  0.00    -0.078 C  
HETATM   10  O   UNL     2      -6.746   6.952  64.055  1.00  0.00    -0.046 OA 
HETATM   11  O   UNL     2      -6.532   5.652  65.940  1.00  0.00    -0.038 OA 
HETATM   12  C   UNL     2      -6.817   6.685  65.281  1.00  0.00    -0.054 C  
ENDBRANCH   8   9
ENDBRANCH   3   8
BRANCH   5  13
HETATM   13  C   UNL     3      -9.352   6.345  70.433  1.00  0.00    -0.169 C  
BRANCH  13  14
HETATM   14  C   UNL     3     -10.335   5.221  70.198  1.00  0.00    -0.354 C  
HETATM   15  C   UNL     3      -9.902   4.517  68.927  1.00  0.00    -0.120 C  
HETATM   16  O   UNL     3      -9.307   3.428  69.115  1.00  0.00    -0.149 OA 
HETATM   17  O   UNL     3     -10.224   5.135  67.875  1.00  0.00    -0.165 OA 
ENDBRANCH  13  14
ENDBRANCH   5  13
TORSDOF 4
ENDMDL
MODEL      245
REMARK 921   NORMALIZED FREE ENERGY PREDICTED BY IDOCK:   -2.37 KCAL/MOL
REMARK 922        TOTAL FREE ENERGY PREDICTED BY IDOCK:   -3.29 KCAL/MOL
REMARK 923 INTER-LIGAND FREE ENERGY PREDICTED BY IDOCK:   -2.79 KCAL/MOL
REMARK 924 INTRA-LIGAND FREE ENERGY PREDICTED BY IDOCK:   -0.50 KCAL/MOL
REMARK 927      BINDING AFFINITY PREDICTED BY RF-SCORE:    0.00 PKD
ROOT
HETATM    1 CA   UNL     1     -12.201   6.614  68.882  1.00  0.00    -0.582 Ca 
HETATM    2  C   UNL     2      -9.998   4.147  71.409  1.00  0.00    -0.223 C  
HETATM    3  C   UNL     2      -9.595   5.109  70.330  1.00  0.00    -0.184 C  
HETATM    4  C   UNL     3     -10.898   9.787  67.272  1.00  0.00    -0.247 C  
HETATM    5  C   UNL     3     -10.316   8.431  67.025  1.00  0.00    -0.315 C  
HETATM    6  O   UNL     3     -11.004   7.436  67.326  1.00  0.00    -0.280 OA 
HETATM    7  O   UNL     2     -10.460   5.880  69.880  1.00  0.00    -0.218 OA 
ENDROOT
BRANCH   3   8
HETATM    8  C   UNL     2      -8.179   5.089  69.822  1.00  0.00    -0.077 C  
BRANCH   8   9
HETATM    9  C   UNL     2      -7.299   6.032  70.621  1.00  0.00    -0.085 C  
HETATM   10  O   UNL     2      -5.703   6.503  68.993  1.00  0.00    -0.015 OA 
HETATM   11  O   UNL     2      -5.199   5.018  70.676  1.00  0.00    -0.004 OA 
HETATM   12  C   UNL     2      -5.910   5.839  70.040  1.00  0.00    -0.024 C  
ENDBRANCH   8   9
ENDBRANCH   3   8
BRANCH   5  13
HETATM   13  C   UNL     3      -8.892   8.325  66.533  1.00  0.00    -0.175 C  
BRANCH  13  14
HETATM   14  C   UNL     3      -7.955   8.850  67.597  1.00  0.00    -0.102 C  
HETATM   15  C   UNL     3      -7.213  10.024  66.991  1.00  0.00    -0.090 C  
HETATM   16  O   UNL     3      -7.629  11.148  67.364  1.00  0.00    -0.103 OA 
HETATM   17  O   UNL     3      -6.279   9.682  66.215  1.00  0.00    -0.065 OA 
ENDBRANCH  13  14
ENDBRANCH   5  13
TORSDOF 4
ENDMDL
MODEL      246
REMARK 921   NORMALIZED FREE ENERGY PREDICTED BY IDOCK:   -2.35 KCAL/MOL
REMARK 922        TOTAL FREE ENERGY PREDICTED BY IDOCK:   -3.27 KCAL/MOL
REMARK 923 INTER-LIGAND FREE ENERGY PREDICTED BY IDOCK:   -2.89 KCAL/MOL
REMARK 924 INTRA-LIGAND FREE ENERGY PREDICTED BY IDOCK:   -0.38 KCAL/MOL
REMARK 927      BINDING AFFINITY PREDICTED BY RF-SCORE:    0.00 PKD
ROOT
HETATM    1 CA   UNL     1     -12.329   6.593  68.775  1.00  0.00    -0.552 Ca 
HETATM    2  C   UNL     2     -10.606   4.611  72.004  1.00  0.00    -0.139 C  
HETATM    3  C   UNL     2     -10.029   5.474  70.921  1.00  0.00    -0.199 C  
HETATM    4  C   UNL     3     -10.877   9.659  67.087  1.00  0.00    -0.184 C  
HETATM    5  C   UNL     3     -10.183   8.335  67.143  1.00  0.00    -0.295 C  
HETATM    6  O   UNL     3     -10.866   7.329  67.416  1.00  0.00    -0.274 OA 
HETATM    7  O   UNL     2     -10.813   6.118  70.205  1.00  0.00    -0.268 OA 
ENDROOT
BRANCH   3   8
HETATM    8  C   UNL     2      -8.537   5.512  70.731  1.00  0.00    -0.128 C  
BRANCH   8   9
HETATM    9  C   UNL     2      -7.905   6.597  71.583  1.00  0.00    -0.102 C  
HETATM   10  O   UNL     2      -5.956   5.482  72.201  1.00  0.00    -0.028 OA 
HETATM   11  O   UNL     2      -7.684   5.663  73.710  1.00  0.00    -0.100 OA 
HETATM   12  C   UNL     2      -7.087   5.842  72.616  1.00  0.00    -0.085 C  
ENDBRANCH   8   9
ENDBRANCH   3   8
BRANCH   5  13
HETATM   13  C   UNL     3      -8.682   8.290  66.982  1.00  0.00    -0.132 C  
BRANCH  13  14
HETATM   14  C   UNL     3      -8.288   9.062  65.744  1.00  0.00    -0.133 C  
HETATM   15  C   UNL     3      -7.436   8.136  64.899  1.00  0.00    -0.092 C  
HETATM   16  O   UNL     3      -8.034   7.637  63.914  1.00  0.00    -0.131 OA 
HETATM   17  O   UNL     3      -6.250   8.027  65.313  1.00  0.00    -0.044 OA 
ENDBRANCH  13  14
ENDBRANCH   5  13
TORSDOF 4
ENDMDL
MODEL      247
REMARK 921   NORMALIZED FREE ENERGY PREDICTED BY IDOCK:   -2.22 KCAL/MOL
REMARK 922        TOTAL FREE ENERGY PREDICTED BY IDOCK:   -3.11 KCAL/MOL
REMARK 923 INTER-LIGAND FREE ENERGY PREDICTED BY IDOCK:   -2.79 KCAL/MOL
REMARK 924 INTRA-LIGAND FREE ENERGY PREDICTED BY IDOCK:   -0.32 KCAL/MOL
REMARK 927      BINDING AFFINITY PREDICTED BY RF-SCORE:    0.00 PKD
ROOT
HETATM    1 CA   UNL     1     -10.431   6.084  70.496  1.00  0.00    -0.175 Ca 
HETATM    2  C   UNL     2      -7.145   3.820  69.314  1.00  0.00    -0.046 C  
HETATM    3  C   UNL     2      -7.627   5.185  68.921  1.00  0.00    -0.081 C  
HETATM    4  C   UNL     3     -10.626   9.866  70.348  1.00  0.00    -0.364 C  
HETATM    5  C   UNL     3     -10.439   8.997  69.145  1.00  0.00    -0.225 C  
HETATM    6  O   UNL     3     -10.718   7.786  69.250  1.00  0.00    -0.216 OA 
HETATM    7  O   UNL     2      -8.528   5.706  69.599  1.00  0.00    -0.108 OA 
ENDROOT
BRANCH   3   8
HETATM    8  C   UNL     2      -7.023   5.857  67.718  1.00  0.00    -0.069 C  
BRANCH   8   9
HETATM    9  C   UNL     2      -7.115   4.968  66.492  1.00  0.00    -0.069 C  
HETATM   10  O   UNL     2      -6.587   6.545  64.862  1.00  0.00    -0.040 OA 
HETATM   11  O   UNL     2      -8.780   5.918  65.162  1.00  0.00    -0.129 OA 
HETATM   12  C   UNL     2      -7.540   5.904  65.374  1.00  0.00    -0.085 C  
ENDBRANCH   8   9
ENDBRANCH   3   8
BRANCH   5  13
HETATM   13  C   UNL     3      -9.820   9.591  67.902  1.00  0.00    -0.186 C  
BRANCH  13  14
HETATM   14  C   UNL     3     -10.747  10.642  67.335  1.00  0.00    -0.326 C  
HETATM   15  C   UNL     3      -9.941  11.448  66.336  1.00  0.00    -0.214 C  
HETATM   16  O   UNL     3     -10.173  11.163  65.135  1.00  0.00    -0.259 OA 
HETATM   17  O   UNL     3      -9.172  12.291  66.872  1.00  0.00    -0.197 OA 
ENDBRANCH  13  14
ENDBRANCH   5  13
TORSDOF 4
ENDMDL
MODEL      248
REMARK 921   NORMALIZED FREE ENERGY PREDICTED BY IDOCK:   -2.15 KCAL/MOL
REMARK 922        TOTAL FREE ENERGY PREDICTED BY IDOCK:   -3.02 KCAL/MOL
REMARK 923 INTER-LIGAND FREE ENERGY PREDICTED BY IDOCK:   -2.60 KCAL/MOL
REMARK 924 INTRA-LIGAND FREE ENERGY PREDICTED BY IDOCK:   -0.41 KCAL/MOL
REMARK 927      BINDING AFFINITY PREDICTED BY RF-SCORE:    0.00 PKD
ROOT
HETATM    1 CA   UNL     1      -6.178   9.171  66.350  1.00  0.00    -0.053 Ca 
HETATM    2  C   UNL     2      -7.839   6.315  63.820  1.00  0.00    -0.111 C  
HETATM    3  C   UNL     2      -8.122   6.692  65.244  1.00  0.00    -0.130 C  
HETATM    4  C   UNL     3      -7.946  10.731  69.317  1.00  0.00    -0.110 C  
HETATM    5  C   UNL     3      -7.657   9.268  69.198  1.00  0.00    -0.073 C  
HETATM    6  O   UNL     3      -6.799   8.908  68.368  1.00  0.00    -0.063 OA 
HETATM    7  O   UNL     2      -7.617   7.738  65.684  1.00  0.00    -0.078 OA 
ENDROOT
BRANCH   3   8
HETATM    8  C   UNL     2      -8.981   5.787  66.085  1.00  0.00    -0.154 C  
BRANCH   8   9
HETATM    9  C   UNL     2      -8.159   4.668  66.698  1.00  0.00    -0.103 C  
HETATM   10  O   UNL     2      -9.106   2.865  65.567  1.00  0.00    -0.145 OA 
HETATM   11  O   UNL     2      -9.705   3.272  67.751  1.00  0.00    -0.152 OA 
HETATM   12  C   UNL     2      -9.082   3.462  66.673  1.00  0.00    -0.164 C  
ENDBRANCH   8   9
ENDBRANCH   3   8
BRANCH   5  13
HETATM   13  C   UNL     3      -8.489   8.291  69.994  1.00  0.00    -0.123 C  
BRANCH  13  14
HETATM   14  C   UNL     3      -8.672   8.820  71.399  1.00  0.00    -0.278 C  
HETATM   15  C   UNL     3     -10.145   8.683  71.733  1.00  0.00    -0.310 C  
HETATM   16  O   UNL     3     -10.417   7.716  72.486  1.00  0.00    -0.224 OA 
HETATM   17  O   UNL     3     -10.864   9.578  71.210  1.00  0.00    -0.332 OA 
ENDBRANCH  13  14
ENDBRANCH   5  13
TORSDOF 4
ENDMDL
MODEL      249
REMARK 921   NORMALIZED FREE ENERGY PREDICTED BY IDOCK:   -1.98 KCAL/MOL
REMARK 922        TOTAL FREE ENERGY PREDICTED BY IDOCK:   -2.81 KCAL/MOL
REMARK 923 INTER-LIGAND FREE ENERGY PREDICTED BY IDOCK:   -2.45 KCAL/MOL
REMARK 924 INTRA-LIGAND FREE ENERGY PREDICTED BY IDOCK:   -0.37 KCAL/MOL
REMARK 927      BINDING AFFINITY PREDICTED BY RF-SCORE:    0.00 PKD
ROOT
HETATM    1 CA   UNL     1      -5.919   9.570  66.532  1.00  0.00    -0.050 Ca 
HETATM    2  C   UNL     2      -6.753   7.461  63.042  1.00  0.00    -0.058 C  
HETATM    3  C   UNL     2      -7.374   7.443  64.408  1.00  0.00    -0.085 C  
HETATM    4  C   UNL     3      -8.416  10.262  69.297  1.00  0.00    -0.172 C  
HETATM    5  C   UNL     3      -7.997   8.888  68.881  1.00  0.00    -0.104 C  
HETATM    6  O   UNL     3      -6.951   8.772  68.213  1.00  0.00    -0.071 OA 
HETATM    7  O   UNL     2      -7.060   8.343  65.206  1.00  0.00    -0.073 OA 
ENDROOT
BRANCH   3   8
HETATM    8  C   UNL     2      -8.327   6.335  64.766  1.00  0.00    -0.051 C  
BRANCH   8   9
HETATM    9  C   UNL     2      -7.764   4.982  64.374  1.00  0.00    -0.085 C  
HETATM   10  O   UNL     2      -9.107   4.556  62.520  1.00  0.00    -0.122 OA 
HETATM   11  O   UNL     2      -9.561   3.501  64.513  1.00  0.00    -0.149 OA 
HETATM   12  C   UNL     2      -8.931   4.257  63.728  1.00  0.00    -0.138 C  
ENDBRANCH   8   9
ENDBRANCH   3   8
BRANCH   5  13
HETATM   13  C   UNL     3      -8.909   7.722  69.186  1.00  0.00    -0.138 C  
BRANCH  13  14
HETATM   14  C   UNL     3     -10.347   8.186  69.135  1.00  0.00    -0.228 C  
HETATM   15  C   UNL     3     -11.135   7.281  70.061  1.00  0.00    -0.240 C  
HETATM   16  O   UNL     3     -11.423   7.798  71.169  1.00  0.00    -0.266 OA 
HETATM   17  O   UNL     3     -11.391   6.151  69.563  1.00  0.00    -0.418 OA 
ENDBRANCH  13  14
ENDBRANCH   5  13
TORSDOF 4
ENDMDL
MODEL      250
REMARK 921   NORMALIZED FREE ENERGY PREDICTED BY IDOCK:   -1.93 KCAL/MOL
REMARK 922        TOTAL FREE ENERGY PREDICTED BY IDOCK:   -2.75 KCAL/MOL
REMARK 923 INTER-LIGAND FREE ENERGY PREDICTED BY IDOCK:   -2.08 KCAL/MOL
REMARK 924 INTRA-LIGAND FREE ENERGY PREDICTED BY IDOCK:   -0.67 KCAL/MOL
REMARK 927      BINDING AFFINITY PREDICTED BY RF-SCORE:    0.00 PKD
ROOT
HETATM    1 CA   UNL     1      -9.177   9.334  69.335  1.00  0.00    -0.131 Ca 
HETATM    2  C   UNL     2      -7.247  10.780  65.943  1.00  0.00    -0.091 C  
HETATM    3  C   UNL     2      -7.674   9.402  66.354  1.00  0.00    -0.097 C  
HETATM    4  C   UNL     3     -11.239   6.157  69.468  1.00  0.00    -0.482 C  
HETATM    5  C   UNL     3      -9.782   6.188  69.130  1.00  0.00    -0.139 C  
HETATM    6  O   UNL     3      -9.133   7.208  69.433  1.00  0.00    -0.145 OA 
HETATM    7  O   UNL     2      -8.431   9.291  67.332  1.00  0.00    -0.121 OA 
ENDROOT
BRANCH   3   8
HETATM    8  C   UNL     2      -7.158   8.215  65.586  1.00  0.00    -0.067 C  
BRANCH   8   9
HETATM    9  C   UNL     2      -5.768   7.824  66.054  1.00  0.00    -0.037 C  
HETATM   10  O   UNL     2      -6.104   5.534  66.306  1.00  0.00    -0.028 OA 
HETATM   11  O   UNL     2      -6.071   6.884  68.168  1.00  0.00    -0.030 OA 
HETATM   12  C   UNL     2      -5.993   6.613  66.942  1.00  0.00    -0.021 C  
ENDBRANCH   8   9
ENDBRANCH   3   8
BRANCH   5  13
HETATM   13  C   UNL     3      -9.190   5.042  68.343  1.00  0.00    -0.150 C  
BRANCH  13  14
HETATM   14  C   UNL     3     -10.214   4.534  67.354  1.00  0.00    -0.047 C  
HETATM   15  C   UNL     3      -9.465   4.199  66.078  1.00  0.00    -0.180 C  
HETATM   16  O   UNL     3      -9.267   2.972  65.901  1.00  0.00    -0.152 OA 
HETATM   17  O   UNL     3      -9.173   5.212  65.386  1.00  0.00    -0.159 OA 
ENDBRANCH  13  14
ENDBRANCH   5  13
TORSDOF 4
ENDMDL
MODEL      251
REMARK 921   NORMALIZED FREE ENERGY PREDICTED BY IDOCK:   -1.76 KCAL/MOL
REMARK 922        TOTAL FREE ENERGY PREDICTED BY IDOCK:   -2.54 KCAL/MOL
REMARK 923 INTER-LIGAND FREE ENERGY PREDICTED BY IDOCK:   -2.50 KCAL/MOL
REMARK 924 INTRA-LIGAND FREE ENERGY PREDICTED BY IDOCK:   -0.04 KCAL/MOL
REMARK 927      BINDING AFFINITY PREDICTED BY RF-SCORE:    0.00 PKD
ROOT
HETATM    1 CA   UNL     1      -9.749  17.375  68.743  1.00  0.00    -0.221 Ca 
HETATM    2  C   UNL     2      -5.769  16.175  68.954  1.00  0.00    -0.117 C  
HETATM    3  C   UNL     2      -7.059  15.452  69.208  1.00  0.00    -0.179 C  
HETATM    4  C   UNL     3     -12.685  15.055  68.149  1.00  0.00     1.121 C  
HETATM    5  C   UNL     3     -11.773  14.953  69.329  1.00  0.00    -0.316 C  
HETATM    6  O   UNL     3     -11.062  15.940  69.605  1.00  0.00    -0.269 OA 
HETATM    7  O   UNL     2      -8.117  16.000  68.856  1.00  0.00    -0.189 OA 
ENDROOT
BRANCH   3   8
HETATM    8  C   UNL     2      -7.026  14.113  69.893  1.00  0.00     0.097 C  
BRANCH   8   9
HETATM    9  C   UNL     2      -5.636  13.505  69.837  1.00  0.00    -0.108 C  
HETATM   10  O   UNL     2      -6.229  11.254  69.797  1.00  0.00    -0.093 OA 
HETATM   11  O   UNL     2      -5.462  12.187  71.754  1.00  0.00    -0.379 OA 
HETATM   12  C   UNL     2      -5.780  12.165  70.537  1.00  0.00    -0.160 C  
ENDBRANCH   8   9
ENDBRANCH   3   8
BRANCH   5  13
HETATM   13  C   UNL     3     -11.667  13.636  70.060  1.00  0.00    -0.319 C  
BRANCH  13  14
HETATM   14  C   UNL     3     -12.868  13.466  70.961  1.00  0.00    -0.329 C  
HETATM   15  C   UNL     3     -12.923  14.687  71.858  1.00  0.00    -0.331 C  
HETATM   16  O   UNL     3     -13.788  15.534  71.527  1.00  0.00    -0.495 OA 
HETATM   17  O   UNL     3     -12.095  14.649  72.809  1.00  0.00    -0.215 OA 
ENDBRANCH  13  14
ENDBRANCH   5  13
TORSDOF 4
ENDMDL
MODEL      252
REMARK 921   NORMALIZED FREE ENERGY PREDICTED BY IDOCK:   -1.57 KCAL/MOL
REMARK 922        TOTAL FREE ENERGY PREDICTED BY IDOCK:   -2.30 KCAL/MOL
REMARK 923 INTER-LIGAND FREE ENERGY PREDICTED BY IDOCK:   -1.94 KCAL/MOL
REMARK 924 INTRA-LIGAND FREE ENERGY PREDICTED BY IDOCK:   -0.36 KCAL/MOL
REMARK 927      BINDING AFFINITY PREDICTED BY RF-SCORE:    0.00 PKD
ROOT
HETATM    1 CA   UNL     1      -5.149   9.952  66.462  1.00  0.00    -0.034 Ca 
HETATM    2  C   UNL     2      -8.234   7.887  64.581  1.00  0.00    -0.094 C  
HETATM    3  C   UNL     2      -7.992   8.258  66.014  1.00  0.00    -0.098 C  
HETATM    4  C   UNL     3      -5.476  11.824  69.740  1.00  0.00    -0.082 C  
HETATM    5  C   UNL     3      -5.701  10.353  69.599  1.00  0.00    -0.040 C  
HETATM    6  O   UNL     3      -5.254   9.788  68.581  1.00  0.00    -0.037 OA 
HETATM    7  O   UNL     2      -7.086   9.071  66.263  1.00  0.00    -0.084 OA 
ENDROOT
BRANCH   3   8
HETATM    8  C   UNL     2      -8.831   7.621  67.088  1.00  0.00    -0.129 C  
BRANCH   8   9
HETATM    9  C   UNL     2     -10.293   7.578  66.686  1.00  0.00    -0.252 C  
HETATM   10  O   UNL     2     -11.193   6.781  68.680  1.00  0.00    -0.187 OA 
HETATM   11  O   UNL     2     -10.929   5.344  66.903  1.00  0.00    -0.167 OA 
HETATM   12  C   UNL     2     -10.881   6.446  67.509  1.00  0.00    -0.354 C  
ENDBRANCH   8   9
ENDBRANCH   3   8
BRANCH   5  13
HETATM   13  C   UNL     3      -6.551   9.641  70.626  1.00  0.00    -0.114 C  
BRANCH  13  14
HETATM   14  C   UNL     3      -7.247   8.469  69.973  1.00  0.00    -0.051 C  
HETATM   15  C   UNL     3      -7.225   7.331  70.974  1.00  0.00    -0.073 C  
HETATM   16  O   UNL     3      -8.316   7.141  71.566  1.00  0.00    -0.110 OA 
HETATM   17  O   UNL     3      -6.112   6.742  71.041  1.00  0.00    -0.034 OA 
ENDBRANCH  13  14
ENDBRANCH   5  13
TORSDOF 4
ENDMDL
MODEL      253
REMARK 921   NORMALIZED FREE ENERGY PREDICTED BY IDOCK:   -1.15 KCAL/MOL
REMARK 922        TOTAL FREE ENERGY PREDICTED BY IDOCK:   -1.79 KCAL/MOL
REMARK 923 INTER-LIGAND FREE ENERGY PREDICTED BY IDOCK:   -2.30 KCAL/MOL
REMARK 924 INTRA-LIGAND FREE ENERGY PREDICTED BY IDOCK:    0.51 KCAL/MOL
REMARK 927      BINDING AFFINITY PREDICTED BY RF-SCORE:    0.00 PKD
ROOT
HETATM    1 CA   UNL     1      -9.426  14.246  70.969  1.00  0.00     0.517 Ca 
HETATM    2  C   UNL     2     -11.849  15.892  68.013  1.00  0.00     0.078 C  
HETATM    3  C   UNL     2     -10.367  15.681  68.104  1.00  0.00    -0.246 C  
HETATM    4  C   UNL     3      -6.028  12.682  70.366  1.00  0.00    -0.103 C  
HETATM    5  C   UNL     3      -6.347  14.113  70.071  1.00  0.00    -0.135 C  
HETATM    6  O   UNL     3      -7.361  14.607  70.602  1.00  0.00     0.447 OA 
HETATM    7  O   UNL     2      -9.934  14.962  69.020  1.00  0.00    -0.228 OA 
ENDROOT
BRANCH   3   8
HETATM    8  C   UNL     2      -9.467  16.357  67.106  1.00  0.00    -0.238 C  
BRANCH   8   9
HETATM    9  C   UNL     2     -10.274  17.098  66.057  1.00  0.00    -0.332 C  
HETATM   10  O   UNL     2      -9.022  19.058  65.955  1.00  0.00    -0.456 OA 
HETATM   11  O   UNL     2     -11.013  19.046  67.107  1.00  0.00    -0.433 OA 
HETATM   12  C   UNL     2     -10.089  18.565  66.400  1.00  0.00    -0.405 C  
ENDBRANCH   8   9
ENDBRANCH   3   8
BRANCH   5  13
HETATM   13  C   UNL     3      -5.503  14.858  69.065  1.00  0.00    -0.093 C  
BRANCH  13  14
HETATM   14  C   UNL     3      -6.142  14.752  67.699  1.00  0.00    -0.087 C  
HETATM   15  C   UNL     3      -6.454  13.285  67.471  1.00  0.00    -0.134 C  
HETATM   16  O   UNL     3      -7.663  12.984  67.624  1.00  0.00    -0.134 OA 
HETATM   17  O   UNL     3      -5.445  12.601  67.147  1.00  0.00    -0.314 OA 
ENDBRANCH  13  14
ENDBRANCH   5  13
TORSDOF 4
ENDMDL
MODEL      254
REMARK 921   NORMALIZED FREE ENERGY PREDICTED BY IDOCK:   -0.57 KCAL/MOL
REMARK 922        TOTAL FREE ENERGY PREDICTED BY IDOCK:   -1.06 KCAL/MOL
REMARK 923 INTER-LIGAND FREE ENERGY PREDICTED BY IDOCK:   -2.83 KCAL/MOL
REMARK 924 INTRA-LIGAND FREE ENERGY PREDICTED BY IDOCK:    1.76 KCAL/MOL
REMARK 927      BINDING AFFINITY PREDICTED BY RF-SCORE:    0.00 PKD
ROOT
HETATM    1 CA   UNL     1     -10.092  20.291  67.403  1.00  0.00    -0.317 Ca 
HETATM    2  C   UNL     2     -11.333  17.145  69.828  1.00  0.00     0.889 C  
HETATM    3  C   UNL     2     -10.110  17.349  68.983  1.00  0.00    -0.295 C  
HETATM    4  C   UNL     3      -6.487  21.054  66.516  1.00  0.00    -0.334 C  
HETATM    5  C   UNL     3      -7.178  19.777  66.155  1.00  0.00    -0.279 C  
HETATM    6  O   UNL     3      -8.425  19.757  66.193  1.00  0.00    -0.355 OA 
HETATM    7  O   UNL     2      -9.895  18.486  68.531  1.00  0.00    -0.344 OA 
ENDROOT
BRANCH   3   8
HETATM    8  C   UNL     2      -9.210  16.178  68.700  1.00  0.00    -0.220 C  
BRANCH   8   9
HETATM    9  C   UNL     2      -7.791  16.635  68.417  1.00  0.00    -0.202 C  
HETATM   10  O   UNL     2      -7.145  14.930  66.969  1.00  0.00    -0.167 OA 
HETATM   11  O   UNL     2      -6.422  14.894  69.153  1.00  0.00    -0.101 OA 
HETATM   12  C   UNL     2      -7.025  15.352  68.147  1.00  0.00    -0.124 C  
ENDBRANCH   8   9
ENDBRANCH   3   8
BRANCH   5  13
HETATM   13  C   UNL     3      -6.346  18.548  65.877  1.00  0.00    -0.273 C  
BRANCH  13  14
HETATM   14  C   UNL     3      -5.147  18.936  65.041  1.00  0.00    -0.195 C  
HETATM   15  C   UNL     3      -5.625  19.964  64.035  1.00  0.00    -0.243 C  
HETATM   16  O   UNL     3      -5.313  21.147  64.316  1.00  0.00    -0.207 OA 
HETATM   17  O   UNL     3      -6.250  19.462  63.061  1.00  0.00    -0.058 OA 
ENDBRANCH  13  14
ENDBRANCH   5  13
TORSDOF 4
ENDMDL
MODEL      255
REMARK 921   NORMALIZED FREE ENERGY PREDICTED BY IDOCK:   -0.55 KCAL/MOL
REMARK 922        TOTAL FREE ENERGY PREDICTED BY IDOCK:   -1.05 KCAL/MOL
REMARK 923 INTER-LIGAND FREE ENERGY PREDICTED BY IDOCK:   -3.47 KCAL/MOL
REMARK 924 INTRA-LIGAND FREE ENERGY PREDICTED BY IDOCK:    2.41 KCAL/MOL
REMARK 927      BINDING AFFINITY PREDICTED BY RF-SCORE:    0.00 PKD
ROOT
HETATM    1 CA   UNL     1     -10.893   9.889  69.128  1.00  0.00    -0.182 Ca 
HETATM    2  C   UNL     2      -7.326   8.179  67.832  1.00  0.00    -0.096 C  
HETATM    3  C   UNL     2      -8.043   9.440  67.447  1.00  0.00    -0.110 C  
HETATM    4  C   UNL     3     -11.715  13.584  68.956  1.00  0.00    -0.370 C  
HETATM    5  C   UNL     3     -11.435  12.739  67.754  1.00  0.00    -0.326 C  
HETATM    6  O   UNL     3     -11.505  11.501  67.881  1.00  0.00    -0.282 OA 
HETATM    7  O   UNL     2      -8.990   9.815  68.158  1.00  0.00    -0.120 OA 
ENDROOT
BRANCH   3   8
HETATM    8  C   UNL     2      -7.606  10.184  66.214  1.00  0.00    -0.111 C  
BRANCH   8   9
HETATM    9  C   UNL     2      -8.716  11.077  65.693  1.00  0.00    -0.162 C  
HETATM   10  O   UNL     2     -10.483   9.566  65.816  1.00  0.00    -0.068 OA 
HETATM   11  O   UNL     2      -9.517  10.014  63.777  1.00  0.00    -0.280 OA 
HETATM   12  C   UNL     2      -9.687  10.123  65.019  1.00  0.00    -0.318 C  
ENDBRANCH   8   9
ENDBRANCH   3   8
BRANCH   5  13
HETATM   13  C   UNL     3     -10.971  13.409  66.482  1.00  0.00    -0.299 C  
BRANCH  13  14
HETATM   14  C   UNL     3      -9.468  13.295  66.376  1.00  0.00    -0.225 C  
HETATM   15  C   UNL     3      -8.886  14.017  67.575  1.00  0.00    -0.199 C  
HETATM   16  O   UNL     3      -8.482  13.258  68.490  1.00  0.00    -0.148 OA 
HETATM   17  O   UNL     3      -8.886  15.272  67.455  1.00  0.00    -0.170 OA 
ENDBRANCH  13  14
ENDBRANCH   5  13
TORSDOF 4
ENDMDL
MODEL      256
REMARK 921   NORMALIZED FREE ENERGY PREDICTED BY IDOCK:    0.39 KCAL/MOL
REMARK 922        TOTAL FREE ENERGY PREDICTED BY IDOCK:    0.11 KCAL/MOL
REMARK 923 INTER-LIGAND FREE ENERGY PREDICTED BY IDOCK:    0.59 KCAL/MOL
REMARK 924 INTRA-LIGAND FREE ENERGY PREDICTED BY IDOCK:   -0.47 KCAL/MOL
REMARK 927      BINDING AFFINITY PREDICTED BY RF-SCORE:    0.00 PKD
ROOT
HETATM    1 CA   UNL     1      -9.966  14.557  69.594  1.00  0.00    -0.236 Ca 
HETATM    2  C   UNL     2     -11.799  16.945  66.720  1.00  0.00     1.879 C  
HETATM    3  C   UNL     2     -11.664  15.458  66.863  1.00  0.00     0.114 C  
HETATM    4  C   UNL     3     -10.922  10.973  70.366  1.00  0.00     0.193 C  
HETATM    5  C   UNL     3     -10.420  11.429  69.033  1.00  0.00    -0.168 C  
HETATM    6  O   UNL     3      -9.830  12.526  68.975  1.00  0.00     0.066 OA 
HETATM    7  O   UNL     2     -11.248  15.010  67.945  1.00  0.00    -0.298 OA 
ENDROOT
BRANCH   3   8
HETATM    8  C   UNL     2     -12.015  14.574  65.697  1.00  0.00    -0.311 C  
BRANCH   8   9
HETATM    9  C   UNL     2     -11.098  14.838  64.517  1.00  0.00    -0.260 C  
HETATM   10  O   UNL     2     -10.031  12.770  64.419  1.00  0.00    -0.261 OA 
HETATM   11  O   UNL     2      -8.933  14.568  65.344  1.00  0.00     0.665 OA 
HETATM   12  C   UNL     2      -9.882  13.966  64.778  1.00  0.00     0.110 C  
ENDBRANCH   8   9
ENDBRANCH   3   8
BRANCH   5  13
HETATM   13  C   UNL     3     -10.747  10.608  67.809  1.00  0.00    -0.302 C  
BRANCH  13  14
HETATM   14  C   UNL     3      -9.801   9.432  67.728  1.00  0.00    -0.207 C  
HETATM   15  C   UNL     3      -8.739   9.790  66.707  1.00  0.00    -0.131 C  
HETATM   16  O   UNL     3      -7.639  10.135  67.204  1.00  0.00    -0.091 OA 
HETATM   17  O   UNL     3      -9.128   9.669  65.514  1.00  0.00    -0.174 OA 
ENDBRANCH  13  14
ENDBRANCH   5  13
TORSDOF 4
ENDMDL
MODEL      257
REMARK 921   NORMALIZED FREE ENERGY PREDICTED BY IDOCK:    3.01 KCAL/MOL
REMARK 922        TOTAL FREE ENERGY PREDICTED BY IDOCK:    3.35 KCAL/MOL
REMARK 923 INTER-LIGAND FREE ENERGY PREDICTED BY IDOCK:    3.12 KCAL/MOL
REMARK 924 INTRA-LIGAND FREE ENERGY PREDICTED BY IDOCK:    0.22 KCAL/MOL
REMARK 927      BINDING AFFINITY PREDICTED BY RF-SCORE:    0.00 PKD
ROOT
HETATM    1 CA   UNL     1      -7.573  13.732  70.883  1.00  0.00     0.151 Ca 
HETATM    2  C   UNL     2      -5.768  11.161  68.153  1.00  0.00    -0.045 C  
HETATM    3  C   UNL     2      -7.022  11.983  68.093  1.00  0.00    -0.079 C  
HETATM    4  C   UNL     3      -9.900  16.579  69.970  1.00  0.00     0.514 C  
HETATM    5  C   UNL     3     -10.187  15.143  69.667  1.00  0.00    -0.208 C  
HETATM    6  O   UNL     3      -9.542  14.275  70.287  1.00  0.00     1.156 OA 
HETATM    7  O   UNL     2      -7.207  12.834  68.979  1.00  0.00    -0.076 OA 
ENDROOT
BRANCH   3   8
HETATM    8  C   UNL     2      -8.008  11.735  66.984  1.00  0.00    -0.164 C  
BRANCH   8   9
HETATM    9  C   UNL     2      -9.031  10.690  67.387  1.00  0.00    -0.138 C  
HETATM   10  O   UNL     2      -7.727   8.781  67.106  1.00  0.00    -0.094 OA 
HETATM   11  O   UNL     2      -9.293   9.327  65.512  1.00  0.00    -0.227 OA 
HETATM   12  C   UNL     2      -8.651   9.457  66.586  1.00  0.00    -0.130 C  
ENDBRANCH   8   9
ENDBRANCH   3   8
BRANCH   5  13
HETATM   13  C   UNL     3     -11.152  14.810  68.553  1.00  0.00    -0.275 C  
BRANCH  13  14
HETATM   14  C   UNL     3     -12.274  13.959  69.103  1.00  0.00    -0.305 C  
HETATM   15  C   UNL     3     -13.136  14.866  69.958  1.00  0.00     0.155 C  
HETATM   16  O   UNL     3     -14.208  15.226  69.413  1.00  0.00     3.201 OA 
HETATM   17  O   UNL     3     -12.644  15.103  71.095  1.00  0.00    -0.310 OA 
ENDBRANCH  13  14
ENDBRANCH   5  13
TORSDOF 4
ENDMDL
MODEL      258
REMARK 921   NORMALIZED FREE ENERGY PREDICTED BY IDOCK:   10.39 KCAL/MOL
REMARK 922        TOTAL FREE ENERGY PREDICTED BY IDOCK:   12.45 KCAL/MOL
REMARK 923 INTER-LIGAND FREE ENERGY PREDICTED BY IDOCK:   10.16 KCAL/MOL
REMARK 924 INTRA-LIGAND FREE ENERGY PREDICTED BY IDOCK:    2.30 KCAL/MOL
REMARK 927      BINDING AFFINITY PREDICTED BY RF-SCORE:    0.00 PKD
ROOT
HETATM    1 CA   UNL     1      -8.847  21.014  68.968  1.00  0.00     0.551 Ca 
HETATM    2  C   UNL     2     -10.154  18.382  71.915  1.00  0.00     5.113 C  
HETATM    3  C   UNL     2     -10.041  18.256  70.424  1.00  0.00     1.824 C  
HETATM    4  C   UNL     3      -7.460  19.979  65.597  1.00  0.00    -0.275 C  
HETATM    5  C   UNL     3      -8.848  19.663  66.056  1.00  0.00    -0.246 C  
HETATM    6  O   UNL     3      -9.310  20.316  67.012  1.00  0.00    -0.367 OA 
HETATM    7  O   UNL     2      -9.408  19.131  69.810  1.00  0.00     0.273 OA 
ENDROOT
BRANCH   3   8
HETATM    8  C   UNL     2     -10.708  17.099  69.733  1.00  0.00     0.153 C  
BRANCH   8   9
HETATM    9  C   UNL     2      -9.686  16.199  69.063  1.00  0.00    -0.248 C  
HETATM   10  O   UNL     2      -8.310  15.788  70.896  1.00  0.00     2.158 OA 
HETATM   11  O   UNL     2      -7.644  17.303  69.299  1.00  0.00    -0.155 OA 
HETATM   12  C   UNL     2      -8.400  16.449  69.830  1.00  0.00     0.942 C  
ENDBRANCH   8   9
ENDBRANCH   3   8
BRANCH   5  13
HETATM   13  C   UNL     3      -9.580  18.501  65.426  1.00  0.00     1.215 C  
BRANCH  13  14
HETATM   14  C   UNL     3      -9.048  17.207  65.996  1.00  0.00    -0.140 C  
HETATM   15  C   UNL     3     -10.110  16.151  65.757  1.00  0.00    -0.363 C  
HETATM   16  O   UNL     3      -9.860  15.373  64.804  1.00  0.00    -0.153 OA 
HETATM   17  O   UNL     3     -11.073  16.214  66.568  1.00  0.00    -0.125 OA 
ENDBRANCH  13  14
ENDBRANCH   5  13
TORSDOF 4
ENDMDL
MODEL      259
REMARK 921   NORMALIZED FREE ENERGY PREDICTED BY IDOCK:   10.48 KCAL/MOL
REMARK 922        TOTAL FREE ENERGY PREDICTED BY IDOCK:   12.56 KCAL/MOL
REMARK 923 INTER-LIGAND FREE ENERGY PREDICTED BY IDOCK:   12.93 KCAL/MOL
REMARK 924 INTRA-LIGAND FREE ENERGY PREDICTED BY IDOCK:   -0.36 KCAL/MOL
REMARK 927      BINDING AFFINITY PREDICTED BY RF-SCORE:    0.00 PKD
ROOT
HETATM    1 CA   UNL     1      -9.433  16.253  69.802  1.00  0.00    -0.229 Ca 
HETATM    2  C   UNL     2     -10.483  19.959  68.228  1.00  0.00    -0.436 C  
HETATM    3  C   UNL     2      -9.938  18.711  67.599  1.00  0.00    -0.341 C  
HETATM    4  C   UNL     3      -9.374  13.005  67.851  1.00  0.00    -0.212 C  
HETATM    5  C   UNL     3      -8.519  14.187  67.522  1.00  0.00    -0.187 C  
HETATM    6  O   UNL     3      -8.368  15.061  68.398  1.00  0.00    -0.142 OA 
HETATM    7  O   UNL     2      -9.921  17.672  68.281  1.00  0.00    -0.300 OA 
ENDROOT
BRANCH   3   8
HETATM    8  C   UNL     2      -9.419  18.767  66.188  1.00  0.00    -0.199 C  
BRANCH   8   9
HETATM    9  C   UNL     2      -8.787  20.114  65.892  1.00  0.00    -0.100 C  
HETATM   10  O   UNL     2      -7.181  19.429  64.351  1.00  0.00     0.509 OA 
HETATM   11  O   UNL     2      -6.549  19.898  66.513  1.00  0.00    -0.190 OA 
HETATM   12  C   UNL     2      -7.345  19.790  65.544  1.00  0.00    -0.206 C  
ENDBRANCH   8   9
ENDBRANCH   3   8
BRANCH   5  13
HETATM   13  C   UNL     3      -7.974  14.327  66.120  1.00  0.00     1.880 C  
BRANCH  13  14
HETATM   14  C   UNL     3      -6.551  13.820  66.083  1.00  0.00     4.971 C  
HETATM   15  C   UNL     3      -5.654  14.998  66.407  1.00  0.00     3.550 C  
HETATM   16  O   UNL     3      -5.204  14.999  67.578  1.00  0.00    -0.327 OA 
HETATM   17  O   UNL     3      -5.490  15.786  65.436  1.00  0.00     4.888 OA 
ENDBRANCH  13  14
ENDBRANCH   5  13
TORSDOF 4
ENDMDL
MODEL      260
REMARK 921   NORMALIZED FREE ENERGY PREDICTED BY IDOCK:   12.64 KCAL/MOL
REMARK 922        TOTAL FREE ENERGY PREDICTED BY IDOCK:   15.23 KCAL/MOL
REMARK 923 INTER-LIGAND FREE ENERGY PREDICTED BY IDOCK:    1.26 KCAL/MOL
REMARK 924 INTRA-LIGAND FREE ENERGY PREDICTED BY IDOCK:   13.98 KCAL/MOL
REMARK 927      BINDING AFFINITY PREDICTED BY RF-SCORE:    0.00 PKD
ROOT
HETATM    1 CA   UNL     1     -10.112  15.462  66.915  1.00  0.00    -0.232 Ca 
HETATM    2  C   UNL     2     -10.861  11.391  66.483  1.00  0.00    -0.334 C  
HETATM    3  C   UNL     2      -9.756  12.150  67.156  1.00  0.00    -0.199 C  
HETATM    4  C   UNL     3      -8.063  17.006  69.704  1.00  0.00     0.736 C  
HETATM    5  C   UNL     3      -7.515  16.027  68.715  1.00  0.00    -0.176 C  
HETATM    6  O   UNL     3      -8.155  15.839  67.662  1.00  0.00    -0.136 OA 
HETATM    7  O   UNL     2      -9.901  13.374  67.318  1.00  0.00    -0.226 OA 
ENDROOT
BRANCH   3   8
HETATM    8  C   UNL     2      -8.516  11.414  67.587  1.00  0.00    -0.130 C  
BRANCH   8   9
HETATM    9  C   UNL     2      -8.456  11.282  69.097  1.00  0.00     0.088 C  
HETATM   10  O   UNL     2      -9.363   9.148  69.309  1.00  0.00    -0.152 OA 
HETATM   11  O   UNL     2     -10.667  10.984  69.779  1.00  0.00    -0.197 OA 
HETATM   12  C   UNL     2      -9.620  10.371  69.445  1.00  0.00    -0.192 C  
ENDBRANCH   8   9
ENDBRANCH   3   8
BRANCH   5  13
HETATM   13  C   UNL     3      -6.283  15.232  69.080  1.00  0.00    -0.103 C  
BRANCH  13  14
HETATM   14  C   UNL     3      -6.686  13.818  69.431  1.00  0.00    -0.079 C  
HETATM   15  C   UNL     3      -8.201  13.792  69.480  1.00  0.00     0.825 C  
HETATM   16  O   UNL     3      -8.742  13.274  68.473  1.00  0.00    -0.151 OA 
HETATM   17  O   UNL     3      -8.679  14.283  70.539  1.00  0.00     1.914 OA 
ENDBRANCH  13  14
ENDBRANCH   5  13
TORSDOF 4
ENDMDL
MODEL      261
REMARK 921   NORMALIZED FREE ENERGY PREDICTED BY IDOCK:   12.76 KCAL/MOL
REMARK 922        TOTAL FREE ENERGY PREDICTED BY IDOCK:   15.38 KCAL/MOL
REMARK 923 INTER-LIGAND FREE ENERGY PREDICTED BY IDOCK:   15.70 KCAL/MOL
REMARK 924 INTRA-LIGAND FREE ENERGY PREDICTED BY IDOCK:   -0.32 KCAL/MOL
REMARK 927      BINDING AFFINITY PREDICTED BY RF-SCORE:    0.00 PKD
ROOT
HETATM    1 CA   UNL     1      -7.541  15.676  70.943  1.00  0.00     0.361 Ca 
HETATM    2  C   UNL     2     -10.415  15.624  73.953  1.00  0.00     5.587 C  
HETATM    3  C   UNL     2     -10.224  14.788  72.722  1.00  0.00     4.352 C  
HETATM    4  C   UNL     3      -6.598  12.701  68.795  1.00  0.00    -0.089 C  
HETATM    5  C   UNL     3      -7.967  13.300  68.826  1.00  0.00     0.034 C  
HETATM    6  O   UNL     3      -8.091  14.450  69.293  1.00  0.00    -0.047 OA 
HETATM    7  O   UNL     2      -9.147  14.884  72.111  1.00  0.00     4.114 OA 
ENDROOT
BRANCH   3   8
HETATM    8  C   UNL     2     -11.341  13.888  72.266  1.00  0.00     2.515 C  
BRANCH   8   9
HETATM    9  C   UNL     2     -12.618  14.169  73.036  1.00  0.00    -0.222 C  
HETATM   10  O   UNL     2     -13.513  12.020  73.046  1.00  0.00     0.747 OA 
HETATM   11  O   UNL     2     -14.352  13.589  71.588  1.00  0.00     0.014 OA 
HETATM   12  C   UNL     2     -13.612  13.151  72.507  1.00  0.00    -0.491 C  
ENDBRANCH   8   9
ENDBRANCH   3   8
BRANCH   5  13
HETATM   13  C   UNL     3      -9.146  12.455  68.403  1.00  0.00    -0.141 C  
BRANCH  13  14
HETATM   14  C   UNL     3      -8.973  12.044  66.959  1.00  0.00    -0.198 C  
HETATM   15  C   UNL     3     -10.275  12.364  66.251  1.00  0.00    -0.238 C  
HETATM   16  O   UNL     3     -10.239  13.402  65.546  1.00  0.00    -0.288 OA 
HETATM   17  O   UNL     3     -11.188  11.522  66.472  1.00  0.00    -0.310 OA 
ENDBRANCH  13  14
ENDBRANCH   5  13
TORSDOF 4
ENDMDL
MODEL      262
REMARK 921   NORMALIZED FREE ENERGY PREDICTED BY IDOCK:   13.93 KCAL/MOL
REMARK 922        TOTAL FREE ENERGY PREDICTED BY IDOCK:   16.82 KCAL/MOL
REMARK 923 INTER-LIGAND FREE ENERGY PREDICTED BY IDOCK:   12.61 KCAL/MOL
REMARK 924 INTRA-LIGAND FREE ENERGY PREDICTED BY IDOCK:    4.21 KCAL/MOL
REMARK 927      BINDING AFFINITY PREDICTED BY RF-SCORE:    0.00 PKD
ROOT
HETATM    1 CA   UNL     1      -9.745  20.344  68.887  1.00  0.00    -0.295 Ca 
HETATM    2  C   UNL     2      -7.806  17.822  71.571  1.00  0.00     9.044 C  
HETATM    3  C   UNL     2      -7.742  17.951  70.077  1.00  0.00     1.651 C  
HETATM    4  C   UNL     3      -8.421  21.303  65.469  1.00  0.00     2.349 C  
HETATM    5  C   UNL     3      -8.741  19.898  65.871  1.00  0.00    -0.131 C  
HETATM    6  O   UNL     3      -9.468  19.728  66.869  1.00  0.00    -0.330 OA 
HETATM    7  O   UNL     2      -8.272  18.945  69.553  1.00  0.00     0.146 OA 
ENDROOT
BRANCH   3   8
HETATM    8  C   UNL     2      -7.064  16.873  69.276  1.00  0.00    -0.192 C  
BRANCH   8   9
HETATM    9  C   UNL     2      -5.557  16.942  69.433  1.00  0.00    -0.164 C  
HETATM   10  O   UNL     2      -5.446  17.196  71.745  1.00  0.00     0.053 OA 
HETATM   11  O   UNL     2      -5.130  19.027  70.389  1.00  0.00    -0.187 OA 
HETATM   12  C   UNL     2      -5.342  17.816  70.656  1.00  0.00    -0.268 C  
ENDBRANCH   8   9
ENDBRANCH   3   8
BRANCH   5  13
HETATM   13  C   UNL     3      -8.085  18.758  65.128  1.00  0.00     1.791 C  
BRANCH  13  14
HETATM   14  C   UNL     3      -6.830  18.342  65.860  1.00  0.00    -0.325 C  
HETATM   15  C   UNL     3      -6.159  19.613  66.342  1.00  0.00    -0.167 C  
HETATM   16  O   UNL     3      -6.317  19.850  67.565  1.00  0.00    -0.198 OA 
HETATM   17  O   UNL     3      -5.531  20.225  65.436  1.00  0.00    -0.165 OA 
ENDBRANCH  13  14
ENDBRANCH   5  13
TORSDOF 4
ENDMDL
MODEL      263
REMARK 921   NORMALIZED FREE ENERGY PREDICTED BY IDOCK:   15.99 KCAL/MOL
REMARK 922        TOTAL FREE ENERGY PREDICTED BY IDOCK:   19.36 KCAL/MOL
REMARK 923 INTER-LIGAND FREE ENERGY PREDICTED BY IDOCK:   15.42 KCAL/MOL
REMARK 924 INTRA-LIGAND FREE ENERGY PREDICTED BY IDOCK:    3.95 KCAL/MOL
REMARK 927      BINDING AFFINITY PREDICTED BY RF-SCORE:    0.00 PKD
ROOT
HETATM    1 CA   UNL     1      -9.664  15.089  72.614  1.00  0.00     0.272 Ca 
HETATM    2  C   UNL     2      -6.163  14.962  70.368  1.00  0.00    -0.127 C  
HETATM    3  C   UNL     2      -7.490  15.622  70.137  1.00  0.00     0.434 C  
HETATM    4  C   UNL     3     -12.266  17.837  72.420  1.00  0.00     4.424 C  
HETATM    5  C   UNL     3     -11.896  16.961  71.266  1.00  0.00     1.032 C  
HETATM    6  O   UNL     3     -11.293  15.897  71.509  1.00  0.00    -0.379 OA 
HETATM    7  O   UNL     2      -8.291  15.675  71.085  1.00  0.00     2.674 OA 
ENDROOT
BRANCH   3   8
HETATM    8  C   UNL     2      -7.807  16.173  68.773  1.00  0.00    -0.203 C  
BRANCH   8   9
HETATM    9  C   UNL     2      -9.216  15.804  68.349  1.00  0.00    -0.192 C  
HETATM   10  O   UNL     2      -9.005  16.147  66.055  1.00  0.00    -0.330 OA 
HETATM   11  O   UNL     2     -10.080  17.723  67.341  1.00  0.00    -0.311 OA 
HETATM   12  C   UNL     2      -9.473  16.645  67.111  1.00  0.00    -0.230 C  
ENDBRANCH   8   9
ENDBRANCH   3   8
BRANCH   5  13
HETATM   13  C   UNL     3     -12.163  17.451  69.862  1.00  0.00     5.016 C  
BRANCH  13  14
HETATM   14  C   UNL     3     -12.386  16.264  68.952  1.00  0.00     0.751 C  
HETATM   15  C   UNL     3     -12.951  15.150  69.812  1.00  0.00     0.212 C  
HETATM   16  O   UNL     3     -14.187  14.976  69.686  1.00  0.00     2.659 OA 
HETATM   17  O   UNL     3     -12.080  14.562  70.509  1.00  0.00    -0.284 OA 
ENDBRANCH  13  14
ENDBRANCH   5  13
TORSDOF 4
ENDMDL
