MODEL        1
REMARK 921   NORMALIZED FREE ENERGY PREDICTED BY IDOCK:   -4.68 KCAL/MOL
REMARK 922        TOTAL FREE ENERGY PREDICTED BY IDOCK:   -5.96 KCAL/MOL
REMARK 923 INTER-LIGAND FREE ENERGY PREDICTED BY IDOCK:   -5.50 KCAL/MOL
REMARK 924 INTRA-LIGAND FREE ENERGY PREDICTED BY IDOCK:   -0.46 KCAL/MOL
REMARK 927      BINDING AFFINITY PREDICTED BY RF-SCORE:    0.00 PKD
ROOT
HETATM    1 CA   UNL     1     -13.581  12.379  64.462  1.00  0.00    -0.698 Ca 
HETATM    2  O   UNL     2     -12.418  13.743  63.284  1.00  0.00    -1.065 OA 
HETATM    3  C   UNL     2     -11.072  13.678  63.848  1.00  0.00     0.042 C  
HETATM    4  H   UNL     2     -12.486  13.240  62.480  1.00  0.00     0.000 HD 
ENDROOT
BRANCH   3   5
HETATM    5  C   UNL     2     -10.961  14.495  65.154  1.00  0.00    -0.379 C  
BRANCH   5   6
HETATM    6  C   UNL     2     -10.837  15.999  64.948  1.00  0.00    -0.372 C  
HETATM    7  H   UNL     2     -11.686  17.408  63.806  1.00  0.00     0.000 HD 
HETATM    8  O   UNL     2     -11.764  16.471  63.934  1.00  0.00    -1.148 OA 
ENDBRANCH   5   6
BRANCH   5   9
HETATM    9  O   UNL     2     -12.095  14.297  65.968  1.00  0.00    -0.405 OA 
HETATM   10  O   UNL     2     -10.400  13.945  67.408  1.00  0.00    -0.249 OA 
HETATM   11  P   UNL     2     -11.830  13.345  67.388  1.00  0.00    -0.325 P  
HETATM   12  O   UNL     2     -12.152  12.173  66.427  1.00  0.00    -0.630 OA 
HETATM   13  O   UNL     2     -11.593  12.492  68.658  1.00  0.00    -0.269 OA 
ENDBRANCH   5   9
ENDBRANCH   3   5
TORSDOF 3
ENDMDL
MODEL        2
REMARK 921   NORMALIZED FREE ENERGY PREDICTED BY IDOCK:   -4.59 KCAL/MOL
REMARK 922        TOTAL FREE ENERGY PREDICTED BY IDOCK:   -5.86 KCAL/MOL
REMARK 923 INTER-LIGAND FREE ENERGY PREDICTED BY IDOCK:   -5.63 KCAL/MOL
REMARK 924 INTRA-LIGAND FREE ENERGY PREDICTED BY IDOCK:   -0.22 KCAL/MOL
REMARK 927      BINDING AFFINITY PREDICTED BY RF-SCORE:    0.00 PKD
ROOT
HETATM    1 CA   UNL     1     -13.124  16.089  63.444  1.00  0.00    -0.626 Ca 
HETATM    2  O   UNL     2     -12.319  14.101  63.489  1.00  0.00    -1.065 OA 
HETATM    3  C   UNL     2     -12.604  13.607  64.834  1.00  0.00    -0.336 C  
HETATM    4  H   UNL     2     -12.928  13.748  62.850  1.00  0.00     0.000 HD 
ENDROOT
BRANCH   3   5
HETATM    5  C   UNL     2     -11.614  14.179  65.873  1.00  0.00    -0.348 C  
BRANCH   5   6
HETATM    6  C   UNL     2     -11.060  13.150  66.850  1.00  0.00    -0.282 C  
HETATM    7  H   UNL     2     -11.600  11.364  67.577  1.00  0.00     0.000 HD 
HETATM    8  O   UNL     2     -11.945  12.005  66.968  1.00  0.00    -0.609 OA 
ENDBRANCH   5   6
BRANCH   5   9
HETATM    9  O   UNL     2     -10.500  14.763  65.236  1.00  0.00    -0.346 OA 
HETATM   10  O   UNL     2     -10.880  16.184  66.940  1.00  0.00    -0.282 OA 
HETATM   11  P   UNL     2     -10.275  16.452  65.537  1.00  0.00    -0.080 P  
HETATM   12  O   UNL     2     -11.216  16.598  64.315  1.00  0.00    -1.098 OA 
HETATM   13  O   UNL     2     -10.074  17.963  65.807  1.00  0.00    -0.563 OA 
ENDBRANCH   5   9
ENDBRANCH   3   5
TORSDOF 3
ENDMDL
MODEL        3
REMARK 921   NORMALIZED FREE ENERGY PREDICTED BY IDOCK:   -4.44 KCAL/MOL
REMARK 922        TOTAL FREE ENERGY PREDICTED BY IDOCK:   -5.67 KCAL/MOL
REMARK 923 INTER-LIGAND FREE ENERGY PREDICTED BY IDOCK:   -5.36 KCAL/MOL
REMARK 924 INTRA-LIGAND FREE ENERGY PREDICTED BY IDOCK:   -0.32 KCAL/MOL
REMARK 927      BINDING AFFINITY PREDICTED BY RF-SCORE:    0.00 PKD
ROOT
HETATM    1 CA   UNL     1     -12.254  14.370  62.618  1.00  0.00    -0.912 Ca 
HETATM    2  O   UNL     2     -12.062  16.131  63.828  1.00  0.00    -1.355 OA 
HETATM    3  C   UNL     2     -10.943  15.853  64.726  1.00  0.00    -0.375 C  
HETATM    4  H   UNL     2     -11.804  16.699  63.112  1.00  0.00     0.000 HD 
ENDROOT
BRANCH   3   5
HETATM    5  C   UNL     2     -11.362  14.930  65.891  1.00  0.00    -0.306 C  
BRANCH   5   6
HETATM    6  C   UNL     2     -11.886  13.567  65.459  1.00  0.00    -0.363 C  
HETATM    7  H   UNL     2     -13.572  12.810  64.687  1.00  0.00     0.000 HD 
HETATM    8  O   UNL     2     -13.246  13.660  64.956  1.00  0.00    -0.729 OA 
ENDBRANCH   5   6
BRANCH   5   9
HETATM    9  O   UNL     2     -10.274  14.683  66.753  1.00  0.00    -0.261 OA 
HETATM   10  O   UNL     2     -11.923  15.202  68.195  1.00  0.00    -0.290 OA 
HETATM   11  P   UNL     2     -10.390  15.407  68.320  1.00  0.00    -0.248 P  
HETATM   12  O   UNL     2      -9.720  16.606  67.603  1.00  0.00    -0.244 OA 
HETATM   13  O   UNL     2     -10.495  16.056  69.722  1.00  0.00    -0.275 OA 
ENDBRANCH   5   9
ENDBRANCH   3   5
TORSDOF 3
ENDMDL
MODEL        4
REMARK 921   NORMALIZED FREE ENERGY PREDICTED BY IDOCK:   -4.43 KCAL/MOL
REMARK 922        TOTAL FREE ENERGY PREDICTED BY IDOCK:   -5.66 KCAL/MOL
REMARK 923 INTER-LIGAND FREE ENERGY PREDICTED BY IDOCK:   -5.62 KCAL/MOL
REMARK 924 INTRA-LIGAND FREE ENERGY PREDICTED BY IDOCK:   -0.05 KCAL/MOL
REMARK 927      BINDING AFFINITY PREDICTED BY RF-SCORE:    0.00 PKD
ROOT
HETATM    1 CA   UNL     1     -13.109  16.117  68.800  1.00  0.00    -0.500 Ca 
HETATM    2  O   UNL     2     -12.070  14.296  68.345  1.00  0.00    -0.500 OA 
HETATM    3  C   UNL     2     -10.907  14.709  67.563  1.00  0.00    -0.286 C  
HETATM    4  H   UNL     2     -11.837  14.104  69.246  1.00  0.00     0.000 HD 
ENDROOT
BRANCH   3   5
HETATM    5  C   UNL     2     -11.286  15.021  66.099  1.00  0.00    -0.307 C  
BRANCH   5   6
HETATM    6  C   UNL     2     -10.618  16.264  65.525  1.00  0.00    -0.353 C  
HETATM    7  H   UNL     2     -10.945  17.560  64.033  1.00  0.00     0.000 HD 
HETATM    8  O   UNL     2     -11.361  16.785  64.391  1.00  0.00    -1.089 OA 
ENDBRANCH   5   6
BRANCH   5   9
HETATM    9  O   UNL     2     -10.932  13.952  65.250  1.00  0.00    -0.308 OA 
HETATM   10  O   UNL     2     -13.087  14.307  64.706  1.00  0.00    -0.599 OA 
HETATM   11  P   UNL     2     -12.254  12.999  64.668  1.00  0.00    -0.426 P  
HETATM   12  O   UNL     2     -12.011  12.211  65.980  1.00  0.00    -0.578 OA 
HETATM   13  O   UNL     2     -13.437  12.147  64.148  1.00  0.00    -0.671 OA 
ENDBRANCH   5   9
ENDBRANCH   3   5
TORSDOF 3
ENDMDL
MODEL        5
REMARK 921   NORMALIZED FREE ENERGY PREDICTED BY IDOCK:   -4.31 KCAL/MOL
REMARK 922        TOTAL FREE ENERGY PREDICTED BY IDOCK:   -5.53 KCAL/MOL
REMARK 923 INTER-LIGAND FREE ENERGY PREDICTED BY IDOCK:   -5.23 KCAL/MOL
REMARK 924 INTRA-LIGAND FREE ENERGY PREDICTED BY IDOCK:   -0.30 KCAL/MOL
REMARK 927      BINDING AFFINITY PREDICTED BY RF-SCORE:    0.00 PKD
ROOT
HETATM    1 CA   UNL     1     -12.434  10.970  62.400  1.00  0.00    -0.913 Ca 
HETATM    2  O   UNL     2     -10.357  11.464  62.610  1.00  0.00    -0.597 OA 
HETATM    3  C   UNL     2      -9.919  10.758  63.812  1.00  0.00    -0.351 C  
HETATM    4  H   UNL     2     -10.083  11.014  61.819  1.00  0.00     0.000 HD 
ENDROOT
BRANCH   3   5
HETATM    5  C   UNL     2     -10.365  11.490  65.097  1.00  0.00    -0.278 C  
BRANCH   5   6
HETATM    6  C   UNL     2      -9.408  11.340  66.273  1.00  0.00    -0.207 C  
HETATM    7  H   UNL     2      -8.228  12.524  67.376  1.00  0.00     0.000 HD 
HETATM    8  O   UNL     2      -8.824  12.618  66.643  1.00  0.00    -0.203 OA 
ENDBRANCH   5   6
BRANCH   5   9
HETATM    9  O   UNL     2     -10.498  12.875  64.866  1.00  0.00    -0.305 OA 
HETATM   10  O   UNL     2     -12.194  12.458  66.287  1.00  0.00    -0.620 OA 
HETATM   11  P   UNL     2     -12.070  13.529  65.172  1.00  0.00    -0.463 P  
HETATM   12  O   UNL     2     -12.313  13.127  63.696  1.00  0.00    -0.646 OA 
HETATM   13  O   UNL     2     -13.477  14.115  65.446  1.00  0.00    -0.648 OA 
ENDBRANCH   5   9
ENDBRANCH   3   5
TORSDOF 3
ENDMDL
MODEL        6
REMARK 921   NORMALIZED FREE ENERGY PREDICTED BY IDOCK:   -4.30 KCAL/MOL
REMARK 922        TOTAL FREE ENERGY PREDICTED BY IDOCK:   -5.52 KCAL/MOL
REMARK 923 INTER-LIGAND FREE ENERGY PREDICTED BY IDOCK:   -5.33 KCAL/MOL
REMARK 924 INTRA-LIGAND FREE ENERGY PREDICTED BY IDOCK:   -0.19 KCAL/MOL
REMARK 927      BINDING AFFINITY PREDICTED BY RF-SCORE:    0.00 PKD
ROOT
HETATM    1 CA   UNL     1     -11.366  11.758  62.605  1.00  0.00    -0.567 Ca 
HETATM    2  O   UNL     2      -9.676  12.647  63.583  1.00  0.00    -0.672 OA 
HETATM    3  C   UNL     2     -10.171  13.056  64.896  1.00  0.00    -0.284 C  
HETATM    4  H   UNL     2      -9.174  11.842  63.633  1.00  0.00     0.000 HD 
ENDROOT
BRANCH   3   5
HETATM    5  C   UNL     2     -10.988  14.364  64.815  1.00  0.00    -0.397 C  
BRANCH   5   6
HETATM    6  C   UNL     2     -12.472  14.166  64.539  1.00  0.00    -0.322 C  
HETATM    7  H   UNL     2     -13.618  13.488  63.043  1.00  0.00     0.000 HD 
HETATM    8  O   UNL     2     -12.693  13.612  63.215  1.00  0.00    -0.765 OA 
ENDBRANCH   5   6
BRANCH   5   9
HETATM    9  O   UNL     2     -10.901  15.086  66.024  1.00  0.00    -0.319 OA 
HETATM   10  O   UNL     2     -11.003  16.728  64.487  1.00  0.00    -0.921 OA 
HETATM   11  P   UNL     2     -10.316  16.707  65.878  1.00  0.00    -0.214 P  
HETATM   12  O   UNL     2      -8.937  16.019  66.037  1.00  0.00    -0.337 OA 
HETATM   13  O   UNL     2      -9.791  18.158  65.747  1.00  0.00    -0.527 OA 
ENDBRANCH   5   9
ENDBRANCH   3   5
TORSDOF 3
ENDMDL
MODEL        7
REMARK 921   NORMALIZED FREE ENERGY PREDICTED BY IDOCK:   -4.29 KCAL/MOL
REMARK 922        TOTAL FREE ENERGY PREDICTED BY IDOCK:   -5.50 KCAL/MOL
REMARK 923 INTER-LIGAND FREE ENERGY PREDICTED BY IDOCK:   -5.23 KCAL/MOL
REMARK 924 INTRA-LIGAND FREE ENERGY PREDICTED BY IDOCK:   -0.27 KCAL/MOL
REMARK 927      BINDING AFFINITY PREDICTED BY RF-SCORE:    0.00 PKD
ROOT
HETATM    1 CA   UNL     1     -14.182  14.366  65.207  1.00  0.00    -0.714 Ca 
HETATM    2  O   UNL     2     -12.485  14.391  63.894  1.00  0.00    -0.911 OA 
HETATM    3  C   UNL     2     -12.263  12.992  63.536  1.00  0.00    -0.501 C  
HETATM    4  H   UNL     2     -12.924  14.866  63.198  1.00  0.00     0.000 HD 
ENDROOT
BRANCH   3   5
HETATM    5  C   UNL     2     -11.550  12.220  64.667  1.00  0.00    -0.344 C  
BRANCH   5   6
HETATM    6  C   UNL     2     -10.497  11.229  64.189  1.00  0.00    -0.369 C  
HETATM    7  H   UNL     2      -9.149  11.105  62.712  1.00  0.00     0.000 HD 
HETATM    8  O   UNL     2      -9.805  11.723  63.011  1.00  0.00    -0.398 OA 
ENDBRANCH   5   6
BRANCH   5   9
HETATM    9  O   UNL     2     -10.892  13.107  65.543  1.00  0.00    -0.278 OA 
HETATM   10  O   UNL     2     -11.795  11.611  66.962  1.00  0.00    -0.591 OA 
HETATM   11  P   UNL     2     -11.481  13.115  67.170  1.00  0.00    -0.374 P  
HETATM   12  O   UNL     2     -12.453  14.183  66.608  1.00  0.00    -0.426 OA 
HETATM   13  O   UNL     2     -12.008  13.122  68.626  1.00  0.00    -0.328 OA 
ENDBRANCH   5   9
ENDBRANCH   3   5
TORSDOF 3
ENDMDL
MODEL        8
REMARK 921   NORMALIZED FREE ENERGY PREDICTED BY IDOCK:   -4.19 KCAL/MOL
REMARK 922        TOTAL FREE ENERGY PREDICTED BY IDOCK:   -5.38 KCAL/MOL
REMARK 923 INTER-LIGAND FREE ENERGY PREDICTED BY IDOCK:   -5.05 KCAL/MOL
REMARK 924 INTRA-LIGAND FREE ENERGY PREDICTED BY IDOCK:   -0.33 KCAL/MOL
REMARK 927      BINDING AFFINITY PREDICTED BY RF-SCORE:    0.00 PKD
ROOT
HETATM    1 CA   UNL     1     -11.376  18.151  64.765  1.00  0.00    -0.487 Ca 
HETATM    2  O   UNL     2     -11.559  16.239  63.808  1.00  0.00    -1.539 OA 
HETATM    3  C   UNL     2     -12.119  15.357  64.829  1.00  0.00    -0.034 C  
HETATM    4  H   UNL     2     -12.220  16.519  63.185  1.00  0.00     0.000 HD 
ENDROOT
BRANCH   3   5
HETATM    5  C   UNL     2     -11.044  14.901  65.840  1.00  0.00    -0.338 C  
BRANCH   5   6
HETATM    6  C   UNL     2     -10.355  16.039  66.584  1.00  0.00    -0.298 C  
HETATM    7  H   UNL     2      -9.121  17.555  66.147  1.00  0.00     0.000 HD 
HETATM    8  O   UNL     2      -9.550  16.846  65.683  1.00  0.00    -0.534 OA 
ENDBRANCH   5   6
BRANCH   5   9
HETATM    9  O   UNL     2     -11.605  14.064  66.826  1.00  0.00    -0.348 OA 
HETATM   10  O   UNL     2      -9.869  12.839  66.084  1.00  0.00    -0.262 OA 
HETATM   11  P   UNL     2     -11.230  12.383  66.671  1.00  0.00    -0.354 P  
HETATM   12  O   UNL     2     -12.489  12.383  65.768  1.00  0.00    -0.615 OA 
HETATM   13  O   UNL     2     -10.895  10.877  66.532  1.00  0.00    -0.242 OA 
ENDBRANCH   5   9
ENDBRANCH   3   5
TORSDOF 3
ENDMDL
MODEL        9
REMARK 921   NORMALIZED FREE ENERGY PREDICTED BY IDOCK:   -4.18 KCAL/MOL
REMARK 922        TOTAL FREE ENERGY PREDICTED BY IDOCK:   -5.37 KCAL/MOL
REMARK 923 INTER-LIGAND FREE ENERGY PREDICTED BY IDOCK:   -5.09 KCAL/MOL
REMARK 924 INTRA-LIGAND FREE ENERGY PREDICTED BY IDOCK:   -0.28 KCAL/MOL
REMARK 927      BINDING AFFINITY PREDICTED BY RF-SCORE:    0.00 PKD
ROOT
HETATM    1 CA   UNL     1     -11.431  17.949  64.937  1.00  0.00    -0.389 Ca 
HETATM    2  O   UNL     2     -11.540  16.234  63.653  1.00  0.00    -1.424 OA 
HETATM    3  C   UNL     2     -12.402  15.288  64.357  1.00  0.00    -0.158 C  
HETATM    4  H   UNL     2     -12.006  16.681  62.955  1.00  0.00     0.000 HD 
ENDROOT
BRANCH   3   5
HETATM    5  C   UNL     2     -11.644  14.562  65.491  1.00  0.00    -0.350 C  
BRANCH   5   6
HETATM    6  C   UNL     2     -12.032  13.100  65.674  1.00  0.00    -0.415 C  
HETATM    7  H   UNL     2     -13.241  11.771  64.789  1.00  0.00     0.000 HD 
HETATM    8  O   UNL     2     -12.999  12.682  64.674  1.00  0.00    -0.768 OA 
ENDBRANCH   5   6
BRANCH   5   9
HETATM    9  O   UNL     2     -10.254  14.578  65.256  1.00  0.00    -0.367 OA 
HETATM   10  O   UNL     2     -10.372  14.906  67.481  1.00  0.00    -0.237 OA 
HETATM   11  P   UNL     2      -9.310  15.388  66.459  1.00  0.00    -0.327 P  
HETATM   12  O   UNL     2      -9.605  16.628  65.578  1.00  0.00    -0.502 OA 
HETATM   13  O   UNL     2      -8.465  16.114  67.534  1.00  0.00    -0.158 OA 
ENDBRANCH   5   9
ENDBRANCH   3   5
TORSDOF 3
ENDMDL
MODEL       10
REMARK 921   NORMALIZED FREE ENERGY PREDICTED BY IDOCK:   -4.16 KCAL/MOL
REMARK 922        TOTAL FREE ENERGY PREDICTED BY IDOCK:   -5.35 KCAL/MOL
REMARK 923 INTER-LIGAND FREE ENERGY PREDICTED BY IDOCK:   -4.90 KCAL/MOL
REMARK 924 INTRA-LIGAND FREE ENERGY PREDICTED BY IDOCK:   -0.45 KCAL/MOL
REMARK 927      BINDING AFFINITY PREDICTED BY RF-SCORE:    0.00 PKD
ROOT
HETATM    1 CA   UNL     1     -12.399  14.166  62.351  1.00  0.00    -0.951 Ca 
HETATM    2  O   UNL     2     -12.461  12.236  63.285  1.00  0.00    -0.689 OA 
HETATM    3  C   UNL     2     -12.617  12.510  64.711  1.00  0.00    -0.413 C  
HETATM    4  H   UNL     2     -13.284  11.975  62.886  1.00  0.00     0.000 HD 
ENDROOT
BRANCH   3   5
HETATM    5  C   UNL     2     -11.280  12.933  65.359  1.00  0.00    -0.283 C  
BRANCH   5   6
HETATM    6  C   UNL     2     -10.333  11.780  65.662  1.00  0.00    -0.252 C  
HETATM    7  H   UNL     2      -9.889   9.989  64.882  1.00  0.00     0.000 HD 
HETATM    8  O   UNL     2     -10.480  10.708  64.693  1.00  0.00    -0.336 OA 
ENDBRANCH   5   6
BRANCH   5   9
HETATM    9  O   UNL     2     -10.573  13.819  64.520  1.00  0.00    -0.423 OA 
HETATM   10  O   UNL     2     -10.636  14.947  66.467  1.00  0.00    -0.292 OA 
HETATM   11  P   UNL     2     -10.591  15.478  65.010  1.00  0.00    -0.218 P  
HETATM   12  O   UNL     2     -11.892  15.511  64.170  1.00  0.00    -0.463 OA 
HETATM   13  O   UNL     2     -10.608  16.962  65.449  1.00  0.00    -0.579 OA 
ENDBRANCH   5   9
ENDBRANCH   3   5
TORSDOF 3
ENDMDL
MODEL       11
REMARK 921   NORMALIZED FREE ENERGY PREDICTED BY IDOCK:   -4.15 KCAL/MOL
REMARK 922        TOTAL FREE ENERGY PREDICTED BY IDOCK:   -5.33 KCAL/MOL
REMARK 923 INTER-LIGAND FREE ENERGY PREDICTED BY IDOCK:   -5.06 KCAL/MOL
REMARK 924 INTRA-LIGAND FREE ENERGY PREDICTED BY IDOCK:   -0.27 KCAL/MOL
REMARK 927      BINDING AFFINITY PREDICTED BY RF-SCORE:    0.00 PKD
ROOT
HETATM    1 CA   UNL     1     -12.084  13.652  62.384  1.00  0.00    -0.734 Ca 
HETATM    2  O   UNL     2     -12.602  15.132  63.848  1.00  0.00    -0.947 OA 
HETATM    3  C   UNL     2     -11.533  15.072  64.843  1.00  0.00    -0.399 C  
HETATM    4  H   UNL     2     -12.493  15.873  63.262  1.00  0.00     0.000 HD 
ENDROOT
BRANCH   3   5
HETATM    5  C   UNL     2     -11.708  13.869  65.796  1.00  0.00    -0.359 C  
BRANCH   5   6
HETATM    6  C   UNL     2     -11.908  12.532  65.094  1.00  0.00    -0.405 C  
HETATM    7  H   UNL     2     -13.354  11.607  64.062  1.00  0.00     0.000 HD 
HETATM    8  O   UNL     2     -13.230  12.440  64.499  1.00  0.00    -0.834 OA 
ENDBRANCH   5   6
BRANCH   5   9
HETATM    9  O   UNL     2     -10.579  13.717  66.626  1.00  0.00    -0.272 OA 
HETATM   10  O   UNL     2     -12.268  13.768  68.113  1.00  0.00    -0.331 OA 
HETATM   11  P   UNL     2     -10.793  14.222  68.267  1.00  0.00    -0.264 P  
HETATM   12  O   UNL     2     -10.354  15.595  67.699  1.00  0.00    -0.263 OA 
HETATM   13  O   UNL     2     -10.985  14.675  69.735  1.00  0.00    -0.254 OA 
ENDBRANCH   5   9
ENDBRANCH   3   5
TORSDOF 3
ENDMDL
MODEL       12
REMARK 921   NORMALIZED FREE ENERGY PREDICTED BY IDOCK:   -4.12 KCAL/MOL
REMARK 922        TOTAL FREE ENERGY PREDICTED BY IDOCK:   -5.30 KCAL/MOL
REMARK 923 INTER-LIGAND FREE ENERGY PREDICTED BY IDOCK:   -4.97 KCAL/MOL
REMARK 924 INTRA-LIGAND FREE ENERGY PREDICTED BY IDOCK:   -0.33 KCAL/MOL
REMARK 927      BINDING AFFINITY PREDICTED BY RF-SCORE:    0.00 PKD
ROOT
HETATM    1 CA   UNL     1     -11.827  11.792  70.348  1.00  0.00    -0.250 Ca 
HETATM    2  O   UNL     2     -12.357  10.956  68.444  1.00  0.00    -0.803 OA 
HETATM    3  C   UNL     2     -11.399  11.528  67.500  1.00  0.00    -0.299 C  
HETATM    4  H   UNL     2     -12.129  10.064  68.678  1.00  0.00     0.000 HD 
ENDROOT
BRANCH   3   5
HETATM    5  C   UNL     2     -11.769  12.979  67.121  1.00  0.00    -0.382 C  
BRANCH   5   6
HETATM    6  C   UNL     2     -11.546  13.998  68.231  1.00  0.00    -0.329 C  
HETATM    7  H   UNL     2     -12.259  14.359  70.068  1.00  0.00     0.000 HD 
HETATM    8  O   UNL     2     -12.397  13.724  69.377  1.00  0.00    -0.310 OA 
ENDBRANCH   5   6
BRANCH   5   9
HETATM    9  O   UNL     2     -11.008  13.419  66.019  1.00  0.00    -0.273 OA 
HETATM   10  O   UNL     2     -13.097  14.025  65.436  1.00  0.00    -0.763 OA 
HETATM   11  P   UNL     2     -11.891  13.628  64.545  1.00  0.00    -0.446 P  
HETATM   12  O   UNL     2     -11.546  12.130  64.353  1.00  0.00    -0.332 OA 
HETATM   13  O   UNL     2     -12.681  13.814  63.227  1.00  0.00    -0.783 OA 
ENDBRANCH   5   9
ENDBRANCH   3   5
TORSDOF 3
ENDMDL
MODEL       13
REMARK 921   NORMALIZED FREE ENERGY PREDICTED BY IDOCK:   -4.10 KCAL/MOL
REMARK 922        TOTAL FREE ENERGY PREDICTED BY IDOCK:   -5.28 KCAL/MOL
REMARK 923 INTER-LIGAND FREE ENERGY PREDICTED BY IDOCK:   -5.25 KCAL/MOL
REMARK 924 INTRA-LIGAND FREE ENERGY PREDICTED BY IDOCK:   -0.03 KCAL/MOL
REMARK 927      BINDING AFFINITY PREDICTED BY RF-SCORE:    0.00 PKD
ROOT
HETATM    1 CA   UNL     1     -11.397  13.075  62.468  1.00  0.00    -0.702 Ca 
HETATM    2  O   UNL     2     -12.645  14.451  63.541  1.00  0.00    -1.043 OA 
HETATM    3  C   UNL     2     -11.727  15.449  64.086  1.00  0.00    -0.100 C  
HETATM    4  H   UNL     2     -13.097  14.775  62.771  1.00  0.00     0.000 HD 
ENDROOT
BRANCH   3   5
HETATM    5  C   UNL     2     -10.992  14.923  65.339  1.00  0.00    -0.364 C  
BRANCH   5   6
HETATM    6  C   UNL     2     -10.104  15.951  66.028  1.00  0.00    -0.337 C  
HETATM    7  H   UNL     2      -9.785  17.927  65.934  1.00  0.00     0.000 HD 
HETATM    8  O   UNL     2     -10.339  17.286  65.505  1.00  0.00    -0.614 OA 
ENDBRANCH   5   6
BRANCH   5   9
HETATM    9  O   UNL     2     -11.912  14.478  66.311  1.00  0.00    -0.382 OA 
HETATM   10  O   UNL     2     -10.235  12.990  66.517  1.00  0.00    -0.258 OA 
HETATM   11  P   UNL     2     -11.754  12.819  66.775  1.00  0.00    -0.337 P  
HETATM   12  O   UNL     2     -12.711  12.594  65.577  1.00  0.00    -0.597 OA 
HETATM   13  O   UNL     2     -11.614  11.334  67.189  1.00  0.00    -0.513 OA 
ENDBRANCH   5   9
ENDBRANCH   3   5
TORSDOF 3
ENDMDL
MODEL       14
REMARK 921   NORMALIZED FREE ENERGY PREDICTED BY IDOCK:   -4.07 KCAL/MOL
REMARK 922        TOTAL FREE ENERGY PREDICTED BY IDOCK:   -5.24 KCAL/MOL
REMARK 923 INTER-LIGAND FREE ENERGY PREDICTED BY IDOCK:   -4.97 KCAL/MOL
REMARK 924 INTRA-LIGAND FREE ENERGY PREDICTED BY IDOCK:   -0.26 KCAL/MOL
REMARK 927      BINDING AFFINITY PREDICTED BY RF-SCORE:    0.00 PKD
ROOT
HETATM    1 CA   UNL     1      -8.570  11.879  64.949  1.00  0.00    -0.382 Ca 
HETATM    2  O   UNL     2      -8.569  13.483  66.373  1.00  0.00    -0.424 OA 
HETATM    3  C   UNL     2      -9.932  13.525  66.897  1.00  0.00    -0.256 C  
HETATM    4  H   UNL     2      -7.973  13.058  66.979  1.00  0.00     0.000 HD 
ENDROOT
BRANCH   3   5
HETATM    5  C   UNL     2     -10.901  14.216  65.913  1.00  0.00    -0.294 C  
BRANCH   5   6
HETATM    6  C   UNL     2     -10.783  15.734  65.873  1.00  0.00    -0.313 C  
HETATM    7  H   UNL     2     -10.750  17.177  64.484  1.00  0.00     0.000 HD 
HETATM    8  O   UNL     2     -10.823  16.231  64.509  1.00  0.00    -0.668 OA 
ENDBRANCH   5   6
BRANCH   5   9
HETATM    9  O   UNL     2     -10.682  13.766  64.594  1.00  0.00    -0.387 OA 
HETATM   10  O   UNL     2     -12.919  13.613  64.791  1.00  0.00    -0.685 OA 
HETATM   11  P   UNL     2     -11.936  12.776  63.932  1.00  0.00    -0.546 P  
HETATM   12  O   UNL     2     -11.122  11.637  64.596  1.00  0.00    -0.309 OA 
HETATM   13  O   UNL     2     -13.059  11.889  63.340  1.00  0.00    -0.710 OA 
ENDBRANCH   5   9
ENDBRANCH   3   5
TORSDOF 3
ENDMDL
MODEL       15
REMARK 921   NORMALIZED FREE ENERGY PREDICTED BY IDOCK:   -4.03 KCAL/MOL
REMARK 922        TOTAL FREE ENERGY PREDICTED BY IDOCK:   -5.19 KCAL/MOL
REMARK 923 INTER-LIGAND FREE ENERGY PREDICTED BY IDOCK:   -4.88 KCAL/MOL
REMARK 924 INTRA-LIGAND FREE ENERGY PREDICTED BY IDOCK:   -0.32 KCAL/MOL
REMARK 927      BINDING AFFINITY PREDICTED BY RF-SCORE:    0.00 PKD
ROOT
HETATM    1 CA   UNL     1     -12.483  16.265  63.609  1.00  0.00    -0.765 Ca 
HETATM    2  O   UNL     2     -10.786  16.752  64.828  1.00  0.00    -0.745 OA 
HETATM    3  C   UNL     2     -10.053  15.497  64.976  1.00  0.00    -0.128 C  
HETATM    4  H   UNL     2     -10.380  17.321  64.184  1.00  0.00     0.000 HD 
ENDROOT
BRANCH   3   5
HETATM    5  C   UNL     2     -10.713  14.572  66.023  1.00  0.00    -0.305 C  
BRANCH   5   6
HETATM    6  C   UNL     2     -10.423  14.948  67.470  1.00  0.00    -0.254 C  
HETATM    7  H   UNL     2     -11.150  16.215  68.841  1.00  0.00     0.000 HD 
HETATM    8  O   UNL     2     -11.331  15.980  67.939  1.00  0.00    -0.314 OA 
ENDBRANCH   5   6
BRANCH   5   9
HETATM    9  O   UNL     2     -12.117  14.578  65.885  1.00  0.00    -0.354 OA 
HETATM   10  O   UNL     2     -11.616  12.400  65.617  1.00  0.00    -0.357 OA 
HETATM   11  P   UNL     2     -12.782  13.232  65.025  1.00  0.00    -0.154 P  
HETATM   12  O   UNL     2     -12.526  14.139  63.795  1.00  0.00    -0.791 OA 
HETATM   13  O   UNL     2     -13.378  12.028  64.255  1.00  0.00    -0.709 OA 
ENDBRANCH   5   9
ENDBRANCH   3   5
TORSDOF 3
ENDMDL
MODEL       16
REMARK 921   NORMALIZED FREE ENERGY PREDICTED BY IDOCK:   -4.03 KCAL/MOL
REMARK 922        TOTAL FREE ENERGY PREDICTED BY IDOCK:   -5.19 KCAL/MOL
REMARK 923 INTER-LIGAND FREE ENERGY PREDICTED BY IDOCK:   -4.97 KCAL/MOL
REMARK 924 INTRA-LIGAND FREE ENERGY PREDICTED BY IDOCK:   -0.22 KCAL/MOL
REMARK 927      BINDING AFFINITY PREDICTED BY RF-SCORE:    0.00 PKD
ROOT
HETATM    1 CA   UNL     1     -12.165  14.010  62.387  1.00  0.00    -0.942 Ca 
HETATM    2  O   UNL     2     -12.152  15.476  63.953  1.00  0.00    -0.981 OA 
HETATM    3  C   UNL     2     -10.959  15.177  64.742  1.00  0.00    -0.377 C  
HETATM    4  H   UNL     2     -12.013  16.217  63.375  1.00  0.00     0.000 HD 
ENDROOT
BRANCH   3   5
HETATM    5  C   UNL     2     -11.184  13.973  65.683  1.00  0.00    -0.310 C  
BRANCH   5   6
HETATM    6  C   UNL     2     -12.012  14.288  66.923  1.00  0.00    -0.438 C  
HETATM    7  H   UNL     2     -12.495  13.384  68.644  1.00  0.00     0.000 HD 
HETATM    8  O   UNL     2     -11.979  13.188  67.871  1.00  0.00    -0.349 OA 
ENDBRANCH   5   6
BRANCH   5   9
HETATM    9  O   UNL     2     -11.855  12.930  65.012  1.00  0.00    -0.333 OA 
HETATM   10  O   UNL     2     -10.034  11.887  65.828  1.00  0.00    -0.225 OA 
HETATM   11  P   UNL     2     -10.864  11.589  64.552  1.00  0.00    -0.279 P  
HETATM   12  O   UNL     2     -10.638  12.440  63.278  1.00  0.00    -0.410 OA 
HETATM   13  O   UNL     2      -9.977  10.388  64.140  1.00  0.00    -0.328 OA 
ENDBRANCH   5   9
ENDBRANCH   3   5
TORSDOF 3
ENDMDL
MODEL       17
REMARK 921   NORMALIZED FREE ENERGY PREDICTED BY IDOCK:   -4.00 KCAL/MOL
REMARK 922        TOTAL FREE ENERGY PREDICTED BY IDOCK:   -5.16 KCAL/MOL
REMARK 923 INTER-LIGAND FREE ENERGY PREDICTED BY IDOCK:   -5.06 KCAL/MOL
REMARK 924 INTRA-LIGAND FREE ENERGY PREDICTED BY IDOCK:   -0.10 KCAL/MOL
REMARK 927      BINDING AFFINITY PREDICTED BY RF-SCORE:    0.00 PKD
ROOT
HETATM    1 CA   UNL     1     -10.721  15.507  63.847  1.00  0.00    -0.618 Ca 
HETATM    2  O   UNL     2     -12.512  14.347  63.632  1.00  0.00    -1.066 OA 
HETATM    3  C   UNL     2     -12.879  13.961  64.993  1.00  0.00    -0.268 C  
HETATM    4  H   UNL     2     -13.044  15.069  63.317  1.00  0.00     0.000 HD 
ENDROOT
BRANCH   3   5
HETATM    5  C   UNL     2     -12.016  12.787  65.504  1.00  0.00    -0.449 C  
BRANCH   5   6
HETATM    6  C   UNL     2     -11.290  12.013  64.411  1.00  0.00    -0.345 C  
HETATM    7  H   UNL     2     -11.756  11.110  62.684  1.00  0.00     0.000 HD 
HETATM    8  O   UNL     2     -12.208  11.592  63.366  1.00  0.00    -0.448 OA 
ENDBRANCH   5   6
BRANCH   5   9
HETATM    9  O   UNL     2     -11.022  13.244  66.393  1.00  0.00    -0.285 OA 
HETATM   10  O   UNL     2     -12.033  11.629  67.591  1.00  0.00    -0.618 OA 
HETATM   11  P   UNL     2     -11.319  12.921  68.067  1.00  0.00    -0.339 P  
HETATM   12  O   UNL     2     -12.066  14.276  67.997  1.00  0.00    -0.338 OA 
HETATM   13  O   UNL     2     -11.585  12.632  69.565  1.00  0.00    -0.287 OA 
ENDBRANCH   5   9
ENDBRANCH   3   5
TORSDOF 3
ENDMDL
MODEL       18
REMARK 921   NORMALIZED FREE ENERGY PREDICTED BY IDOCK:   -4.00 KCAL/MOL
REMARK 922        TOTAL FREE ENERGY PREDICTED BY IDOCK:   -5.16 KCAL/MOL
REMARK 923 INTER-LIGAND FREE ENERGY PREDICTED BY IDOCK:   -4.86 KCAL/MOL
REMARK 924 INTRA-LIGAND FREE ENERGY PREDICTED BY IDOCK:   -0.30 KCAL/MOL
REMARK 927      BINDING AFFINITY PREDICTED BY RF-SCORE:    0.00 PKD
ROOT
HETATM    1 CA   UNL     1     -12.439  10.776  62.349  1.00  0.00    -0.813 Ca 
HETATM    2  O   UNL     2     -13.029  12.451  63.553  1.00  0.00    -0.750 OA 
HETATM    3  C   UNL     2     -11.776  13.068  63.984  1.00  0.00    -0.436 C  
HETATM    4  H   UNL     2     -13.429  12.933  62.838  1.00  0.00     0.000 HD 
ENDROOT
BRANCH   3   5
HETATM    5  C   UNL     2     -11.126  12.285  65.146  1.00  0.00    -0.317 C  
BRANCH   5   6
HETATM    6  C   UNL     2     -10.052  11.294  64.716  1.00  0.00    -0.285 C  
HETATM    7  H   UNL     2      -9.548  10.290  63.057  1.00  0.00     0.000 HD 
HETATM    8  O   UNL     2     -10.217  10.908  63.325  1.00  0.00    -0.337 OA 
ENDBRANCH   5   6
BRANCH   5   9
HETATM    9  O   UNL     2     -10.512  13.164  66.061  1.00  0.00    -0.274 OA 
HETATM   10  O   UNL     2     -11.855  11.942  67.392  1.00  0.00    -0.571 OA 
HETATM   11  P   UNL     2     -11.370  13.407  67.544  1.00  0.00    -0.335 P  
HETATM   12  O   UNL     2     -12.065  14.529  66.732  1.00  0.00    -0.395 OA 
HETATM   13  O   UNL     2     -12.138  13.626  68.870  1.00  0.00    -0.347 OA 
ENDBRANCH   5   9
ENDBRANCH   3   5
TORSDOF 3
ENDMDL
MODEL       19
REMARK 921   NORMALIZED FREE ENERGY PREDICTED BY IDOCK:   -3.98 KCAL/MOL
REMARK 922        TOTAL FREE ENERGY PREDICTED BY IDOCK:   -5.14 KCAL/MOL
REMARK 923 INTER-LIGAND FREE ENERGY PREDICTED BY IDOCK:   -4.82 KCAL/MOL
REMARK 924 INTRA-LIGAND FREE ENERGY PREDICTED BY IDOCK:   -0.32 KCAL/MOL
REMARK 927      BINDING AFFINITY PREDICTED BY RF-SCORE:    0.00 PKD
ROOT
HETATM    1 CA   UNL     1     -13.777  12.241  63.352  1.00  0.00    -0.678 Ca 
HETATM    2  O   UNL     2     -11.733  12.846  63.114  1.00  0.00    -0.801 OA 
HETATM    3  C   UNL     2     -11.007  12.154  64.176  1.00  0.00    -0.361 C  
HETATM    4  H   UNL     2     -11.615  12.418  62.273  1.00  0.00     0.000 HD 
ENDROOT
BRANCH   3   5
HETATM    5  C   UNL     2     -11.197  12.849  65.543  1.00  0.00    -0.288 C  
BRANCH   5   6
HETATM    6  C   UNL     2     -11.935  14.180  65.476  1.00  0.00    -0.391 C  
HETATM    7  H   UNL     2     -13.815  14.814  65.204  1.00  0.00     0.000 HD 
HETATM    8  O   UNL     2     -13.355  13.984  65.246  1.00  0.00    -0.741 OA 
ENDBRANCH   5   6
BRANCH   5   9
HETATM    9  O   UNL     2     -11.933  12.030  66.424  1.00  0.00    -0.611 OA 
HETATM   10  O   UNL     2     -10.286  12.807  67.748  1.00  0.00    -0.214 OA 
HETATM   11  P   UNL     2     -11.064  11.467  67.810  1.00  0.00    -0.300 P  
HETATM   12  O   UNL     2     -10.673  10.311  66.855  1.00  0.00    -0.239 OA 
HETATM   13  O   UNL     2     -10.287  10.962  69.051  1.00  0.00    -0.198 OA 
ENDBRANCH   5   9
ENDBRANCH   3   5
TORSDOF 3
ENDMDL
MODEL       20
REMARK 921   NORMALIZED FREE ENERGY PREDICTED BY IDOCK:   -3.94 KCAL/MOL
REMARK 922        TOTAL FREE ENERGY PREDICTED BY IDOCK:   -5.09 KCAL/MOL
REMARK 923 INTER-LIGAND FREE ENERGY PREDICTED BY IDOCK:   -4.75 KCAL/MOL
REMARK 924 INTRA-LIGAND FREE ENERGY PREDICTED BY IDOCK:   -0.34 KCAL/MOL
REMARK 927      BINDING AFFINITY PREDICTED BY RF-SCORE:    0.00 PKD
ROOT
HETATM    1 CA   UNL     1     -12.471  11.702  70.092  1.00  0.00    -0.263 Ca 
HETATM    2  O   UNL     2     -11.223  13.307  69.407  1.00  0.00    -0.369 OA 
HETATM    3  C   UNL     2     -11.755  13.667  68.095  1.00  0.00    -0.357 C  
HETATM    4  H   UNL     2     -11.499  13.921  70.078  1.00  0.00     0.000 HD 
ENDROOT
BRANCH   3   5
HETATM    5  C   UNL     2     -11.306  12.669  67.005  1.00  0.00    -0.323 C  
BRANCH   5   6
HETATM    6  C   UNL     2     -10.695  11.382  67.541  1.00  0.00    -0.222 C  
HETATM    7  H   UNL     2     -11.291   9.797  68.611  1.00  0.00     0.000 HD 
HETATM    8  O   UNL     2     -11.673  10.599  68.276  1.00  0.00    -0.445 OA 
ENDBRANCH   5   6
BRANCH   5   9
HETATM    9  O   UNL     2     -12.396  12.285  66.197  1.00  0.00    -0.588 OA 
HETATM   10  O   UNL     2     -10.833  12.831  64.671  1.00  0.00    -0.302 OA 
HETATM   11  P   UNL     2     -12.380  12.912  64.584  1.00  0.00    -0.410 P  
HETATM   12  O   UNL     2     -13.120  14.101  65.245  1.00  0.00    -0.763 OA 
HETATM   13  O   UNL     2     -12.365  13.474  63.141  1.00  0.00    -0.712 OA 
ENDBRANCH   5   9
ENDBRANCH   3   5
TORSDOF 3
ENDMDL
MODEL       21
REMARK 921   NORMALIZED FREE ENERGY PREDICTED BY IDOCK:   -3.93 KCAL/MOL
REMARK 922        TOTAL FREE ENERGY PREDICTED BY IDOCK:   -5.08 KCAL/MOL
REMARK 923 INTER-LIGAND FREE ENERGY PREDICTED BY IDOCK:   -4.76 KCAL/MOL
REMARK 924 INTRA-LIGAND FREE ENERGY PREDICTED BY IDOCK:   -0.32 KCAL/MOL
REMARK 927      BINDING AFFINITY PREDICTED BY RF-SCORE:    0.00 PKD
ROOT
HETATM    1 CA   UNL     1     -11.518  12.975  62.453  1.00  0.00    -0.704 Ca 
HETATM    2  O   UNL     2      -9.982  13.106  63.946  1.00  0.00    -0.760 OA 
HETATM    3  C   UNL     2     -10.579  12.539  65.153  1.00  0.00    -0.293 C  
HETATM    4  H   UNL     2      -9.398  12.488  63.521  1.00  0.00     0.000 HD 
ENDROOT
BRANCH   3   5
HETATM    5  C   UNL     2     -11.528  13.543  65.845  1.00  0.00    -0.320 C  
BRANCH   5   6
HETATM    6  C   UNL     2     -12.835  13.790  65.101  1.00  0.00    -0.340 C  
HETATM    7  H   UNL     2     -13.413  14.584  63.356  1.00  0.00     0.000 HD 
HETATM    8  O   UNL     2     -12.599  14.430  63.819  1.00  0.00    -0.829 OA 
ENDBRANCH   5   6
BRANCH   5   9
HETATM    9  O   UNL     2     -11.883  13.093  67.133  1.00  0.00    -0.357 OA 
HETATM   10  O   UNL     2     -11.506  15.286  67.475  1.00  0.00    -0.333 OA 
HETATM   11  P   UNL     2     -11.335  14.084  68.441  1.00  0.00    -0.335 P  
HETATM   12  O   UNL     2     -10.073  13.192  68.333  1.00  0.00    -0.235 OA 
HETATM   13  O   UNL     2     -10.845  14.971  69.611  1.00  0.00    -0.255 OA 
ENDBRANCH   5   9
ENDBRANCH   3   5
TORSDOF 3
ENDMDL
MODEL       22
REMARK 921   NORMALIZED FREE ENERGY PREDICTED BY IDOCK:   -3.92 KCAL/MOL
REMARK 922        TOTAL FREE ENERGY PREDICTED BY IDOCK:   -5.07 KCAL/MOL
REMARK 923 INTER-LIGAND FREE ENERGY PREDICTED BY IDOCK:   -4.73 KCAL/MOL
REMARK 924 INTRA-LIGAND FREE ENERGY PREDICTED BY IDOCK:   -0.33 KCAL/MOL
REMARK 927      BINDING AFFINITY PREDICTED BY RF-SCORE:    0.00 PKD
ROOT
HETATM    1 CA   UNL     1      -9.153  13.844  69.507  1.00  0.00    -0.363 Ca 
HETATM    2  O   UNL     2     -11.275  13.775  69.817  1.00  0.00    -0.433 OA 
HETATM    3  C   UNL     2     -11.815  13.163  68.606  1.00  0.00    -0.328 C  
HETATM    4  H   UNL     2     -11.235  13.155  70.536  1.00  0.00     0.000 HD 
ENDROOT
BRANCH   3   5
HETATM    5  C   UNL     2     -11.880  14.171  67.438  1.00  0.00    -0.413 C  
BRANCH   5   6
HETATM    6  C   UNL     2     -11.320  15.550  67.762  1.00  0.00    -0.286 C  
HETATM    7  H   UNL     2      -9.536  16.359  68.180  1.00  0.00     0.000 HD 
HETATM    8  O   UNL     2      -9.885  15.499  67.977  1.00  0.00    -0.211 OA 
ENDBRANCH   5   6
BRANCH   5   9
HETATM    9  O   UNL     2     -11.153  13.699  66.326  1.00  0.00    -0.298 OA 
HETATM   10  O   UNL     2     -13.196  14.055  65.450  1.00  0.00    -0.761 OA 
HETATM   11  P   UNL     2     -12.107  13.026  65.048  1.00  0.00    -0.480 P  
HETATM   12  O   UNL     2     -11.944  11.725  65.873  1.00  0.00    -0.405 OA 
HETATM   13  O   UNL     2     -12.961  12.424  63.906  1.00  0.00    -0.754 OA 
ENDBRANCH   5   9
ENDBRANCH   3   5
TORSDOF 3
ENDMDL
MODEL       23
REMARK 921   NORMALIZED FREE ENERGY PREDICTED BY IDOCK:   -3.90 KCAL/MOL
REMARK 922        TOTAL FREE ENERGY PREDICTED BY IDOCK:   -5.04 KCAL/MOL
REMARK 923 INTER-LIGAND FREE ENERGY PREDICTED BY IDOCK:   -4.69 KCAL/MOL
REMARK 924 INTRA-LIGAND FREE ENERGY PREDICTED BY IDOCK:   -0.35 KCAL/MOL
REMARK 927      BINDING AFFINITY PREDICTED BY RF-SCORE:    0.00 PKD
ROOT
HETATM    1 CA   UNL     1     -12.595  10.859  62.332  1.00  0.00    -0.936 Ca 
HETATM    2  O   UNL     2     -10.554  11.029  62.974  1.00  0.00    -0.759 OA 
HETATM    3  C   UNL     2     -10.621  11.120  64.430  1.00  0.00    -0.343 C  
HETATM    4  H   UNL     2     -10.303  10.158  62.688  1.00  0.00     0.000 HD 
ENDROOT
BRANCH   3   5
HETATM    5  C   UNL     2     -11.030  12.535  64.895  1.00  0.00    -0.300 C  
BRANCH   5   6
HETATM    6  C   UNL     2     -12.444  12.944  64.504  1.00  0.00    -0.400 C  
HETATM    7  H   UNL     2     -13.418  13.488  62.840  1.00  0.00     0.000 HD 
HETATM    8  O   UNL     2     -12.536  13.233  63.083  1.00  0.00    -0.696 OA 
ENDBRANCH   5   6
BRANCH   5   9
HETATM    9  O   UNL     2     -10.958  12.643  66.299  1.00  0.00    -0.270 OA 
HETATM   10  O   UNL     2      -9.910  14.516  65.616  1.00  0.00    -0.327 OA 
HETATM   11  P   UNL     2      -9.701  13.669  66.899  1.00  0.00    -0.275 P  
HETATM   12  O   UNL     2      -8.867  12.366  66.826  1.00  0.00    -0.207 OA 
HETATM   13  O   UNL     2      -8.575  14.587  67.436  1.00  0.00    -0.176 OA 
ENDBRANCH   5   9
ENDBRANCH   3   5
TORSDOF 3
ENDMDL
MODEL       24
REMARK 921   NORMALIZED FREE ENERGY PREDICTED BY IDOCK:   -3.89 KCAL/MOL
REMARK 922        TOTAL FREE ENERGY PREDICTED BY IDOCK:   -5.03 KCAL/MOL
REMARK 923 INTER-LIGAND FREE ENERGY PREDICTED BY IDOCK:   -4.61 KCAL/MOL
REMARK 924 INTRA-LIGAND FREE ENERGY PREDICTED BY IDOCK:   -0.42 KCAL/MOL
REMARK 927      BINDING AFFINITY PREDICTED BY RF-SCORE:    0.00 PKD
ROOT
HETATM    1 CA   UNL     1     -12.898  12.077  64.941  1.00  0.00    -0.427 Ca 
HETATM    2  O   UNL     2     -11.971  11.775  66.853  1.00  0.00    -0.605 OA 
HETATM    3  C   UNL     2     -11.855  13.112  67.432  1.00  0.00    -0.361 C  
HETATM    4  H   UNL     2     -12.701  11.294  67.225  1.00  0.00     0.000 HD 
ENDROOT
BRANCH   3   5
HETATM    5  C   UNL     2     -10.669  13.894  66.827  1.00  0.00    -0.281 C  
BRANCH   5   6
HETATM    6  C   UNL     2      -9.296  13.380  67.240  1.00  0.00    -0.233 C  
HETATM    7  H   UNL     2      -8.541  12.117  68.598  1.00  0.00     0.000 HD 
HETATM    8  O   UNL     2      -9.396  12.437  68.340  1.00  0.00    -0.206 OA 
ENDBRANCH   5   6
BRANCH   5   9
HETATM    9  O   UNL     2     -10.704  13.847  65.418  1.00  0.00    -0.298 OA 
HETATM   10  O   UNL     2     -10.617  16.060  65.824  1.00  0.00    -0.343 OA 
HETATM   11  P   UNL     2     -11.260  15.289  64.642  1.00  0.00    -0.191 P  
HETATM   12  O   UNL     2     -12.647  14.624  64.828  1.00  0.00    -0.514 OA 
HETATM   13  O   UNL     2     -11.759  16.580  63.947  1.00  0.00    -1.148 OA 
ENDBRANCH   5   9
ENDBRANCH   3   5
TORSDOF 3
ENDMDL
MODEL       25
REMARK 921   NORMALIZED FREE ENERGY PREDICTED BY IDOCK:   -3.87 KCAL/MOL
REMARK 922        TOTAL FREE ENERGY PREDICTED BY IDOCK:   -5.01 KCAL/MOL
REMARK 923 INTER-LIGAND FREE ENERGY PREDICTED BY IDOCK:   -4.84 KCAL/MOL
REMARK 924 INTRA-LIGAND FREE ENERGY PREDICTED BY IDOCK:   -0.17 KCAL/MOL
REMARK 927      BINDING AFFINITY PREDICTED BY RF-SCORE:    0.00 PKD
ROOT
HETATM    1 CA   UNL     1     -11.486  13.241  62.514  1.00  0.00    -0.667 Ca 
HETATM    2  O   UNL     2     -12.646  14.600  63.700  1.00  0.00    -1.017 OA 
HETATM    3  C   UNL     2     -11.714  15.657  64.086  1.00  0.00    -0.075 C  
HETATM    4  H   UNL     2     -13.211  14.875  62.987  1.00  0.00     0.000 HD 
ENDROOT
BRANCH   3   5
HETATM    5  C   UNL     2     -10.796  15.211  65.246  1.00  0.00    -0.400 C  
BRANCH   5   6
HETATM    6  C   UNL     2     -10.181  13.829  65.069  1.00  0.00    -0.346 C  
HETATM    7  H   UNL     2     -10.821  11.940  64.882  1.00  0.00     0.000 HD 
HETATM    8  O   UNL     2     -11.205  12.802  64.992  1.00  0.00    -0.287 OA 
ENDBRANCH   5   6
BRANCH   5   9
HETATM    9  O   UNL     2      -9.720  16.108  65.408  1.00  0.00    -0.453 OA 
HETATM   10  O   UNL     2     -10.718  16.183  67.425  1.00  0.00    -0.312 OA 
HETATM   11  P   UNL     2      -9.910  17.273  66.673  1.00  0.00    -0.319 P  
HETATM   12  O   UNL     2     -10.596  18.092  65.551  1.00  0.00    -0.638 OA 
HETATM   13  O   UNL     2     -10.081  18.316  67.804  1.00  0.00    -0.322 OA 
ENDBRANCH   5   9
ENDBRANCH   3   5
TORSDOF 3
ENDMDL
MODEL       26
REMARK 921   NORMALIZED FREE ENERGY PREDICTED BY IDOCK:   -3.81 KCAL/MOL
REMARK 922        TOTAL FREE ENERGY PREDICTED BY IDOCK:   -4.94 KCAL/MOL
REMARK 923 INTER-LIGAND FREE ENERGY PREDICTED BY IDOCK:   -4.61 KCAL/MOL
REMARK 924 INTRA-LIGAND FREE ENERGY PREDICTED BY IDOCK:   -0.33 KCAL/MOL
REMARK 927      BINDING AFFINITY PREDICTED BY RF-SCORE:    0.00 PKD
ROOT
HETATM    1 CA   UNL     1      -9.978  11.586  67.516  1.00  0.00    -0.174 Ca 
HETATM    2  O   UNL     2     -10.395  13.115  68.962  1.00  0.00    -0.422 OA 
HETATM    3  C   UNL     2     -11.773  13.523  68.694  1.00  0.00    -0.354 C  
HETATM    4  H   UNL     2     -10.341  12.537  69.714  1.00  0.00     0.000 HD 
ENDROOT
BRANCH   3   5
HETATM    5  C   UNL     2     -11.861  14.463  67.471  1.00  0.00    -0.386 C  
BRANCH   5   6
HETATM    6  C   UNL     2     -11.316  15.865  67.712  1.00  0.00    -0.199 C  
HETATM    7  H   UNL     2     -11.037  17.094  69.269  1.00  0.00     0.000 HD 
HETATM    8  O   UNL     2     -11.377  16.219  69.119  1.00  0.00    -0.325 OA 
ENDBRANCH   5   6
BRANCH   5   9
HETATM    9  O   UNL     2     -11.137  13.937  66.381  1.00  0.00    -0.304 OA 
HETATM   10  O   UNL     2     -13.227  14.074  65.553  1.00  0.00    -0.710 OA 
HETATM   11  P   UNL     2     -12.081  13.086  65.207  1.00  0.00    -0.488 P  
HETATM   12  O   UNL     2     -11.804  11.882  66.141  1.00  0.00    -0.528 OA 
HETATM   13  O   UNL     2     -12.926  12.324  64.157  1.00  0.00    -0.721 OA 
ENDBRANCH   5   9
ENDBRANCH   3   5
TORSDOF 3
ENDMDL
MODEL       27
REMARK 921   NORMALIZED FREE ENERGY PREDICTED BY IDOCK:   -3.80 KCAL/MOL
REMARK 922        TOTAL FREE ENERGY PREDICTED BY IDOCK:   -4.93 KCAL/MOL
REMARK 923 INTER-LIGAND FREE ENERGY PREDICTED BY IDOCK:   -4.80 KCAL/MOL
REMARK 924 INTRA-LIGAND FREE ENERGY PREDICTED BY IDOCK:   -0.13 KCAL/MOL
REMARK 927      BINDING AFFINITY PREDICTED BY RF-SCORE:    0.00 PKD
ROOT
HETATM    1 CA   UNL     1     -11.287  11.020  62.575  1.00  0.00    -0.728 Ca 
HETATM    2  O   UNL     2      -9.867  12.190  63.679  1.00  0.00    -0.530 OA 
HETATM    3  C   UNL     2     -10.175  11.932  65.084  1.00  0.00    -0.277 C  
HETATM    4  H   UNL     2      -9.108  11.697  63.390  1.00  0.00     0.000 HD 
ENDROOT
BRANCH   3   5
HETATM    5  C   UNL     2     -11.409  12.734  65.553  1.00  0.00    -0.312 C  
BRANCH   5   6
HETATM    6  C   UNL     2     -12.592  12.690  64.595  1.00  0.00    -0.440 C  
HETATM    7  H   UNL     2     -13.118  13.538  62.858  1.00  0.00     0.000 HD 
HETATM    8  O   UNL     2     -12.380  13.565  63.455  1.00  0.00    -0.715 OA 
ENDBRANCH   5   6
BRANCH   5   9
HETATM    9  O   UNL     2     -11.881  12.250  66.791  1.00  0.00    -0.533 OA 
HETATM   10  O   UNL     2     -12.025  14.481  67.059  1.00  0.00    -0.404 OA 
HETATM   11  P   UNL     2     -11.781  13.366  68.109  1.00  0.00    -0.356 P  
HETATM   12  O   UNL     2     -10.365  12.759  68.263  1.00  0.00    -0.231 OA 
HETATM   13  O   UNL     2     -11.692  14.364  69.289  1.00  0.00    -0.278 OA 
ENDBRANCH   5   9
ENDBRANCH   3   5
TORSDOF 3
ENDMDL
MODEL       28
REMARK 921   NORMALIZED FREE ENERGY PREDICTED BY IDOCK:   -3.78 KCAL/MOL
REMARK 922        TOTAL FREE ENERGY PREDICTED BY IDOCK:   -4.90 KCAL/MOL
REMARK 923 INTER-LIGAND FREE ENERGY PREDICTED BY IDOCK:   -4.49 KCAL/MOL
REMARK 924 INTRA-LIGAND FREE ENERGY PREDICTED BY IDOCK:   -0.41 KCAL/MOL
REMARK 927      BINDING AFFINITY PREDICTED BY RF-SCORE:    0.00 PKD
ROOT
HETATM    1 CA   UNL     1     -12.699  11.964  71.446  1.00  0.00    -0.292 Ca 
HETATM    2  O   UNL     2     -13.722  13.430  72.633  1.00  0.00    -0.687 OA 
HETATM    3  C   UNL     2     -13.993  14.536  71.717  1.00  0.00    -0.473 C  
HETATM    4  H   UNL     2     -14.495  12.898  72.778  1.00  0.00     0.000 HD 
ENDROOT
BRANCH   3   5
HETATM    5  C   UNL     2     -12.735  15.402  71.482  1.00  0.00    -0.411 C  
BRANCH   5   6
HETATM    6  C   UNL     2     -12.278  16.195  72.699  1.00  0.00    -0.532 C  
HETATM    7  H   UNL     2     -12.966  16.612  74.534  1.00  0.00     0.000 HD 
HETATM    8  O   UNL     2     -13.251  16.118  73.775  1.00  0.00    -0.657 OA 
ENDBRANCH   5   6
BRANCH   5   9
HETATM    9  O   UNL     2     -11.641  14.603  71.093  1.00  0.00    -0.303 OA 
HETATM   10  O   UNL     2     -11.796  16.069  69.391  1.00  0.00    -0.325 OA 
HETATM   11  P   UNL     2     -11.288  14.603  69.399  1.00  0.00    -0.311 P  
HETATM   12  O   UNL     2     -12.311  13.440  69.382  1.00  0.00    -0.236 OA 
HETATM   13  O   UNL     2     -10.973  14.604  67.883  1.00  0.00    -0.263 OA 
ENDBRANCH   5   9
ENDBRANCH   3   5
TORSDOF 3
ENDMDL
MODEL       29
REMARK 921   NORMALIZED FREE ENERGY PREDICTED BY IDOCK:   -3.77 KCAL/MOL
REMARK 922        TOTAL FREE ENERGY PREDICTED BY IDOCK:   -4.89 KCAL/MOL
REMARK 923 INTER-LIGAND FREE ENERGY PREDICTED BY IDOCK:   -4.97 KCAL/MOL
REMARK 924 INTRA-LIGAND FREE ENERGY PREDICTED BY IDOCK:    0.08 KCAL/MOL
REMARK 927      BINDING AFFINITY PREDICTED BY RF-SCORE:    0.00 PKD
ROOT
HETATM    1 CA   UNL     1     -11.220  17.884  65.097  1.00  0.00    -0.447 Ca 
HETATM    2  O   UNL     2     -11.672  16.380  63.636  1.00  0.00    -1.520 OA 
HETATM    3  C   UNL     2     -12.410  15.352  64.366  1.00  0.00    -0.077 C  
HETATM    4  H   UNL     2     -12.252  16.931  63.123  1.00  0.00     0.000 HD 
ENDROOT
BRANCH   3   5
HETATM    5  C   UNL     2     -11.466  14.456  65.199  1.00  0.00    -0.362 C  
BRANCH   5   6
HETATM    6  C   UNL     2     -11.261  14.919  66.635  1.00  0.00    -0.340 C  
HETATM    7  H   UNL     2     -11.766  14.301  68.472  1.00  0.00     0.000 HD 
HETATM    8  O   UNL     2     -11.894  14.012  67.577  1.00  0.00    -0.365 OA 
ENDBRANCH   5   6
BRANCH   5   9
HETATM    9  O   UNL     2     -11.961  13.138  65.272  1.00  0.00    -0.352 OA 
HETATM   10  O   UNL     2      -9.952  12.845  64.301  1.00  0.00    -0.271 OA 
HETATM   11  P   UNL     2     -11.256  12.018  64.157  1.00  0.00    -0.423 P  
HETATM   12  O   UNL     2     -12.386  12.530  63.228  1.00  0.00    -0.559 OA 
HETATM   13  O   UNL     2     -10.626  11.017  63.159  1.00  0.00    -0.254 OA 
ENDBRANCH   5   9
ENDBRANCH   3   5
TORSDOF 3
ENDMDL
MODEL       30
REMARK 921   NORMALIZED FREE ENERGY PREDICTED BY IDOCK:   -3.75 KCAL/MOL
REMARK 922        TOTAL FREE ENERGY PREDICTED BY IDOCK:   -4.87 KCAL/MOL
REMARK 923 INTER-LIGAND FREE ENERGY PREDICTED BY IDOCK:   -4.55 KCAL/MOL
REMARK 924 INTRA-LIGAND FREE ENERGY PREDICTED BY IDOCK:   -0.32 KCAL/MOL
REMARK 927      BINDING AFFINITY PREDICTED BY RF-SCORE:    0.00 PKD
ROOT
HETATM    1 CA   UNL     1      -9.732  20.844  64.784  1.00  0.00    -0.559 Ca 
HETATM    2  O   UNL     2      -9.823  20.765  66.926  1.00  0.00    -0.618 OA 
HETATM    3  C   UNL     2      -8.600  20.076  67.332  1.00  0.00    -0.341 C  
HETATM    4  H   UNL     2      -9.754  21.705  67.048  1.00  0.00     0.000 HD 
ENDROOT
BRANCH   3   5
HETATM    5  C   UNL     2      -8.714  18.549  67.134  1.00  0.00    -0.270 C  
BRANCH   5   6
HETATM    6  C   UNL     2      -8.033  17.720  68.215  1.00  0.00    -0.282 C  
HETATM    7  H   UNL     2      -8.583  16.551  69.746  1.00  0.00     0.000 HD 
HETATM    8  O   UNL     2      -9.008  17.067  69.071  1.00  0.00    -0.238 OA 
ENDBRANCH   5   6
BRANCH   5   9
HETATM    9  O   UNL     2     -10.064  18.144  67.114  1.00  0.00    -0.320 OA 
HETATM   10  O   UNL     2      -9.165  16.907  65.461  1.00  0.00    -0.443 OA 
HETATM   11  P   UNL     2     -10.608  17.452  65.624  1.00  0.00     0.184 P  
HETATM   12  O   UNL     2     -10.910  18.930  65.272  1.00  0.00    -0.559 OA 
HETATM   13  O   UNL     2     -11.095  16.834  64.291  1.00  0.00    -1.106 OA 
ENDBRANCH   5   9
ENDBRANCH   3   5
TORSDOF 3
ENDMDL
MODEL       31
REMARK 921   NORMALIZED FREE ENERGY PREDICTED BY IDOCK:   -3.74 KCAL/MOL
REMARK 922        TOTAL FREE ENERGY PREDICTED BY IDOCK:   -4.85 KCAL/MOL
REMARK 923 INTER-LIGAND FREE ENERGY PREDICTED BY IDOCK:   -4.54 KCAL/MOL
REMARK 924 INTRA-LIGAND FREE ENERGY PREDICTED BY IDOCK:   -0.31 KCAL/MOL
REMARK 927      BINDING AFFINITY PREDICTED BY RF-SCORE:    0.00 PKD
ROOT
HETATM    1 CA   UNL     1     -11.188  12.768  70.401  1.00  0.00    -0.461 Ca 
HETATM    2  O   UNL     2      -9.556  12.350  69.072  1.00  0.00    -0.397 OA 
HETATM    3  C   UNL     2      -9.970  12.896  67.781  1.00  0.00    -0.230 C  
HETATM    4  H   UNL     2      -8.940  12.923  69.513  1.00  0.00     0.000 HD 
ENDROOT
BRANCH   3   5
HETATM    5  C   UNL     2     -10.973  11.965  67.064  1.00  0.00    -0.278 C  
BRANCH   5   6
HETATM    6  C   UNL     2     -11.317  10.696  67.833  1.00  0.00    -0.268 C  
HETATM    7  H   UNL     2     -12.412  10.189  69.432  1.00  0.00     0.000 HD 
HETATM    8  O   UNL     2     -12.198  10.980  68.952  1.00  0.00    -0.519 OA 
ENDBRANCH   5   6
BRANCH   5   9
HETATM    9  O   UNL     2     -12.194  12.629  66.827  1.00  0.00    -0.506 OA 
HETATM   10  O   UNL     2     -11.532  12.081  64.747  1.00  0.00    -0.322 OA 
HETATM   11  P   UNL     2     -12.387  13.279  65.235  1.00  0.00    -0.478 P  
HETATM   12  O   UNL     2     -11.687  14.511  65.862  1.00  0.00    -0.361 OA 
HETATM   13  O   UNL     2     -12.560  13.860  63.811  1.00  0.00    -0.721 OA 
ENDBRANCH   5   9
ENDBRANCH   3   5
TORSDOF 3
ENDMDL
MODEL       32
REMARK 921   NORMALIZED FREE ENERGY PREDICTED BY IDOCK:   -3.71 KCAL/MOL
REMARK 922        TOTAL FREE ENERGY PREDICTED BY IDOCK:   -4.81 KCAL/MOL
REMARK 923 INTER-LIGAND FREE ENERGY PREDICTED BY IDOCK:   -4.43 KCAL/MOL
REMARK 924 INTRA-LIGAND FREE ENERGY PREDICTED BY IDOCK:   -0.39 KCAL/MOL
REMARK 927      BINDING AFFINITY PREDICTED BY RF-SCORE:    0.00 PKD
ROOT
HETATM    1 CA   UNL     1      -8.311  12.850  66.001  1.00  0.00    -0.386 Ca 
HETATM    2  O   UNL     2      -9.800  14.045  65.022  1.00  0.00    -0.588 OA 
HETATM    3  C   UNL     2     -10.912  14.113  65.967  1.00  0.00    -0.304 C  
HETATM    4  H   UNL     2      -9.286  14.843  65.028  1.00  0.00     0.000 HD 
ENDROOT
BRANCH   3   5
HETATM    5  C   UNL     2     -11.749  12.814  65.957  1.00  0.00    -0.418 C  
BRANCH   5   6
HETATM    6  C   UNL     2     -12.598  12.620  64.707  1.00  0.00    -0.454 C  
HETATM    7  H   UNL     2     -13.184  13.716  63.136  1.00  0.00     0.000 HD 
HETATM    8  O   UNL     2     -12.655  13.837  63.915  1.00  0.00    -0.701 OA 
ENDBRANCH   5   6
BRANCH   5   9
HETATM    9  O   UNL     2     -10.918  11.680  66.053  1.00  0.00    -0.289 OA 
HETATM   10  O   UNL     2     -12.124  11.556  67.950  1.00  0.00    -0.630 OA 
HETATM   11  P   UNL     2     -10.681  11.069  67.655  1.00  0.00    -0.277 P  
HETATM   12  O   UNL     2      -9.515  12.087  67.664  1.00  0.00    -0.177 OA 
HETATM   13  O   UNL     2     -10.470  10.522  69.088  1.00  0.00    -0.202 OA 
ENDBRANCH   5   9
ENDBRANCH   3   5
TORSDOF 3
ENDMDL
MODEL       33
REMARK 921   NORMALIZED FREE ENERGY PREDICTED BY IDOCK:   -3.70 KCAL/MOL
REMARK 922        TOTAL FREE ENERGY PREDICTED BY IDOCK:   -4.81 KCAL/MOL
REMARK 923 INTER-LIGAND FREE ENERGY PREDICTED BY IDOCK:   -4.62 KCAL/MOL
REMARK 924 INTRA-LIGAND FREE ENERGY PREDICTED BY IDOCK:   -0.19 KCAL/MOL
REMARK 927      BINDING AFFINITY PREDICTED BY RF-SCORE:    0.00 PKD
ROOT
HETATM    1 CA   UNL     1      -8.735  11.822  63.411  1.00  0.00    -0.392 Ca 
HETATM    2  O   UNL     2      -8.620  11.141  65.442  1.00  0.00    -0.336 OA 
HETATM    3  C   UNL     2      -9.952  10.622  65.744  1.00  0.00    -0.257 C  
HETATM    4  H   UNL     2      -8.003  10.441  65.262  1.00  0.00     0.000 HD 
ENDROOT
BRANCH   3   5
HETATM    5  C   UNL     2     -10.955  11.760  66.036  1.00  0.00    -0.306 C  
BRANCH   5   6
HETATM    6  C   UNL     2     -11.082  12.125  67.510  1.00  0.00    -0.275 C  
HETATM    7  H   UNL     2     -12.354  11.766  69.015  1.00  0.00     0.000 HD 
HETATM    8  O   UNL     2     -12.274  11.538  68.097  1.00  0.00    -0.576 OA 
ENDBRANCH   5   6
BRANCH   5   9
HETATM    9  O   UNL     2     -10.582  12.942  65.364  1.00  0.00    -0.279 OA 
HETATM   10  O   UNL     2     -12.801  12.853  64.991  1.00  0.00    -0.699 OA 
HETATM   11  P   UNL     2     -11.669  13.462  64.122  1.00  0.00    -0.401 P  
HETATM   12  O   UNL     2     -10.799  12.531  63.241  1.00  0.00    -0.406 OA 
HETATM   13  O   UNL     2     -12.641  13.926  63.010  1.00  0.00    -0.694 OA 
ENDBRANCH   5   9
ENDBRANCH   3   5
TORSDOF 3
ENDMDL
MODEL       34
REMARK 921   NORMALIZED FREE ENERGY PREDICTED BY IDOCK:   -3.68 KCAL/MOL
REMARK 922        TOTAL FREE ENERGY PREDICTED BY IDOCK:   -4.79 KCAL/MOL
REMARK 923 INTER-LIGAND FREE ENERGY PREDICTED BY IDOCK:   -4.56 KCAL/MOL
REMARK 924 INTRA-LIGAND FREE ENERGY PREDICTED BY IDOCK:   -0.23 KCAL/MOL
REMARK 927      BINDING AFFINITY PREDICTED BY RF-SCORE:    0.00 PKD
ROOT
HETATM    1 CA   UNL     1      -8.667  12.287  64.892  1.00  0.00    -0.381 Ca 
HETATM    2  O   UNL     2      -8.718  13.882  66.326  1.00  0.00    -0.434 OA 
HETATM    3  C   UNL     2      -9.472  13.349  67.458  1.00  0.00    -0.219 C  
HETATM    4  H   UNL     2      -7.783  13.876  66.493  1.00  0.00     0.000 HD 
ENDROOT
BRANCH   3   5
HETATM    5  C   UNL     2     -10.993  13.360  67.187  1.00  0.00    -0.280 C  
BRANCH   5   6
HETATM    6  C   UNL     2     -11.854  13.558  68.427  1.00  0.00    -0.373 C  
HETATM    7  H   UNL     2     -12.478  12.459  69.982  1.00  0.00     0.000 HD 
HETATM    8  O   UNL     2     -11.940  12.336  69.209  1.00  0.00    -0.296 OA 
ENDBRANCH   5   6
BRANCH   5   9
HETATM    9  O   UNL     2     -11.336  14.397  66.295  1.00  0.00    -0.335 OA 
HETATM   10  O   UNL     2     -12.609  12.690  65.564  1.00  0.00    -0.634 OA 
HETATM   11  P   UNL     2     -11.999  13.883  64.782  1.00  0.00    -0.447 P  
HETATM   12  O   UNL     2     -10.509  13.839  64.363  1.00  0.00    -0.422 OA 
HETATM   13  O   UNL     2     -12.593  13.423  63.428  1.00  0.00    -0.738 OA 
ENDBRANCH   5   9
ENDBRANCH   3   5
TORSDOF 3
ENDMDL
MODEL       35
REMARK 921   NORMALIZED FREE ENERGY PREDICTED BY IDOCK:   -3.65 KCAL/MOL
REMARK 922        TOTAL FREE ENERGY PREDICTED BY IDOCK:   -4.75 KCAL/MOL
REMARK 923 INTER-LIGAND FREE ENERGY PREDICTED BY IDOCK:   -4.32 KCAL/MOL
REMARK 924 INTRA-LIGAND FREE ENERGY PREDICTED BY IDOCK:   -0.42 KCAL/MOL
REMARK 927      BINDING AFFINITY PREDICTED BY RF-SCORE:    0.00 PKD
ROOT
HETATM    1 CA   UNL     1     -11.068  12.530  70.355  1.00  0.00    -0.475 Ca 
HETATM    2  O   UNL     2     -11.102  14.615  70.860  1.00  0.00    -0.517 OA 
HETATM    3  C   UNL     2     -12.147  15.192  70.018  1.00  0.00    -0.345 C  
HETATM    4  H   UNL     2     -11.404  14.481  71.751  1.00  0.00     0.000 HD 
ENDROOT
BRANCH   3   5
HETATM    5  C   UNL     2     -11.655  15.410  68.570  1.00  0.00    -0.359 C  
BRANCH   5   6
HETATM    6  C   UNL     2     -10.845  16.684  68.363  1.00  0.00    -0.361 C  
HETATM    7  H   UNL     2      -9.058  17.402  68.913  1.00  0.00     0.000 HD 
HETATM    8  O   UNL     2      -9.563  16.608  69.042  1.00  0.00    -0.258 OA 
ENDBRANCH   5   6
BRANCH   5   9
HETATM    9  O   UNL     2     -10.833  14.344  68.153  1.00  0.00    -0.236 OA 
HETATM   10  O   UNL     2     -12.376  14.431  66.516  1.00  0.00    -0.411 OA 
HETATM   11  P   UNL     2     -11.571  13.223  67.060  1.00  0.00    -0.391 P  
HETATM   12  O   UNL     2     -12.020  12.536  68.374  1.00  0.00    -0.322 OA 
HETATM   13  O   UNL     2     -12.231  12.220  66.083  1.00  0.00    -0.647 OA 
ENDBRANCH   5   9
ENDBRANCH   3   5
TORSDOF 3
ENDMDL
MODEL       36
REMARK 921   NORMALIZED FREE ENERGY PREDICTED BY IDOCK:   -3.64 KCAL/MOL
REMARK 922        TOTAL FREE ENERGY PREDICTED BY IDOCK:   -4.74 KCAL/MOL
REMARK 923 INTER-LIGAND FREE ENERGY PREDICTED BY IDOCK:   -4.28 KCAL/MOL
REMARK 924 INTRA-LIGAND FREE ENERGY PREDICTED BY IDOCK:   -0.45 KCAL/MOL
REMARK 927      BINDING AFFINITY PREDICTED BY RF-SCORE:    0.00 PKD
ROOT
HETATM    1 CA   UNL     1     -12.155   7.362  73.447  1.00  0.00    -0.535 Ca 
HETATM    2  O   UNL     2     -13.544   8.962  73.107  1.00  0.00    -0.997 OA 
HETATM    3  C   UNL     2     -13.673   9.048  71.654  1.00  0.00    -0.387 C  
HETATM    4  H   UNL     2     -14.285   8.515  73.499  1.00  0.00     0.000 HD 
ENDROOT
BRANCH   3   5
HETATM    5  C   UNL     2     -12.469   9.774  71.016  1.00  0.00    -0.323 C  
BRANCH   5   6
HETATM    6  C   UNL     2     -12.537  11.294  71.089  1.00  0.00    -0.397 C  
HETATM    7  H   UNL     2     -13.455  12.679  72.208  1.00  0.00     0.000 HD 
HETATM    8  O   UNL     2     -13.412  11.731  72.163  1.00  0.00    -0.446 OA 
ENDBRANCH   5   6
BRANCH   5   9
HETATM    9  O   UNL     2     -11.265   9.400  71.648  1.00  0.00    -0.370 OA 
HETATM   10  O   UNL     2     -10.781   9.099  69.470  1.00  0.00    -0.228 OA 
HETATM   11  P   UNL     2     -10.233   8.365  70.722  1.00  0.00    -0.208 P  
HETATM   12  O   UNL     2     -11.081   7.250  71.384  1.00  0.00    -0.239 OA 
HETATM   13  O   UNL     2      -9.310   7.438  69.894  1.00  0.00    -0.155 OA 
ENDBRANCH   5   9
ENDBRANCH   3   5
TORSDOF 3
ENDMDL
MODEL       37
REMARK 921   NORMALIZED FREE ENERGY PREDICTED BY IDOCK:   -3.64 KCAL/MOL
REMARK 922        TOTAL FREE ENERGY PREDICTED BY IDOCK:   -4.73 KCAL/MOL
REMARK 923 INTER-LIGAND FREE ENERGY PREDICTED BY IDOCK:   -4.45 KCAL/MOL
REMARK 924 INTRA-LIGAND FREE ENERGY PREDICTED BY IDOCK:   -0.29 KCAL/MOL
REMARK 927      BINDING AFFINITY PREDICTED BY RF-SCORE:    0.00 PKD
ROOT
HETATM    1 CA   UNL     1      -9.022  12.147  64.960  1.00  0.00    -0.388 Ca 
HETATM    2  O   UNL     2      -9.553  11.656  66.979  1.00  0.00    -0.181 OA 
HETATM    3  C   UNL     2     -11.008  11.516  66.965  1.00  0.00    -0.294 C  
HETATM    4  H   UNL     2      -9.120  10.810  66.978  1.00  0.00     0.000 HD 
ENDROOT
BRANCH   3   5
HETATM    5  C   UNL     2     -11.713  12.890  66.967  1.00  0.00    -0.385 C  
BRANCH   5   6
HETATM    6  C   UNL     2     -11.724  13.591  68.320  1.00  0.00    -0.359 C  
HETATM    7  H   UNL     2     -11.806  15.470  69.008  1.00  0.00     0.000 HD 
HETATM    8  O   UNL     2     -11.800  15.033  68.165  1.00  0.00    -0.334 OA 
ENDBRANCH   5   6
BRANCH   5   9
HETATM    9  O   UNL     2     -11.090  13.776  66.065  1.00  0.00    -0.290 OA 
HETATM   10  O   UNL     2     -13.217  13.754  65.328  1.00  0.00    -0.755 OA 
HETATM   11  P   UNL     2     -11.895  13.975  64.547  1.00  0.00    -0.427 P  
HETATM   12  O   UNL     2     -11.031  12.753  64.147  1.00  0.00    -0.348 OA 
HETATM   13  O   UNL     2     -12.616  14.153  63.188  1.00  0.00    -0.686 OA 
ENDBRANCH   5   9
ENDBRANCH   3   5
TORSDOF 3
ENDMDL
MODEL       38
REMARK 921   NORMALIZED FREE ENERGY PREDICTED BY IDOCK:   -3.63 KCAL/MOL
REMARK 922        TOTAL FREE ENERGY PREDICTED BY IDOCK:   -4.73 KCAL/MOL
REMARK 923 INTER-LIGAND FREE ENERGY PREDICTED BY IDOCK:   -4.62 KCAL/MOL
REMARK 924 INTRA-LIGAND FREE ENERGY PREDICTED BY IDOCK:   -0.10 KCAL/MOL
REMARK 927      BINDING AFFINITY PREDICTED BY RF-SCORE:    0.00 PKD
ROOT
HETATM    1 CA   UNL     1      -8.991  14.045  69.543  1.00  0.00    -0.348 Ca 
HETATM    2  O   UNL     2     -10.484  12.557  69.146  1.00  0.00    -0.429 OA 
HETATM    3  C   UNL     2     -10.715  12.628  67.705  1.00  0.00    -0.218 C  
HETATM    4  H   UNL     2      -9.932  11.819  69.377  1.00  0.00     0.000 HD 
ENDROOT
BRANCH   3   5
HETATM    5  C   UNL     2     -11.613  13.827  67.329  1.00  0.00    -0.361 C  
BRANCH   5   6
HETATM    6  C   UNL     2     -11.770  14.867  68.431  1.00  0.00    -0.309 C  
HETATM    7  H   UNL     2     -12.623  14.986  70.240  1.00  0.00     0.000 HD 
HETATM    8  O   UNL     2     -12.525  14.337  69.553  1.00  0.00    -0.292 OA 
ENDBRANCH   5   6
BRANCH   5   9
HETATM    9  O   UNL     2     -11.096  14.510  66.209  1.00  0.00    -0.320 OA 
HETATM   10  O   UNL     2     -13.202  14.046  65.562  1.00  0.00    -0.710 OA 
HETATM   11  P   UNL     2     -11.913  14.205  64.715  1.00  0.00    -0.468 P  
HETATM   12  O   UNL     2     -10.907  13.030  64.627  1.00  0.00    -0.315 OA 
HETATM   13  O   UNL     2     -12.644  13.932  63.377  1.00  0.00    -0.853 OA 
ENDBRANCH   5   9
ENDBRANCH   3   5
TORSDOF 3
ENDMDL
MODEL       39
REMARK 921   NORMALIZED FREE ENERGY PREDICTED BY IDOCK:   -3.60 KCAL/MOL
REMARK 922        TOTAL FREE ENERGY PREDICTED BY IDOCK:   -4.69 KCAL/MOL
REMARK 923 INTER-LIGAND FREE ENERGY PREDICTED BY IDOCK:   -4.48 KCAL/MOL
REMARK 924 INTRA-LIGAND FREE ENERGY PREDICTED BY IDOCK:   -0.21 KCAL/MOL
REMARK 927      BINDING AFFINITY PREDICTED BY RF-SCORE:    0.00 PKD
ROOT
HETATM    1 CA   UNL     1     -11.000  13.410  70.438  1.00  0.00    -0.464 Ca 
HETATM    2  O   UNL     2     -12.389  14.167  68.988  1.00  0.00    -0.521 OA 
HETATM    3  C   UNL     2     -12.101  13.424  67.764  1.00  0.00    -0.259 C  
HETATM    4  H   UNL     2     -13.161  13.833  69.429  1.00  0.00     0.000 HD 
ENDROOT
BRANCH   3   5
HETATM    5  C   UNL     2     -10.845  13.967  67.048  1.00  0.00    -0.290 C  
BRANCH   5   6
HETATM    6  C   UNL     2      -9.534  13.353  67.521  1.00  0.00    -0.219 C  
HETATM    7  H   UNL     2      -8.948  11.925  68.797  1.00  0.00     0.000 HD 
HETATM    8  O   UNL     2      -9.765  12.307  68.502  1.00  0.00    -0.203 OA 
ENDBRANCH   5   6
BRANCH   5   9
HETATM    9  O   UNL     2     -10.917  13.732  65.660  1.00  0.00    -0.284 OA 
HETATM   10  O   UNL     2     -10.827  15.979  65.763  1.00  0.00    -0.305 OA 
HETATM   11  P   UNL     2     -11.499  15.057  64.712  1.00  0.00    -0.295 P  
HETATM   12  O   UNL     2     -12.878  14.423  65.024  1.00  0.00    -0.631 OA 
HETATM   13  O   UNL     2     -12.021  16.243  63.865  1.00  0.00    -1.003 OA 
ENDBRANCH   5   9
ENDBRANCH   3   5
TORSDOF 3
ENDMDL
MODEL       40
REMARK 921   NORMALIZED FREE ENERGY PREDICTED BY IDOCK:   -3.59 KCAL/MOL
REMARK 922        TOTAL FREE ENERGY PREDICTED BY IDOCK:   -4.68 KCAL/MOL
REMARK 923 INTER-LIGAND FREE ENERGY PREDICTED BY IDOCK:   -4.60 KCAL/MOL
REMARK 924 INTRA-LIGAND FREE ENERGY PREDICTED BY IDOCK:   -0.08 KCAL/MOL
REMARK 927      BINDING AFFINITY PREDICTED BY RF-SCORE:    0.00 PKD
ROOT
HETATM    1 CA   UNL     1     -10.928  15.973  67.076  1.00  0.00    -0.301 Ca 
HETATM    2  O   UNL     2     -12.395  14.511  67.636  1.00  0.00    -0.617 OA 
HETATM    3  C   UNL     2     -11.627  13.318  67.984  1.00  0.00    -0.336 C  
HETATM    4  H   UNL     2     -12.688  14.977  68.410  1.00  0.00     0.000 HD 
ENDROOT
BRANCH   3   5
HETATM    5  C   UNL     2     -11.149  12.560  66.726  1.00  0.00    -0.279 C  
BRANCH   5   6
HETATM    6  C   UNL     2     -10.304  11.326  67.015  1.00  0.00    -0.227 C  
HETATM    7  H   UNL     2      -8.362  10.834  67.015  1.00  0.00     0.000 HD 
HETATM    8  O   UNL     2      -8.889  11.603  66.835  1.00  0.00    -0.176 OA 
ENDBRANCH   5   6
BRANCH   5   9
HETATM    9  O   UNL     2     -12.247  12.118  65.959  1.00  0.00    -0.609 OA 
HETATM   10  O   UNL     2     -10.796  12.797  64.377  1.00  0.00    -0.323 OA 
HETATM   11  P   UNL     2     -12.347  12.775  64.362  1.00  0.00    -0.395 P  
HETATM   12  O   UNL     2     -13.133  13.899  65.081  1.00  0.00    -0.773 OA 
HETATM   13  O   UNL     2     -12.436  13.363  62.932  1.00  0.00    -0.563 OA 
ENDBRANCH   5   9
ENDBRANCH   3   5
TORSDOF 3
ENDMDL
MODEL       41
REMARK 921   NORMALIZED FREE ENERGY PREDICTED BY IDOCK:   -3.59 KCAL/MOL
REMARK 922        TOTAL FREE ENERGY PREDICTED BY IDOCK:   -4.67 KCAL/MOL
REMARK 923 INTER-LIGAND FREE ENERGY PREDICTED BY IDOCK:   -4.22 KCAL/MOL
REMARK 924 INTRA-LIGAND FREE ENERGY PREDICTED BY IDOCK:   -0.45 KCAL/MOL
REMARK 927      BINDING AFFINITY PREDICTED BY RF-SCORE:    0.00 PKD
ROOT
HETATM    1 CA   UNL     1      -9.241  14.152  67.384  1.00  0.00    -0.167 Ca 
HETATM    2  O   UNL     2     -10.239  12.753  66.100  1.00  0.00    -0.263 OA 
HETATM    3  C   UNL     2     -10.263  13.394  64.787  1.00  0.00    -0.318 C  
HETATM    4  H   UNL     2      -9.561  12.090  66.154  1.00  0.00     0.000 HD 
ENDROOT
BRANCH   3   5
HETATM    5  C   UNL     2     -11.365  14.472  64.699  1.00  0.00    -0.370 C  
BRANCH   5   6
HETATM    6  C   UNL     2     -12.770  13.922  64.490  1.00  0.00    -0.071 C  
HETATM    7  H   UNL     2     -13.785  12.254  64.939  1.00  0.00     0.000 HD 
HETATM    8  O   UNL     2     -12.909  12.597  65.070  1.00  0.00    -0.765 OA 
ENDBRANCH   5   6
BRANCH   5   9
HETATM    9  O   UNL     2     -11.410  15.241  65.879  1.00  0.00    -0.292 OA 
HETATM   10  O   UNL     2     -11.258  16.819  64.280  1.00  0.00    -1.163 OA 
HETATM   11  P   UNL     2     -10.756  16.838  65.748  1.00  0.00     0.043 P  
HETATM   12  O   UNL     2      -9.434  16.117  66.112  1.00  0.00    -0.280 OA 
HETATM   13  O   UNL     2     -10.171  18.266  65.631  1.00  0.00    -0.573 OA 
ENDBRANCH   5   9
ENDBRANCH   3   5
TORSDOF 3
ENDMDL
MODEL       42
REMARK 921   NORMALIZED FREE ENERGY PREDICTED BY IDOCK:   -3.55 KCAL/MOL
REMARK 922        TOTAL FREE ENERGY PREDICTED BY IDOCK:   -4.63 KCAL/MOL
REMARK 923 INTER-LIGAND FREE ENERGY PREDICTED BY IDOCK:   -4.66 KCAL/MOL
REMARK 924 INTRA-LIGAND FREE ENERGY PREDICTED BY IDOCK:    0.03 KCAL/MOL
REMARK 927      BINDING AFFINITY PREDICTED BY RF-SCORE:    0.00 PKD
ROOT
HETATM    1 CA   UNL     1      -9.835  12.533  69.396  1.00  0.00    -0.388 Ca 
HETATM    2  O   UNL     2     -11.682  12.431  70.483  1.00  0.00    -0.525 OA 
HETATM    3  C   UNL     2     -12.526  13.469  69.895  1.00  0.00    -0.134 C  
HETATM    4  H   UNL     2     -11.919  11.566  70.167  1.00  0.00     0.000 HD 
ENDROOT
BRANCH   3   5
HETATM    5  C   UNL     2     -12.142  14.874  70.408  1.00  0.00    -0.330 C  
BRANCH   5   6
HETATM    6  C   UNL     2     -11.775  15.867  69.313  1.00  0.00    -0.353 C  
HETATM    7  H   UNL     2     -11.472  15.837  67.333  1.00  0.00     0.000 HD 
HETATM    8  O   UNL     2     -11.702  15.218  68.015  1.00  0.00    -0.342 OA 
ENDBRANCH   5   6
BRANCH   5   9
HETATM    9  O   UNL     2     -13.206  15.454  71.129  1.00  0.00    -0.462 OA 
HETATM   10  O   UNL     2     -11.462  15.751  72.521  1.00  0.00    -0.402 OA 
HETATM   11  P   UNL     2     -12.969  15.564  72.839  1.00  0.00    -0.594 P  
HETATM   12  O   UNL     2     -13.582  14.141  72.821  1.00  0.00    -0.596 OA 
HETATM   13  O   UNL     2     -12.756  15.662  74.370  1.00  0.00    -0.532 OA 
ENDBRANCH   5   9
ENDBRANCH   3   5
TORSDOF 3
ENDMDL
MODEL       43
REMARK 921   NORMALIZED FREE ENERGY PREDICTED BY IDOCK:   -3.53 KCAL/MOL
REMARK 922        TOTAL FREE ENERGY PREDICTED BY IDOCK:   -4.61 KCAL/MOL
REMARK 923 INTER-LIGAND FREE ENERGY PREDICTED BY IDOCK:   -4.34 KCAL/MOL
REMARK 924 INTRA-LIGAND FREE ENERGY PREDICTED BY IDOCK:   -0.26 KCAL/MOL
REMARK 927      BINDING AFFINITY PREDICTED BY RF-SCORE:    0.00 PKD
ROOT
HETATM    1 CA   UNL     1     -13.055  15.231  69.731  1.00  0.00    -0.502 Ca 
HETATM    2  O   UNL     2     -11.052  15.925  69.403  1.00  0.00    -0.274 OA 
HETATM    3  C   UNL     2     -11.036  16.393  68.018  1.00  0.00    -0.327 C  
HETATM    4  H   UNL     2     -11.111  16.648  70.016  1.00  0.00     0.000 HD 
ENDROOT
BRANCH   3   5
HETATM    5  C   UNL     2     -10.940  15.218  67.020  1.00  0.00    -0.324 C  
BRANCH   5   6
HETATM    6  C   UNL     2     -10.160  15.531  65.750  1.00  0.00    -0.360 C  
HETATM    7  H   UNL     2     -10.363  16.714  64.147  1.00  0.00     0.000 HD 
HETATM    8  O   UNL     2     -10.849  16.519  64.939  1.00  0.00    -0.684 OA 
ENDBRANCH   5   6
BRANCH   5   9
HETATM    9  O   UNL     2     -10.305  14.106  67.613  1.00  0.00    -0.239 OA 
HETATM   10  O   UNL     2     -11.967  13.144  66.438  1.00  0.00    -0.384 OA 
HETATM   11  P   UNL     2     -11.280  12.683  67.750  1.00  0.00    -0.316 P  
HETATM   12  O   UNL     2     -11.693  13.330  69.095  1.00  0.00    -0.289 OA 
HETATM   13  O   UNL     2     -12.152  11.410  67.873  1.00  0.00    -0.646 OA 
ENDBRANCH   5   9
ENDBRANCH   3   5
TORSDOF 3
ENDMDL
MODEL       44
REMARK 921   NORMALIZED FREE ENERGY PREDICTED BY IDOCK:   -3.52 KCAL/MOL
REMARK 922        TOTAL FREE ENERGY PREDICTED BY IDOCK:   -4.59 KCAL/MOL
REMARK 923 INTER-LIGAND FREE ENERGY PREDICTED BY IDOCK:   -4.30 KCAL/MOL
REMARK 924 INTRA-LIGAND FREE ENERGY PREDICTED BY IDOCK:   -0.29 KCAL/MOL
REMARK 927      BINDING AFFINITY PREDICTED BY RF-SCORE:    0.00 PKD
ROOT
HETATM    1 CA   UNL     1     -12.528  12.076  69.686  1.00  0.00    -0.265 Ca 
HETATM    2  O   UNL     2     -12.117  10.782  68.024  1.00  0.00    -0.778 OA 
HETATM    3  C   UNL     2     -10.922  11.341  67.395  1.00  0.00    -0.282 C  
HETATM    4  H   UNL     2     -11.910  10.023  68.557  1.00  0.00     0.000 HD 
ENDROOT
BRANCH   3   5
HETATM    5  C   UNL     2     -11.258  12.575  66.529  1.00  0.00    -0.307 C  
BRANCH   5   6
HETATM    6  C   UNL     2     -11.855  12.247  65.167  1.00  0.00    -0.350 C  
HETATM    7  H   UNL     2     -13.511  12.697  64.133  1.00  0.00     0.000 HD 
HETATM    8  O   UNL     2     -13.138  12.902  64.982  1.00  0.00    -0.794 OA 
ENDBRANCH   5   6
BRANCH   5   9
HETATM    9  O   UNL     2     -12.191  13.408  67.182  1.00  0.00    -0.348 OA 
HETATM   10  O   UNL     2     -10.487  14.821  66.773  1.00  0.00    -0.274 OA 
HETATM   11  P   UNL     2     -11.529  14.825  67.922  1.00  0.00    -0.346 P  
HETATM   12  O   UNL     2     -11.338  13.871  69.128  1.00  0.00    -0.259 OA 
HETATM   13  O   UNL     2     -10.936  16.092  68.584  1.00  0.00    -0.297 OA 
ENDBRANCH   5   9
ENDBRANCH   3   5
TORSDOF 3
ENDMDL
MODEL       45
REMARK 921   NORMALIZED FREE ENERGY PREDICTED BY IDOCK:   -3.46 KCAL/MOL
REMARK 922        TOTAL FREE ENERGY PREDICTED BY IDOCK:   -4.52 KCAL/MOL
REMARK 923 INTER-LIGAND FREE ENERGY PREDICTED BY IDOCK:   -4.20 KCAL/MOL
REMARK 924 INTRA-LIGAND FREE ENERGY PREDICTED BY IDOCK:   -0.32 KCAL/MOL
REMARK 927      BINDING AFFINITY PREDICTED BY RF-SCORE:    0.00 PKD
ROOT
HETATM    1 CA   UNL     1      -8.512  13.439  65.723  1.00  0.00    -0.366 Ca 
HETATM    2  O   UNL     2     -10.072  13.977  64.353  1.00  0.00    -0.706 OA 
HETATM    3  C   UNL     2     -10.739  15.122  64.969  1.00  0.00    -0.430 C  
HETATM    4  H   UNL     2      -9.485  14.246  63.657  1.00  0.00     0.000 HD 
ENDROOT
BRANCH   3   5
HETATM    5  C   UNL     2     -11.695  14.684  66.101  1.00  0.00    -0.313 C  
BRANCH   5   6
HETATM    6  C   UNL     2     -12.892  13.866  65.635  1.00  0.00    -0.424 C  
HETATM    7  H   UNL     2     -13.318  11.942  65.278  1.00  0.00     0.000 HD 
HETATM    8  O   UNL     2     -12.571  12.451  65.569  1.00  0.00    -0.616 OA 
ENDBRANCH   5   6
BRANCH   5   9
HETATM    9  O   UNL     2     -11.018  13.892  67.051  1.00  0.00    -0.289 OA 
HETATM   10  O   UNL     2     -11.895  15.528  68.324  1.00  0.00    -0.330 OA 
HETATM   11  P   UNL     2     -10.601  14.697  68.525  1.00  0.00    -0.259 P  
HETATM   12  O   UNL     2      -9.323  15.071  67.732  1.00  0.00    -0.184 OA 
HETATM   13  O   UNL     2     -10.227  15.417  69.843  1.00  0.00    -0.282 OA 
ENDBRANCH   5   9
ENDBRANCH   3   5
TORSDOF 3
ENDMDL
MODEL       46
REMARK 921   NORMALIZED FREE ENERGY PREDICTED BY IDOCK:   -3.45 KCAL/MOL
REMARK 922        TOTAL FREE ENERGY PREDICTED BY IDOCK:   -4.51 KCAL/MOL
REMARK 923 INTER-LIGAND FREE ENERGY PREDICTED BY IDOCK:   -4.25 KCAL/MOL
REMARK 924 INTRA-LIGAND FREE ENERGY PREDICTED BY IDOCK:   -0.26 KCAL/MOL
REMARK 927      BINDING AFFINITY PREDICTED BY RF-SCORE:    0.00 PKD
ROOT
HETATM    1 CA   UNL     1     -10.382  16.339  67.288  1.00  0.00    -0.242 Ca 
HETATM    2  O   UNL     2      -9.764  14.896  68.751  1.00  0.00    -0.213 OA 
HETATM    3  C   UNL     2      -9.676  13.633  68.023  1.00  0.00    -0.226 C  
HETATM    4  H   UNL     2      -8.906  15.280  68.892  1.00  0.00     0.000 HD 
ENDROOT
BRANCH   3   5
HETATM    5  C   UNL     2     -11.070  13.008  67.794  1.00  0.00    -0.262 C  
BRANCH   5   6
HETATM    6  C   UNL     2     -11.699  12.396  69.039  1.00  0.00    -0.323 C  
HETATM    7  H   UNL     2     -12.578  10.671  69.553  1.00  0.00     0.000 HD 
HETATM    8  O   UNL     2     -12.186  11.052  68.777  1.00  0.00    -0.546 OA 
ENDBRANCH   5   6
BRANCH   5   9
HETATM    9  O   UNL     2     -11.982  13.975  67.323  1.00  0.00    -0.390 OA 
HETATM   10  O   UNL     2     -12.071  12.402  65.714  1.00  0.00    -0.561 OA 
HETATM   11  P   UNL     2     -12.289  13.935  65.620  1.00  0.00    -0.483 P  
HETATM   12  O   UNL     2     -11.062  14.879  65.572  1.00  0.00    -0.329 OA 
HETATM   13  O   UNL     2     -12.564  13.899  64.097  1.00  0.00    -0.675 OA 
ENDBRANCH   5   9
ENDBRANCH   3   5
TORSDOF 3
ENDMDL
MODEL       47
REMARK 921   NORMALIZED FREE ENERGY PREDICTED BY IDOCK:   -3.45 KCAL/MOL
REMARK 922        TOTAL FREE ENERGY PREDICTED BY IDOCK:   -4.51 KCAL/MOL
REMARK 923 INTER-LIGAND FREE ENERGY PREDICTED BY IDOCK:   -4.22 KCAL/MOL
REMARK 924 INTRA-LIGAND FREE ENERGY PREDICTED BY IDOCK:   -0.29 KCAL/MOL
REMARK 927      BINDING AFFINITY PREDICTED BY RF-SCORE:    0.00 PKD
ROOT
HETATM    1 CA   UNL     1      -7.920  16.645  66.974  1.00  0.00    -0.138 Ca 
HETATM    2  O   UNL     2      -9.487  16.738  65.512  1.00  0.00    -0.490 OA 
HETATM    3  C   UNL     2     -10.581  15.953  66.079  1.00  0.00    -0.323 C  
HETATM    4  H   UNL     2      -9.638  17.672  65.610  1.00  0.00     0.000 HD 
ENDROOT
BRANCH   3   5
HETATM    5  C   UNL     2     -10.336  14.436  65.921  1.00  0.00    -0.314 C  
BRANCH   5   6
HETATM    6  C   UNL     2      -9.193  13.890  66.766  1.00  0.00    -0.254 C  
HETATM    7  H   UNL     2      -8.196  14.421  68.420  1.00  0.00     0.000 HD 
HETATM    8  O   UNL     2      -8.908  14.761  67.894  1.00  0.00    -0.160 OA 
ENDBRANCH   5   6
BRANCH   5   9
HETATM    9  O   UNL     2     -11.484  13.702  66.282  1.00  0.00    -0.316 OA 
HETATM   10  O   UNL     2     -10.845  12.691  64.374  1.00  0.00    -0.312 OA 
HETATM   11  P   UNL     2     -12.261  12.857  64.987  1.00  0.00    -0.489 P  
HETATM   12  O   UNL     2     -13.013  14.200  64.819  1.00  0.00    -0.674 OA 
HETATM   13  O   UNL     2     -12.955  12.101  63.828  1.00  0.00    -0.753 OA 
ENDBRANCH   5   9
ENDBRANCH   3   5
TORSDOF 3
ENDMDL
MODEL       48
REMARK 921   NORMALIZED FREE ENERGY PREDICTED BY IDOCK:   -3.45 KCAL/MOL
REMARK 922        TOTAL FREE ENERGY PREDICTED BY IDOCK:   -4.51 KCAL/MOL
REMARK 923 INTER-LIGAND FREE ENERGY PREDICTED BY IDOCK:   -4.47 KCAL/MOL
REMARK 924 INTRA-LIGAND FREE ENERGY PREDICTED BY IDOCK:   -0.04 KCAL/MOL
REMARK 927      BINDING AFFINITY PREDICTED BY RF-SCORE:    0.00 PKD
ROOT
HETATM    1 CA   UNL     1     -10.929  17.703  67.215  1.00  0.00    -0.331 Ca 
HETATM    2  O   UNL     2     -10.822  15.619  67.711  1.00  0.00    -0.292 OA 
HETATM    3  C   UNL     2     -10.070  15.007  66.618  1.00  0.00    -0.261 C  
HETATM    4  H   UNL     2     -10.281  15.743  68.483  1.00  0.00     0.000 HD 
ENDROOT
BRANCH   3   5
HETATM    5  C   UNL     2     -10.949  14.805  65.364  1.00  0.00    -0.359 C  
BRANCH   5   6
HETATM    6  C   UNL     2     -11.241  16.081  64.586  1.00  0.00    -0.330 C  
HETATM    7  H   UNL     2     -10.661  17.998  64.621  1.00  0.00     0.000 HD 
HETATM    8  O   UNL     2     -10.478  17.202  65.106  1.00  0.00    -0.666 OA 
ENDBRANCH   5   6
BRANCH   5   9
HETATM    9  O   UNL     2     -10.334  13.918  64.457  1.00  0.00    -0.436 OA 
HETATM   10  O   UNL     2     -12.520  13.640  63.996  1.00  0.00    -0.659 OA 
HETATM   11  P   UNL     2     -11.342  12.639  63.873  1.00  0.00    -0.501 P  
HETATM   12  O   UNL     2     -10.823  11.912  65.139  1.00  0.00    -0.284 OA 
HETATM   13  O   UNL     2     -12.244  11.494  63.350  1.00  0.00    -0.350 OA 
ENDBRANCH   5   9
ENDBRANCH   3   5
TORSDOF 3
ENDMDL
MODEL       49
REMARK 921   NORMALIZED FREE ENERGY PREDICTED BY IDOCK:   -3.43 KCAL/MOL
REMARK 922        TOTAL FREE ENERGY PREDICTED BY IDOCK:   -4.49 KCAL/MOL
REMARK 923 INTER-LIGAND FREE ENERGY PREDICTED BY IDOCK:   -4.25 KCAL/MOL
REMARK 924 INTRA-LIGAND FREE ENERGY PREDICTED BY IDOCK:   -0.23 KCAL/MOL
REMARK 927      BINDING AFFINITY PREDICTED BY RF-SCORE:    0.00 PKD
ROOT
HETATM    1 CA   UNL     1     -11.680  10.953  62.520  1.00  0.00    -0.798 Ca 
HETATM    2  O   UNL     2     -13.011  12.265  63.573  1.00  0.00    -0.776 OA 
HETATM    3  C   UNL     2     -12.248  13.495  63.775  1.00  0.00    -0.388 C  
HETATM    4  H   UNL     2     -13.630  12.350  62.858  1.00  0.00     0.000 HD 
ENDROOT
BRANCH   3   5
HETATM    5  C   UNL     2     -11.241  13.357  64.938  1.00  0.00    -0.331 C  
BRANCH   5   6
HETATM    6  C   UNL     2     -11.313  14.475  65.970  1.00  0.00    -0.341 C  
HETATM    7  H   UNL     2     -12.082  14.750  67.799  1.00  0.00     0.000 HD 
HETATM    8  O   UNL     2     -12.038  14.053  67.156  1.00  0.00    -0.423 OA 
ENDBRANCH   5   6
BRANCH   5   9
HETATM    9  O   UNL     2     -11.448  12.153  65.641  1.00  0.00    -0.347 OA 
HETATM   10  O   UNL     2      -9.227  12.455  65.846  1.00  0.00    -0.132 OA 
HETATM   11  P   UNL     2     -10.053  11.143  65.808  1.00  0.00    -0.272 P  
HETATM   12  O   UNL     2     -10.535  10.584  64.446  1.00  0.00    -0.304 OA 
HETATM   13  O   UNL     2      -8.805  10.240  65.956  1.00  0.00    -0.143 OA 
ENDBRANCH   5   9
ENDBRANCH   3   5
TORSDOF 3
ENDMDL
MODEL       50
REMARK 921   NORMALIZED FREE ENERGY PREDICTED BY IDOCK:   -3.43 KCAL/MOL
REMARK 922        TOTAL FREE ENERGY PREDICTED BY IDOCK:   -4.49 KCAL/MOL
REMARK 923 INTER-LIGAND FREE ENERGY PREDICTED BY IDOCK:   -4.52 KCAL/MOL
REMARK 924 INTRA-LIGAND FREE ENERGY PREDICTED BY IDOCK:    0.03 KCAL/MOL
REMARK 927      BINDING AFFINITY PREDICTED BY RF-SCORE:    0.00 PKD
ROOT
HETATM    1 CA   UNL     1     -12.950  14.768  64.216  1.00  0.00    -0.570 Ca 
HETATM    2  O   UNL     2     -11.290  16.120  64.083  1.00  0.00    -1.085 OA 
HETATM    3  C   UNL     2     -10.294  15.591  65.012  1.00  0.00    -0.293 C  
HETATM    4  H   UNL     2     -11.077  15.905  63.182  1.00  0.00     0.000 HD 
ENDROOT
BRANCH   3   5
HETATM    5  C   UNL     2     -10.639  15.941  66.477  1.00  0.00    -0.297 C  
BRANCH   5   6
HETATM    6  C   UNL     2     -11.326  14.821  67.248  1.00  0.00    -0.357 C  
HETATM    7  H   UNL     2     -11.436  14.186  69.145  1.00  0.00     0.000 HD 
HETATM    8  O   UNL     2     -11.008  14.884  68.664  1.00  0.00    -0.240 OA 
ENDBRANCH   5   6
BRANCH   5   9
HETATM    9  O   UNL     2      -9.475  16.267  67.202  1.00  0.00    -0.219 OA 
HETATM   10  O   UNL     2     -10.725  18.125  67.434  1.00  0.00    -0.403 OA 
HETATM   11  P   UNL     2      -9.183  17.960  67.411  1.00  0.00    -0.260 P  
HETATM   12  O   UNL     2      -8.452  17.804  66.054  1.00  0.00    -0.496 OA 
HETATM   13  O   UNL     2      -8.921  19.474  67.598  1.00  0.00    -0.299 OA 
ENDBRANCH   5   9
ENDBRANCH   3   5
TORSDOF 3
ENDMDL
MODEL       51
REMARK 921   NORMALIZED FREE ENERGY PREDICTED BY IDOCK:   -3.42 KCAL/MOL
REMARK 922        TOTAL FREE ENERGY PREDICTED BY IDOCK:   -4.48 KCAL/MOL
REMARK 923 INTER-LIGAND FREE ENERGY PREDICTED BY IDOCK:   -4.23 KCAL/MOL
REMARK 924 INTRA-LIGAND FREE ENERGY PREDICTED BY IDOCK:   -0.25 KCAL/MOL
REMARK 927      BINDING AFFINITY PREDICTED BY RF-SCORE:    0.00 PKD
ROOT
HETATM    1 CA   UNL     1     -14.363   6.861  72.562  1.00  0.00    -0.491 Ca 
HETATM    2  O   UNL     2     -13.841   8.839  73.207  1.00  0.00    -1.115 OA 
HETATM    3  C   UNL     2     -13.321   9.502  72.013  1.00  0.00    -0.452 C  
HETATM    4  H   UNL     2     -14.734   9.105  73.395  1.00  0.00     0.000 HD 
ENDROOT
BRANCH   3   5
HETATM    5  C   UNL     2     -11.870   9.070  71.707  1.00  0.00    -0.372 C  
BRANCH   5   6
HETATM    6  C   UNL     2     -11.392   7.860  72.499  1.00  0.00    -0.390 C  
HETATM    7  H   UNL     2     -11.775   5.895  72.566  1.00  0.00     0.000 HD 
HETATM    8  O   UNL     2     -12.073   6.649  72.073  1.00  0.00    -0.321 OA 
ENDBRANCH   5   6
BRANCH   5   9
HETATM    9  O   UNL     2     -11.722   8.739  70.345  1.00  0.00    -0.172 OA 
HETATM   10  O   UNL     2      -9.733   9.674  70.833  1.00  0.00    -0.225 OA 
HETATM   11  P   UNL     2     -10.512   9.634  69.492  1.00  0.00    -0.251 P  
HETATM   12  O   UNL     2     -11.682  10.622  69.260  1.00  0.00    -0.281 OA 
HETATM   13  O   UNL     2      -9.429  10.436  68.729  1.00  0.00    -0.158 OA 
ENDBRANCH   5   9
ENDBRANCH   3   5
TORSDOF 3
ENDMDL
MODEL       52
REMARK 921   NORMALIZED FREE ENERGY PREDICTED BY IDOCK:   -3.40 KCAL/MOL
REMARK 922        TOTAL FREE ENERGY PREDICTED BY IDOCK:   -4.46 KCAL/MOL
REMARK 923 INTER-LIGAND FREE ENERGY PREDICTED BY IDOCK:   -4.34 KCAL/MOL
REMARK 924 INTRA-LIGAND FREE ENERGY PREDICTED BY IDOCK:   -0.12 KCAL/MOL
REMARK 927      BINDING AFFINITY PREDICTED BY RF-SCORE:    0.00 PKD
ROOT
HETATM    1 CA   UNL     1     -11.405  18.139  65.416  1.00  0.00    -0.315 Ca 
HETATM    2  O   UNL     2     -10.678  16.452  64.307  1.00  0.00    -0.877 OA 
HETATM    3  C   UNL     2     -11.744  15.456  64.390  1.00  0.00    -0.258 C  
HETATM    4  H   UNL     2     -10.678  16.897  63.467  1.00  0.00     0.000 HD 
ENDROOT
BRANCH   3   5
HETATM    5  C   UNL     2     -11.743  14.733  65.755  1.00  0.00    -0.252 C  
BRANCH   5   6
HETATM    6  C   UNL     2     -11.868  13.218  65.666  1.00  0.00    -0.380 C  
HETATM    7  H   UNL     2     -13.124  11.884  64.856  1.00  0.00     0.000 HD 
HETATM    8  O   UNL     2     -13.047  12.829  64.911  1.00  0.00    -0.833 OA 
ENDBRANCH   5   6
BRANCH   5   9
HETATM    9  O   UNL     2     -10.550  14.993  66.460  1.00  0.00    -0.292 OA 
HETATM   10  O   UNL     2     -12.109  15.133  68.079  1.00  0.00    -0.192 OA 
HETATM   11  P   UNL     2     -10.743  15.856  67.947  1.00  0.00    -0.319 P  
HETATM   12  O   UNL     2     -10.620  17.093  67.022  1.00  0.00    -0.306 OA 
HETATM   13  O   UNL     2     -10.915  16.629  69.278  1.00  0.00    -0.311 OA 
ENDBRANCH   5   9
ENDBRANCH   3   5
TORSDOF 3
ENDMDL
MODEL       53
REMARK 921   NORMALIZED FREE ENERGY PREDICTED BY IDOCK:   -3.40 KCAL/MOL
REMARK 922        TOTAL FREE ENERGY PREDICTED BY IDOCK:   -4.45 KCAL/MOL
REMARK 923 INTER-LIGAND FREE ENERGY PREDICTED BY IDOCK:   -4.01 KCAL/MOL
REMARK 924 INTRA-LIGAND FREE ENERGY PREDICTED BY IDOCK:   -0.44 KCAL/MOL
REMARK 927      BINDING AFFINITY PREDICTED BY RF-SCORE:    0.00 PKD
ROOT
HETATM    1 CA   UNL     1      -9.698  21.087  65.672  1.00  0.00    -0.621 Ca 
HETATM    2  O   UNL     2     -10.700  19.197  65.513  1.00  0.00    -0.507 OA 
HETATM    3  C   UNL     2     -10.504  18.554  66.810  1.00  0.00    -0.394 C  
HETATM    4  H   UNL     2     -11.571  19.569  65.434  1.00  0.00     0.000 HD 
ENDROOT
BRANCH   3   5
HETATM    5  C   UNL     2      -9.089  17.948  66.939  1.00  0.00    -0.260 C  
BRANCH   5   6
HETATM    6  C   UNL     2      -8.902  16.621  66.215  1.00  0.00    -0.312 C  
HETATM    7  H   UNL     2      -9.968  15.440  64.997  1.00  0.00     0.000 HD 
HETATM    8  O   UNL     2     -10.085  16.267  65.449  1.00  0.00    -0.519 OA 
ENDBRANCH   5   6
BRANCH   5   9
HETATM    9  O   UNL     2      -8.118  18.826  66.416  1.00  0.00    -0.271 OA 
HETATM   10  O   UNL     2      -7.347  18.437  68.495  1.00  0.00    -0.268 OA 
HETATM   11  P   UNL     2      -7.189  19.689  67.593  1.00  0.00    -0.257 P  
HETATM   12  O   UNL     2      -8.355  20.704  67.486  1.00  0.00    -0.297 OA 
HETATM   13  O   UNL     2      -6.359  20.462  68.647  1.00  0.00    -0.298 OA 
ENDBRANCH   5   9
ENDBRANCH   3   5
TORSDOF 3
ENDMDL
MODEL       54
REMARK 921   NORMALIZED FREE ENERGY PREDICTED BY IDOCK:   -3.39 KCAL/MOL
REMARK 922        TOTAL FREE ENERGY PREDICTED BY IDOCK:   -4.44 KCAL/MOL
REMARK 923 INTER-LIGAND FREE ENERGY PREDICTED BY IDOCK:   -4.16 KCAL/MOL
REMARK 924 INTRA-LIGAND FREE ENERGY PREDICTED BY IDOCK:   -0.28 KCAL/MOL
REMARK 927      BINDING AFFINITY PREDICTED BY RF-SCORE:    0.00 PKD
ROOT
HETATM    1 CA   UNL     1     -10.247  12.259  62.335  1.00  0.00    -0.466 Ca 
HETATM    2  O   UNL     2     -12.065  11.528  63.208  1.00  0.00    -0.861 OA 
HETATM    3  C   UNL     2     -12.298  12.384  64.370  1.00  0.00    -0.447 C  
HETATM    4  H   UNL     2     -12.617  11.775  62.475  1.00  0.00     0.000 HD 
ENDROOT
BRANCH   3   5
HETATM    5  C   UNL     2     -11.401  11.982  65.562  1.00  0.00    -0.328 C  
BRANCH   5   6
HETATM    6  C   UNL     2     -10.359  10.920  65.238  1.00  0.00    -0.268 C  
HETATM    7  H   UNL     2      -8.809  10.704  63.987  1.00  0.00     0.000 HD 
HETATM    8  O   UNL     2      -9.459  11.367  64.189  1.00  0.00    -0.209 OA 
ENDBRANCH   5   6
BRANCH   5   9
HETATM    9  O   UNL     2     -10.693  13.097  66.055  1.00  0.00    -0.272 OA 
HETATM   10  O   UNL     2     -11.773  12.362  67.889  1.00  0.00    -0.337 OA 
HETATM   11  P   UNL     2     -11.329  13.797  67.503  1.00  0.00    -0.346 P  
HETATM   12  O   UNL     2     -12.182  14.617  66.502  1.00  0.00    -0.313 OA 
HETATM   13  O   UNL     2     -11.899  14.424  68.799  1.00  0.00    -0.309 OA 
ENDBRANCH   5   9
ENDBRANCH   3   5
TORSDOF 3
ENDMDL
MODEL       55
REMARK 921   NORMALIZED FREE ENERGY PREDICTED BY IDOCK:   -3.38 KCAL/MOL
REMARK 922        TOTAL FREE ENERGY PREDICTED BY IDOCK:   -4.43 KCAL/MOL
REMARK 923 INTER-LIGAND FREE ENERGY PREDICTED BY IDOCK:   -4.24 KCAL/MOL
REMARK 924 INTRA-LIGAND FREE ENERGY PREDICTED BY IDOCK:   -0.20 KCAL/MOL
REMARK 927      BINDING AFFINITY PREDICTED BY RF-SCORE:    0.00 PKD
ROOT
HETATM    1 CA   UNL     1      -9.923  17.524  69.506  1.00  0.00    -0.263 Ca 
HETATM    2  O   UNL     2      -9.934  19.540  68.773  1.00  0.00    -0.430 OA 
HETATM    3  C   UNL     2     -10.659  19.478  67.506  1.00  0.00    -0.474 C  
HETATM    4  H   UNL     2     -10.479  19.882  69.472  1.00  0.00     0.000 HD 
ENDROOT
BRANCH   3   5
HETATM    5  C   UNL     2      -9.773  18.923  66.369  1.00  0.00    -0.363 C  
BRANCH   5   6
HETATM    6  C   UNL     2      -8.599  19.816  65.991  1.00  0.00    -0.266 C  
HETATM    7  H   UNL     2      -6.737  19.589  65.286  1.00  0.00     0.000 HD 
HETATM    8  O   UNL     2      -7.469  19.032  65.521  1.00  0.00    -0.476 OA 
ENDBRANCH   5   6
BRANCH   5   9
HETATM    9  O   UNL     2      -9.224  17.674  66.724  1.00  0.00    -0.255 OA 
HETATM   10  O   UNL     2     -10.555  17.140  64.988  1.00  0.00    -0.704 OA 
HETATM   11  P   UNL     2     -10.137  16.293  66.219  1.00  0.00    -0.358 P  
HETATM   12  O   UNL     2     -10.853  16.512  67.575  1.00  0.00    -0.313 OA 
HETATM   13  O   UNL     2     -10.953  15.058  65.767  1.00  0.00    -0.333 OA 
ENDBRANCH   5   9
ENDBRANCH   3   5
TORSDOF 3
ENDMDL
MODEL       56
REMARK 921   NORMALIZED FREE ENERGY PREDICTED BY IDOCK:   -3.38 KCAL/MOL
REMARK 922        TOTAL FREE ENERGY PREDICTED BY IDOCK:   -4.42 KCAL/MOL
REMARK 923 INTER-LIGAND FREE ENERGY PREDICTED BY IDOCK:   -4.12 KCAL/MOL
REMARK 924 INTRA-LIGAND FREE ENERGY PREDICTED BY IDOCK:   -0.30 KCAL/MOL
REMARK 927      BINDING AFFINITY PREDICTED BY RF-SCORE:    0.00 PKD
ROOT
HETATM    1 CA   UNL     1      -8.876  11.372  69.735  1.00  0.00    -0.371 Ca 
HETATM    2  O   UNL     2      -8.762  12.502  67.916  1.00  0.00    -0.162 OA 
HETATM    3  C   UNL     2      -9.790  13.533  68.046  1.00  0.00    -0.238 C  
HETATM    4  H   UNL     2      -7.894  12.849  68.086  1.00  0.00     0.000 HD 
ENDROOT
BRANCH   3   5
HETATM    5  C   UNL     2     -11.201  12.970  67.770  1.00  0.00    -0.279 C  
BRANCH   5   6
HETATM    6  C   UNL     2     -11.907  12.407  68.997  1.00  0.00    -0.300 C  
HETATM    7  H   UNL     2     -11.560  11.007  70.387  1.00  0.00     0.000 HD 
HETATM    8  O   UNL     2     -11.120  11.358  69.623  1.00  0.00    -0.238 OA 
ENDBRANCH   5   6
BRANCH   5   9
HETATM    9  O   UNL     2     -12.047  13.969  67.248  1.00  0.00    -0.409 OA 
HETATM   10  O   UNL     2     -12.233  12.331  65.715  1.00  0.00    -0.622 OA 
HETATM   11  P   UNL     2     -12.352  13.869  65.548  1.00  0.00    -0.499 P  
HETATM   12  O   UNL     2     -11.066  14.729  65.463  1.00  0.00    -0.322 OA 
HETATM   13  O   UNL     2     -12.623  13.779  64.026  1.00  0.00    -0.685 OA 
ENDBRANCH   5   9
ENDBRANCH   3   5
TORSDOF 3
ENDMDL
MODEL       57
REMARK 921   NORMALIZED FREE ENERGY PREDICTED BY IDOCK:   -3.34 KCAL/MOL
REMARK 922        TOTAL FREE ENERGY PREDICTED BY IDOCK:   -4.39 KCAL/MOL
REMARK 923 INTER-LIGAND FREE ENERGY PREDICTED BY IDOCK:   -3.98 KCAL/MOL
REMARK 924 INTRA-LIGAND FREE ENERGY PREDICTED BY IDOCK:   -0.41 KCAL/MOL
REMARK 927      BINDING AFFINITY PREDICTED BY RF-SCORE:    0.00 PKD
ROOT
HETATM    1 CA   UNL     1     -14.098   6.736  72.611  1.00  0.00    -0.509 Ca 
HETATM    2  O   UNL     2     -12.136   5.881  72.456  1.00  0.00    -0.495 OA 
HETATM    3  C   UNL     2     -11.219   6.995  72.685  1.00  0.00    -0.272 C  
HETATM    4  H   UNL     2     -12.222   5.333  73.227  1.00  0.00     0.000 HD 
ENDROOT
BRANCH   3   5
HETATM    5  C   UNL     2     -11.080   7.887  71.432  1.00  0.00    -0.243 C  
BRANCH   5   6
HETATM    6  C   UNL     2     -10.380   7.217  70.256  1.00  0.00    -0.210 C  
HETATM    7  H   UNL     2     -10.742   5.712  68.984  1.00  0.00     0.000 HD 
HETATM    8  O   UNL     2     -11.178   6.130  69.717  1.00  0.00    -0.384 OA 
ENDBRANCH   5   6
BRANCH   5   9
HETATM    9  O   UNL     2     -12.345   8.293  70.962  1.00  0.00    -0.253 OA 
HETATM   10  O   UNL     2     -11.328  10.259  71.371  1.00  0.00    -0.218 OA 
HETATM   11  P   UNL     2     -12.832   9.886  71.430  1.00  0.00    -0.458 P  
HETATM   12  O   UNL     2     -13.386   9.143  72.672  1.00  0.00    -0.454 OA 
HETATM   13  O   UNL     2     -13.268  11.311  71.850  1.00  0.00    -0.482 OA 
ENDBRANCH   5   9
ENDBRANCH   3   5
TORSDOF 3
ENDMDL
MODEL       58
REMARK 921   NORMALIZED FREE ENERGY PREDICTED BY IDOCK:   -3.34 KCAL/MOL
REMARK 922        TOTAL FREE ENERGY PREDICTED BY IDOCK:   -4.39 KCAL/MOL
REMARK 923 INTER-LIGAND FREE ENERGY PREDICTED BY IDOCK:   -4.08 KCAL/MOL
REMARK 924 INTRA-LIGAND FREE ENERGY PREDICTED BY IDOCK:   -0.30 KCAL/MOL
REMARK 927      BINDING AFFINITY PREDICTED BY RF-SCORE:    0.00 PKD
ROOT
HETATM    1 CA   UNL     1     -11.657   8.860  67.936  1.00  0.00    -0.494 Ca 
HETATM    2  O   UNL     2     -12.503  10.639  68.786  1.00  0.00    -0.795 OA 
HETATM    3  C   UNL     2     -11.595  11.009  69.870  1.00  0.00    -0.337 C  
HETATM    4  H   UNL     2     -12.364  11.176  68.014  1.00  0.00     0.000 HD 
ENDROOT
BRANCH   3   5
HETATM    5  C   UNL     2     -11.821  10.137  71.124  1.00  0.00    -0.381 C  
BRANCH   5   6
HETATM    6  C   UNL     2     -13.055  10.507  71.937  1.00  0.00    -0.462 C  
HETATM    7  H   UNL     2     -14.527   9.554  72.905  1.00  0.00     0.000 HD 
HETATM    8  O   UNL     2     -13.758   9.323  72.398  1.00  0.00    -0.465 OA 
ENDBRANCH   5   6
BRANCH   5   9
HETATM    9  O   UNL     2     -11.970   8.779  70.772  1.00  0.00    -0.246 OA 
HETATM   10  O   UNL     2     -10.317   8.703  72.299  1.00  0.00    -0.327 OA 
HETATM   11  P   UNL     2     -10.594   7.778  71.085  1.00  0.00    -0.221 P  
HETATM   12  O   UNL     2     -10.179   8.237  69.665  1.00  0.00    -0.199 OA 
HETATM   13  O   UNL     2      -9.363   6.882  71.365  1.00  0.00    -0.157 OA 
ENDBRANCH   5   9
ENDBRANCH   3   5
TORSDOF 3
ENDMDL
MODEL       59
REMARK 921   NORMALIZED FREE ENERGY PREDICTED BY IDOCK:   -3.34 KCAL/MOL
REMARK 922        TOTAL FREE ENERGY PREDICTED BY IDOCK:   -4.38 KCAL/MOL
REMARK 923 INTER-LIGAND FREE ENERGY PREDICTED BY IDOCK:   -4.16 KCAL/MOL
REMARK 924 INTRA-LIGAND FREE ENERGY PREDICTED BY IDOCK:   -0.22 KCAL/MOL
REMARK 927      BINDING AFFINITY PREDICTED BY RF-SCORE:    0.00 PKD
ROOT
HETATM    1 CA   UNL     1      -7.767  21.087  64.647  1.00  0.00    -0.524 Ca 
HETATM    2  O   UNL     2      -7.339  21.237  66.744  1.00  0.00    -0.708 OA 
HETATM    3  C   UNL     2      -6.345  20.197  67.003  1.00  0.00    -0.194 C  
HETATM    4  H   UNL     2      -6.939  22.097  66.688  1.00  0.00     0.000 HD 
ENDROOT
BRANCH   3   5
HETATM    5  C   UNL     2      -6.995  18.799  67.095  1.00  0.00    -0.200 C  
BRANCH   5   6
HETATM    6  C   UNL     2      -6.261  17.821  68.004  1.00  0.00    -0.167 C  
HETATM    7  H   UNL     2      -6.492  17.056  69.841  1.00  0.00     0.000 HD 
HETATM    8  O   UNL     2      -6.949  17.666  69.274  1.00  0.00    -0.243 OA 
ENDBRANCH   5   6
BRANCH   5   9
HETATM    9  O   UNL     2      -8.312  18.889  67.588  1.00  0.00    -0.267 OA 
HETATM   10  O   UNL     2      -8.519  17.378  65.932  1.00  0.00    -0.530 OA 
HETATM   11  P   UNL     2      -9.551  18.395  66.486  1.00  0.00    -0.298 P  
HETATM   12  O   UNL     2      -9.477  19.878  66.041  1.00  0.00    -0.396 OA 
HETATM   13  O   UNL     2     -10.660  17.954  65.499  1.00  0.00    -0.638 OA 
ENDBRANCH   5   9
ENDBRANCH   3   5
TORSDOF 3
ENDMDL
MODEL       60
REMARK 921   NORMALIZED FREE ENERGY PREDICTED BY IDOCK:   -3.32 KCAL/MOL
REMARK 922        TOTAL FREE ENERGY PREDICTED BY IDOCK:   -4.36 KCAL/MOL
REMARK 923 INTER-LIGAND FREE ENERGY PREDICTED BY IDOCK:   -4.09 KCAL/MOL
REMARK 924 INTRA-LIGAND FREE ENERGY PREDICTED BY IDOCK:   -0.27 KCAL/MOL
REMARK 927      BINDING AFFINITY PREDICTED BY RF-SCORE:    0.00 PKD
ROOT
HETATM    1 CA   UNL     1     -11.660   9.041  67.824  1.00  0.00    -0.511 Ca 
HETATM    2  O   UNL     2     -12.484  10.804  68.727  1.00  0.00    -0.793 OA 
HETATM    3  C   UNL     2     -11.600  11.102  69.852  1.00  0.00    -0.337 C  
HETATM    4  H   UNL     2     -12.308  11.370  67.984  1.00  0.00     0.000 HD 
ENDROOT
BRANCH   3   5
HETATM    5  C   UNL     2     -11.885  10.182  71.060  1.00  0.00    -0.383 C  
BRANCH   5   6
HETATM    6  C   UNL     2     -13.126  10.558  71.860  1.00  0.00    -0.462 C  
HETATM    7  H   UNL     2     -14.031  12.234  72.481  1.00  0.00     0.000 HD 
HETATM    8  O   UNL     2     -13.257  12.000  71.982  1.00  0.00    -0.499 OA 
ENDBRANCH   5   6
BRANCH   5   9
HETATM    9  O   UNL     2     -12.070   8.848  70.642  1.00  0.00    -0.173 OA 
HETATM   10  O   UNL     2     -10.515   8.638  72.256  1.00  0.00    -0.330 OA 
HETATM   11  P   UNL     2     -10.759   7.775  70.991  1.00  0.00    -0.234 P  
HETATM   12  O   UNL     2     -10.242   8.271  69.617  1.00  0.00    -0.199 OA 
HETATM   13  O   UNL     2      -9.585   6.814  71.302  1.00  0.00    -0.169 OA 
ENDBRANCH   5   9
ENDBRANCH   3   5
TORSDOF 3
ENDMDL
MODEL       61
REMARK 921   NORMALIZED FREE ENERGY PREDICTED BY IDOCK:   -3.31 KCAL/MOL
REMARK 922        TOTAL FREE ENERGY PREDICTED BY IDOCK:   -4.35 KCAL/MOL
REMARK 923 INTER-LIGAND FREE ENERGY PREDICTED BY IDOCK:   -4.04 KCAL/MOL
REMARK 924 INTRA-LIGAND FREE ENERGY PREDICTED BY IDOCK:   -0.31 KCAL/MOL
REMARK 927      BINDING AFFINITY PREDICTED BY RF-SCORE:    0.00 PKD
ROOT
HETATM    1 CA   UNL     1      -7.714  21.263  65.810  1.00  0.00    -0.453 Ca 
HETATM    2  O   UNL     2      -9.593  20.482  66.489  1.00  0.00    -0.620 OA 
HETATM    3  C   UNL     2      -9.244  19.404  67.412  1.00  0.00    -0.305 C  
HETATM    4  H   UNL     2      -9.851  21.271  66.952  1.00  0.00     0.000 HD 
ENDROOT
BRANCH   3   5
HETATM    5  C   UNL     2      -8.826  18.122  66.660  1.00  0.00    -0.275 C  
BRANCH   5   6
HETATM    6  C   UNL     2      -7.377  18.110  66.191  1.00  0.00    -0.274 C  
HETATM    7  H   UNL     2      -6.215  19.179  64.958  1.00  0.00     0.000 HD 
HETATM    8  O   UNL     2      -7.118  19.186  65.251  1.00  0.00    -0.467 OA 
ENDBRANCH   5   6
BRANCH   5   9
HETATM    9  O   UNL     2      -8.989  16.985  67.478  1.00  0.00    -0.216 OA 
HETATM   10  O   UNL     2      -9.887  16.309  65.527  1.00  0.00    -0.489 OA 
HETATM   11  P   UNL     2     -10.229  15.886  66.979  1.00  0.00    -0.292 P  
HETATM   12  O   UNL     2     -11.123  16.802  67.851  1.00  0.00    -0.302 OA 
HETATM   13  O   UNL     2     -11.339  14.902  66.533  1.00  0.00    -0.348 OA 
ENDBRANCH   5   9
ENDBRANCH   3   5
TORSDOF 3
ENDMDL
MODEL       62
REMARK 921   NORMALIZED FREE ENERGY PREDICTED BY IDOCK:   -3.29 KCAL/MOL
REMARK 922        TOTAL FREE ENERGY PREDICTED BY IDOCK:   -4.32 KCAL/MOL
REMARK 923 INTER-LIGAND FREE ENERGY PREDICTED BY IDOCK:   -4.08 KCAL/MOL
REMARK 924 INTRA-LIGAND FREE ENERGY PREDICTED BY IDOCK:   -0.24 KCAL/MOL
REMARK 927      BINDING AFFINITY PREDICTED BY RF-SCORE:    0.00 PKD
ROOT
HETATM    1 CA   UNL     1     -11.150  15.858  68.907  1.00  0.00    -0.215 Ca 
HETATM    2  O   UNL     2     -10.021  14.052  69.170  1.00  0.00    -0.422 OA 
HETATM    3  C   UNL     2      -9.232  13.917  67.947  1.00  0.00    -0.198 C  
HETATM    4  H   UNL     2      -9.497  14.383  69.890  1.00  0.00     0.000 HD 
ENDROOT
BRANCH   3   5
HETATM    5  C   UNL     2     -10.083  13.379  66.776  1.00  0.00    -0.260 C  
BRANCH   5   6
HETATM    6  C   UNL     2     -10.571  11.947  66.956  1.00  0.00    -0.227 C  
HETATM    7  H   UNL     2     -12.325  10.983  67.033  1.00  0.00     0.000 HD 
HETATM    8  O   UNL     2     -12.021  11.876  66.920  1.00  0.00    -0.614 OA 
ENDBRANCH   5   6
BRANCH   5   9
HETATM    9  O   UNL     2     -11.234  14.170  66.586  1.00  0.00    -0.309 OA 
HETATM   10  O   UNL     2     -10.213  14.318  64.586  1.00  0.00    -0.387 OA 
HETATM   11  P   UNL     2     -11.130  15.336  65.312  1.00  0.00    -0.337 P  
HETATM   12  O   UNL     2     -10.543  16.226  66.436  1.00  0.00    -0.306 OA 
HETATM   13  O   UNL     2     -11.037  16.379  64.172  1.00  0.00    -0.809 OA 
ENDBRANCH   5   9
ENDBRANCH   3   5
TORSDOF 3
ENDMDL
MODEL       63
REMARK 921   NORMALIZED FREE ENERGY PREDICTED BY IDOCK:   -3.26 KCAL/MOL
REMARK 922        TOTAL FREE ENERGY PREDICTED BY IDOCK:   -4.29 KCAL/MOL
REMARK 923 INTER-LIGAND FREE ENERGY PREDICTED BY IDOCK:   -4.25 KCAL/MOL
REMARK 924 INTRA-LIGAND FREE ENERGY PREDICTED BY IDOCK:   -0.04 KCAL/MOL
REMARK 927      BINDING AFFINITY PREDICTED BY RF-SCORE:    0.00 PKD
ROOT
HETATM    1 CA   UNL     1     -10.290  12.155  69.919  1.00  0.00    -0.420 Ca 
HETATM    2  O   UNL     2     -10.808  14.205  69.552  1.00  0.00    -0.388 OA 
HETATM    3  C   UNL     2     -11.875  14.153  68.555  1.00  0.00    -0.355 C  
HETATM    4  H   UNL     2     -11.151  14.363  70.424  1.00  0.00     0.000 HD 
ENDROOT
BRANCH   3   5
HETATM    5  C   UNL     2     -11.318  13.897  67.137  1.00  0.00    -0.327 C  
BRANCH   5   6
HETATM    6  C   UNL     2     -11.959  12.721  66.411  1.00  0.00    -0.375 C  
HETATM    7  H   UNL     2     -12.273  10.772  66.747  1.00  0.00     0.000 HD 
HETATM    8  O   UNL     2     -11.874  11.504  67.200  1.00  0.00    -0.595 OA 
ENDBRANCH   5   6
BRANCH   5   9
HETATM    9  O   UNL     2     -11.506  15.024  66.312  1.00  0.00    -0.314 OA 
HETATM   10  O   UNL     2      -9.285  14.685  66.166  1.00  0.00    -0.264 OA 
HETATM   11  P   UNL     2     -10.100  16.001  66.060  1.00  0.00    -0.380 P  
HETATM   12  O   UNL     2     -10.592  16.701  67.352  1.00  0.00    -0.318 OA 
HETATM   13  O   UNL     2      -8.842  16.874  65.835  1.00  0.00    -0.516 OA 
ENDBRANCH   5   9
ENDBRANCH   3   5
TORSDOF 3
ENDMDL
MODEL       64
REMARK 921   NORMALIZED FREE ENERGY PREDICTED BY IDOCK:   -3.26 KCAL/MOL
REMARK 922        TOTAL FREE ENERGY PREDICTED BY IDOCK:   -4.28 KCAL/MOL
REMARK 923 INTER-LIGAND FREE ENERGY PREDICTED BY IDOCK:   -4.01 KCAL/MOL
REMARK 924 INTRA-LIGAND FREE ENERGY PREDICTED BY IDOCK:   -0.27 KCAL/MOL
REMARK 927      BINDING AFFINITY PREDICTED BY RF-SCORE:    0.00 PKD
ROOT
HETATM    1 CA   UNL     1      -9.124  11.214  69.531  1.00  0.00    -0.279 Ca 
HETATM    2  O   UNL     2     -10.525  12.805  69.201  1.00  0.00    -0.430 OA 
HETATM    3  C   UNL     2     -11.263  12.417  68.001  1.00  0.00    -0.268 C  
HETATM    4  H   UNL     2     -11.028  12.641  69.990  1.00  0.00     0.000 HD 
ENDROOT
BRANCH   3   5
HETATM    5  C   UNL     2     -10.446  12.684  66.718  1.00  0.00    -0.240 C  
BRANCH   5   6
HETATM    6  C   UNL     2      -9.095  11.982  66.672  1.00  0.00    -0.205 C  
HETATM    7  H   UNL     2      -8.297  10.270  67.341  1.00  0.00     0.000 HD 
HETATM    8  O   UNL     2      -9.139  10.708  67.369  1.00  0.00    -0.139 OA 
ENDBRANCH   5   6
BRANCH   5   9
HETATM    9  O   UNL     2     -11.153  12.260  65.574  1.00  0.00    -0.287 OA 
HETATM   10  O   UNL     2     -10.617  14.382  65.050  1.00  0.00    -0.381 OA 
HETATM   11  P   UNL     2     -11.835  13.526  64.613  1.00  0.00    -0.440 P  
HETATM   12  O   UNL     2     -13.033  13.353  65.579  1.00  0.00    -0.544 OA 
HETATM   13  O   UNL     2     -12.444  14.660  63.752  1.00  0.00    -0.799 OA 
ENDBRANCH   5   9
ENDBRANCH   3   5
TORSDOF 3
ENDMDL
MODEL       65
REMARK 921   NORMALIZED FREE ENERGY PREDICTED BY IDOCK:   -3.23 KCAL/MOL
REMARK 922        TOTAL FREE ENERGY PREDICTED BY IDOCK:   -4.25 KCAL/MOL
REMARK 923 INTER-LIGAND FREE ENERGY PREDICTED BY IDOCK:   -3.81 KCAL/MOL
REMARK 924 INTRA-LIGAND FREE ENERGY PREDICTED BY IDOCK:   -0.44 KCAL/MOL
REMARK 927      BINDING AFFINITY PREDICTED BY RF-SCORE:    0.00 PKD
ROOT
HETATM    1 CA   UNL     1     -11.661   8.109  68.212  1.00  0.00    -0.415 Ca 
HETATM    2  O   UNL     2     -11.597  10.188  68.740  1.00  0.00    -0.495 OA 
HETATM    3  C   UNL     2     -10.870  10.234  70.007  1.00  0.00    -0.307 C  
HETATM    4  H   UNL     2     -11.045  10.444  68.010  1.00  0.00     0.000 HD 
ENDROOT
BRANCH   3   5
HETATM    5  C   UNL     2     -11.767   9.818  71.194  1.00  0.00    -0.385 C  
BRANCH   5   6
HETATM    6  C   UNL     2     -12.726  10.901  71.670  1.00  0.00    -0.393 C  
HETATM    7  H   UNL     2     -13.159  12.800  71.203  1.00  0.00     0.000 HD 
HETATM    8  O   UNL     2     -12.561  12.125  70.906  1.00  0.00    -0.336 OA 
ENDBRANCH   5   6
BRANCH   5   9
HETATM    9  O   UNL     2     -12.561   8.703  70.856  1.00  0.00    -0.133 OA 
HETATM   10  O   UNL     2     -11.545   8.016  72.744  1.00  0.00    -0.405 OA 
HETATM   11  P   UNL     2     -12.045   7.194  71.527  1.00  0.00    -0.378 P  
HETATM   12  O   UNL     2     -11.185   7.137  70.240  1.00  0.00    -0.269 OA 
HETATM   13  O   UNL     2     -11.582   5.844  72.128  1.00  0.00    -0.296 OA 
ENDBRANCH   5   9
ENDBRANCH   3   5
TORSDOF 3
ENDMDL
MODEL       66
REMARK 921   NORMALIZED FREE ENERGY PREDICTED BY IDOCK:   -3.20 KCAL/MOL
REMARK 922        TOTAL FREE ENERGY PREDICTED BY IDOCK:   -4.22 KCAL/MOL
REMARK 923 INTER-LIGAND FREE ENERGY PREDICTED BY IDOCK:   -3.91 KCAL/MOL
REMARK 924 INTRA-LIGAND FREE ENERGY PREDICTED BY IDOCK:   -0.30 KCAL/MOL
REMARK 927      BINDING AFFINITY PREDICTED BY RF-SCORE:    0.00 PKD
ROOT
HETATM    1 CA   UNL     1     -12.974  15.927  68.847  1.00  0.00    -0.587 Ca 
HETATM    2  O   UNL     2     -12.394  14.492  67.362  1.00  0.00    -0.614 OA 
HETATM    3  C   UNL     2     -10.938  14.588  67.291  1.00  0.00    -0.305 C  
HETATM    4  H   UNL     2     -12.672  13.734  67.863  1.00  0.00     0.000 HD 
ENDROOT
BRANCH   3   5
HETATM    5  C   UNL     2     -10.486  15.819  66.476  1.00  0.00    -0.303 C  
BRANCH   5   6
HETATM    6  C   UNL     2     -10.825  15.754  64.993  1.00  0.00    -0.443 C  
HETATM    7  H   UNL     2     -11.218  14.340  63.629  1.00  0.00     0.000 HD 
HETATM    8  O   UNL     2     -11.007  14.381  64.554  1.00  0.00    -0.363 OA 
ENDBRANCH   5   6
BRANCH   5   9
HETATM    9  O   UNL     2     -11.087  16.996  66.970  1.00  0.00    -0.009 OA 
HETATM   10  O   UNL     2      -8.903  17.540  66.955  1.00  0.00    -0.236 OA 
HETATM   11  P   UNL     2     -10.045  18.034  67.880  1.00  0.00    -0.393 P  
HETATM   12  O   UNL     2     -10.510  17.145  69.060  1.00  0.00    -0.322 OA 
HETATM   13  O   UNL     2      -9.112  18.963  68.695  1.00  0.00    -0.340 OA 
ENDBRANCH   5   9
ENDBRANCH   3   5
TORSDOF 3
ENDMDL
MODEL       67
REMARK 921   NORMALIZED FREE ENERGY PREDICTED BY IDOCK:   -3.19 KCAL/MOL
REMARK 922        TOTAL FREE ENERGY PREDICTED BY IDOCK:   -4.21 KCAL/MOL
REMARK 923 INTER-LIGAND FREE ENERGY PREDICTED BY IDOCK:   -3.75 KCAL/MOL
REMARK 924 INTRA-LIGAND FREE ENERGY PREDICTED BY IDOCK:   -0.45 KCAL/MOL
REMARK 927      BINDING AFFINITY PREDICTED BY RF-SCORE:    0.00 PKD
ROOT
HETATM    1 CA   UNL     1     -10.035  14.521  67.062  1.00  0.00    -0.227 Ca 
HETATM    2  O   UNL     2     -11.773  14.620  65.807  1.00  0.00    -0.352 OA 
HETATM    3  C   UNL     2     -12.308  13.260  65.795  1.00  0.00    -0.447 C  
HETATM    4  H   UNL     2     -12.266  15.185  66.390  1.00  0.00     0.000 HD 
ENDROOT
BRANCH   3   5
HETATM    5  C   UNL     2     -11.507  12.340  64.848  1.00  0.00    -0.332 C  
BRANCH   5   6
HETATM    6  C   UNL     2     -11.789  12.559  63.368  1.00  0.00    -0.503 C  
HETATM    7  H   UNL     2     -12.752  13.898  62.230  1.00  0.00     0.000 HD 
HETATM    8  O   UNL     2     -12.575  13.762  63.153  1.00  0.00    -0.793 OA 
ENDBRANCH   5   6
BRANCH   5   9
HETATM    9  O   UNL     2     -10.120  12.528  65.020  1.00  0.00    -0.279 OA 
HETATM   10  O   UNL     2     -10.327  10.292  65.177  1.00  0.00    -0.286 OA 
HETATM   11  P   UNL     2      -9.294  11.244  65.834  1.00  0.00    -0.218 P  
HETATM   12  O   UNL     2      -9.693  12.048  67.097  1.00  0.00    -0.193 OA 
HETATM   13  O   UNL     2      -8.555  10.095  66.563  1.00  0.00    -0.125 OA 
ENDBRANCH   5   9
ENDBRANCH   3   5
TORSDOF 3
ENDMDL
MODEL       68
REMARK 921   NORMALIZED FREE ENERGY PREDICTED BY IDOCK:   -3.19 KCAL/MOL
REMARK 922        TOTAL FREE ENERGY PREDICTED BY IDOCK:   -4.20 KCAL/MOL
REMARK 923 INTER-LIGAND FREE ENERGY PREDICTED BY IDOCK:   -3.94 KCAL/MOL
REMARK 924 INTRA-LIGAND FREE ENERGY PREDICTED BY IDOCK:   -0.26 KCAL/MOL
REMARK 927      BINDING AFFINITY PREDICTED BY RF-SCORE:    0.00 PKD
ROOT
HETATM    1 CA   UNL     1      -9.908  20.924  65.538  1.00  0.00    -0.620 Ca 
HETATM    2  O   UNL     2      -8.081  20.364  66.514  1.00  0.00    -0.478 OA 
HETATM    3  C   UNL     2      -8.072  18.903  66.491  1.00  0.00    -0.287 C  
HETATM    4  H   UNL     2      -7.513  20.729  65.845  1.00  0.00     0.000 HD 
ENDROOT
BRANCH   3   5
HETATM    5  C   UNL     2      -8.996  18.310  67.578  1.00  0.00    -0.253 C  
BRANCH   5   6
HETATM    6  C   UNL     2      -9.412  19.298  68.660  1.00  0.00    -0.405 C  
HETATM    7  H   UNL     2     -10.651  20.863  68.834  1.00  0.00     0.000 HD 
HETATM    8  O   UNL     2     -10.392  20.247  68.159  1.00  0.00    -0.358 OA 
ENDBRANCH   5   6
BRANCH   5   9
HETATM    9  O   UNL     2     -10.189  17.818  67.009  1.00  0.00    -0.321 OA 
HETATM   10  O   UNL     2      -9.475  16.064  68.226  1.00  0.00    -0.202 OA 
HETATM   11  P   UNL     2     -10.310  16.095  66.919  1.00  0.00    -0.282 P  
HETATM   12  O   UNL     2      -9.596  16.308  65.561  1.00  0.00    -0.474 OA 
HETATM   13  O   UNL     2     -10.419  14.552  66.839  1.00  0.00    -0.266 OA 
ENDBRANCH   5   9
ENDBRANCH   3   5
TORSDOF 3
ENDMDL
MODEL       69
REMARK 921   NORMALIZED FREE ENERGY PREDICTED BY IDOCK:   -3.18 KCAL/MOL
REMARK 922        TOTAL FREE ENERGY PREDICTED BY IDOCK:   -4.19 KCAL/MOL
REMARK 923 INTER-LIGAND FREE ENERGY PREDICTED BY IDOCK:   -3.90 KCAL/MOL
REMARK 924 INTRA-LIGAND FREE ENERGY PREDICTED BY IDOCK:   -0.30 KCAL/MOL
REMARK 927      BINDING AFFINITY PREDICTED BY RF-SCORE:    0.00 PKD
ROOT
HETATM    1 CA   UNL     1      -9.514  19.200  69.038  1.00  0.00    -0.303 Ca 
HETATM    2  O   UNL     2     -10.955  17.646  68.701  1.00  0.00    -0.248 OA 
HETATM    3  C   UNL     2     -10.181  16.517  68.189  1.00  0.00    -0.271 C  
HETATM    4  H   UNL     2     -11.174  17.533  69.618  1.00  0.00     0.000 HD 
ENDROOT
BRANCH   3   5
HETATM    5  C   UNL     2      -9.825  16.700  66.697  1.00  0.00    -0.274 C  
BRANCH   5   6
HETATM    6  C   UNL     2      -8.521  17.448  66.447  1.00  0.00    -0.257 C  
HETATM    7  H   UNL     2      -7.821  19.311  66.672  1.00  0.00     0.000 HD 
HETATM    8  O   UNL     2      -8.634  18.845  66.828  1.00  0.00    -0.279 OA 
ENDBRANCH   5   6
BRANCH   5   9
HETATM    9  O   UNL     2      -9.696  15.452  66.054  1.00  0.00    -0.287 OA 
HETATM   10  O   UNL     2     -10.986  16.606  64.614  1.00  0.00    -0.793 OA 
HETATM   11  P   UNL     2     -10.932  15.082  64.901  1.00  0.00    -0.344 P  
HETATM   12  O   UNL     2     -11.656  14.514  66.147  1.00  0.00    -0.362 OA 
HETATM   13  O   UNL     2     -12.038  14.751  63.869  1.00  0.00    -0.480 OA 
ENDBRANCH   5   9
ENDBRANCH   3   5
TORSDOF 3
ENDMDL
MODEL       70
REMARK 921   NORMALIZED FREE ENERGY PREDICTED BY IDOCK:   -3.14 KCAL/MOL
REMARK 922        TOTAL FREE ENERGY PREDICTED BY IDOCK:   -4.15 KCAL/MOL
REMARK 923 INTER-LIGAND FREE ENERGY PREDICTED BY IDOCK:   -3.70 KCAL/MOL
REMARK 924 INTRA-LIGAND FREE ENERGY PREDICTED BY IDOCK:   -0.45 KCAL/MOL
REMARK 927      BINDING AFFINITY PREDICTED BY RF-SCORE:    0.00 PKD
ROOT
HETATM    1 CA   UNL     1     -11.321  19.739  67.240  1.00  0.00    -0.435 Ca 
HETATM    2  O   UNL     2      -9.360  20.476  67.701  1.00  0.00    -0.348 OA 
HETATM    3  C   UNL     2      -8.487  19.890  66.687  1.00  0.00    -0.335 C  
HETATM    4  H   UNL     2      -9.562  21.384  67.507  1.00  0.00     0.000 HD 
ENDROOT
BRANCH   3   5
HETATM    5  C   UNL     2      -8.157  18.414  67.002  1.00  0.00    -0.231 C  
BRANCH   5   6
HETATM    6  C   UNL     2      -7.166  18.218  68.142  1.00  0.00    -0.249 C  
HETATM    7  H   UNL     2      -6.137  19.370  69.418  1.00  0.00     0.000 HD 
HETATM    8  O   UNL     2      -6.754  19.492  68.707  1.00  0.00    -0.278 OA 
ENDBRANCH   5   6
BRANCH   5   9
HETATM    9  O   UNL     2      -9.322  17.705  67.361  1.00  0.00    -0.244 OA 
HETATM   10  O   UNL     2      -8.461  16.421  65.725  1.00  0.00    -0.346 OA 
HETATM   11  P   UNL     2      -9.937  16.630  66.153  1.00  0.00    -0.312 P  
HETATM   12  O   UNL     2     -10.694  17.898  65.686  1.00  0.00    -0.521 OA 
HETATM   13  O   UNL     2     -10.487  15.668  65.072  1.00  0.00    -0.402 OA 
ENDBRANCH   5   9
ENDBRANCH   3   5
TORSDOF 3
ENDMDL
MODEL       71
REMARK 921   NORMALIZED FREE ENERGY PREDICTED BY IDOCK:   -3.13 KCAL/MOL
REMARK 922        TOTAL FREE ENERGY PREDICTED BY IDOCK:   -4.14 KCAL/MOL
REMARK 923 INTER-LIGAND FREE ENERGY PREDICTED BY IDOCK:   -4.39 KCAL/MOL
REMARK 924 INTRA-LIGAND FREE ENERGY PREDICTED BY IDOCK:    0.25 KCAL/MOL
REMARK 927      BINDING AFFINITY PREDICTED BY RF-SCORE:    0.00 PKD
ROOT
HETATM    1 CA   UNL     1      -7.528  12.953  66.949  1.00  0.00    -0.141 Ca 
HETATM    2  O   UNL     2      -9.233  14.044  66.239  1.00  0.00    -0.450 OA 
HETATM    3  C   UNL     2     -10.337  13.622  67.098  1.00  0.00    -0.250 C  
HETATM    4  H   UNL     2      -8.899  14.897  66.492  1.00  0.00     0.000 HD 
ENDROOT
BRANCH   3   5
HETATM    5  C   UNL     2     -10.881  12.236  66.687  1.00  0.00    -0.258 C  
BRANCH   5   6
HETATM    6  C   UNL     2     -10.889  11.203  67.807  1.00  0.00    -0.239 C  
HETATM    7  H   UNL     2     -12.249  10.241  68.919  1.00  0.00     0.000 HD 
HETATM    8  O   UNL     2     -12.244  10.885  68.220  1.00  0.00    -0.526 OA 
ENDBRANCH   5   6
BRANCH   5   9
HETATM    9  O   UNL     2     -12.210  12.334  66.227  1.00  0.00    -0.628 OA 
HETATM   10  O   UNL     2     -11.039  12.265  64.305  1.00  0.00    -0.305 OA 
HETATM   11  P   UNL     2     -12.395  12.949  64.621  1.00  0.00    -0.410 P  
HETATM   12  O   UNL     2     -12.409  14.314  65.353  1.00  0.00    -0.417 OA 
HETATM   13  O   UNL     2     -12.560  13.500  63.183  1.00  0.00    -0.762 OA 
ENDBRANCH   5   9
ENDBRANCH   3   5
TORSDOF 3
ENDMDL
MODEL       72
REMARK 921   NORMALIZED FREE ENERGY PREDICTED BY IDOCK:   -3.10 KCAL/MOL
REMARK 922        TOTAL FREE ENERGY PREDICTED BY IDOCK:   -4.11 KCAL/MOL
REMARK 923 INTER-LIGAND FREE ENERGY PREDICTED BY IDOCK:   -3.79 KCAL/MOL
REMARK 924 INTRA-LIGAND FREE ENERGY PREDICTED BY IDOCK:   -0.31 KCAL/MOL
REMARK 927      BINDING AFFINITY PREDICTED BY RF-SCORE:    0.00 PKD
ROOT
HETATM    1 CA   UNL     1     -12.944   9.754  69.603  1.00  0.00    -0.501 Ca 
HETATM    2  O   UNL     2     -11.811  10.233  67.845  1.00  0.00    -0.647 OA 
HETATM    3  C   UNL     2     -10.801  11.188  68.294  1.00  0.00    -0.212 C  
HETATM    4  H   UNL     2     -11.447   9.361  67.739  1.00  0.00     0.000 HD 
ENDROOT
BRANCH   3   5
HETATM    5  C   UNL     2     -11.392  12.604  68.466  1.00  0.00    -0.296 C  
BRANCH   5   6
HETATM    6  C   UNL     2     -12.043  12.856  69.820  1.00  0.00    -0.245 C  
HETATM    7  H   UNL     2     -12.478  11.803  71.468  1.00  0.00     0.000 HD 
HETATM    8  O   UNL     2     -12.072  11.647  70.624  1.00  0.00    -0.368 OA 
ENDBRANCH   5   6
BRANCH   5   9
HETATM    9  O   UNL     2     -10.393  13.587  68.317  1.00  0.00    -0.239 OA 
HETATM   10  O   UNL     2     -11.937  14.237  66.813  1.00  0.00    -0.414 OA 
HETATM   11  P   UNL     2     -10.397  14.424  66.802  1.00  0.00    -0.282 P  
HETATM   12  O   UNL     2      -9.488  13.246  66.370  1.00  0.00    -0.258 OA 
HETATM   13  O   UNL     2     -10.401  15.172  65.447  1.00  0.00    -0.333 OA 
ENDBRANCH   5   9
ENDBRANCH   3   5
TORSDOF 3
ENDMDL
MODEL       73
REMARK 921   NORMALIZED FREE ENERGY PREDICTED BY IDOCK:   -3.10 KCAL/MOL
REMARK 922        TOTAL FREE ENERGY PREDICTED BY IDOCK:   -4.11 KCAL/MOL
REMARK 923 INTER-LIGAND FREE ENERGY PREDICTED BY IDOCK:   -3.65 KCAL/MOL
REMARK 924 INTRA-LIGAND FREE ENERGY PREDICTED BY IDOCK:   -0.46 KCAL/MOL
REMARK 927      BINDING AFFINITY PREDICTED BY RF-SCORE:    0.00 PKD
ROOT
HETATM    1 CA   UNL     1     -11.066  19.964  68.691  1.00  0.00    -0.449 Ca 
HETATM    2  O   UNL     2      -9.901  21.065  67.264  1.00  0.00    -0.578 OA 
HETATM    3  C   UNL     2      -9.760  20.169  66.118  1.00  0.00    -0.366 C  
HETATM    4  H   UNL     2     -10.562  21.730  67.111  1.00  0.00     0.000 HD 
ENDROOT
BRANCH   3   5
HETATM    5  C   UNL     2      -8.686  19.088  66.368  1.00  0.00    -0.317 C  
BRANCH   5   6
HETATM    6  C   UNL     2      -7.252  19.572  66.197  1.00  0.00    -0.272 C  
HETATM    7  H   UNL     2      -6.115  21.084  66.856  1.00  0.00     0.000 HD 
HETATM    8  O   UNL     2      -7.009  20.783  66.963  1.00  0.00    -0.290 OA 
ENDBRANCH   5   6
BRANCH   5   9
HETATM    9  O   UNL     2      -8.780  18.581  67.680  1.00  0.00    -0.264 OA 
HETATM   10  O   UNL     2      -8.694  16.703  66.441  1.00  0.00    -0.257 OA 
HETATM   11  P   UNL     2      -9.381  16.963  67.807  1.00  0.00    -0.241 P  
HETATM   12  O   UNL     2     -10.753  17.682  67.847  1.00  0.00    -0.394 OA 
HETATM   13  O   UNL     2      -9.920  15.516  67.921  1.00  0.00    -0.217 OA 
ENDBRANCH   5   9
ENDBRANCH   3   5
TORSDOF 3
ENDMDL
MODEL       74
REMARK 921   NORMALIZED FREE ENERGY PREDICTED BY IDOCK:   -3.09 KCAL/MOL
REMARK 922        TOTAL FREE ENERGY PREDICTED BY IDOCK:   -4.09 KCAL/MOL
REMARK 923 INTER-LIGAND FREE ENERGY PREDICTED BY IDOCK:   -3.95 KCAL/MOL
REMARK 924 INTRA-LIGAND FREE ENERGY PREDICTED BY IDOCK:   -0.14 KCAL/MOL
REMARK 927      BINDING AFFINITY PREDICTED BY RF-SCORE:    0.00 PKD
ROOT
HETATM    1 CA   UNL     1     -12.267   6.626  68.669  1.00  0.00    -0.560 Ca 
HETATM    2  O   UNL     2     -11.006   7.869  67.458  1.00  0.00    -0.517 OA 
HETATM    3  C   UNL     2     -10.016   8.419  68.382  1.00  0.00    -0.187 C  
HETATM    4  H   UNL     2     -10.648   7.154  66.946  1.00  0.00     0.000 HD 
ENDROOT
BRANCH   3   5
HETATM    5  C   UNL     2     -10.598   9.582  69.215  1.00  0.00    -0.220 C  
BRANCH   5   6
HETATM    6  C   UNL     2     -10.237   9.541  70.695  1.00  0.00    -0.297 C  
HETATM    7  H   UNL     2     -11.200   9.553  72.451  1.00  0.00     0.000 HD 
HETATM    8  O   UNL     2     -11.426   9.578  71.528  1.00  0.00    -0.368 OA 
ENDBRANCH   5   6
BRANCH   5   9
HETATM    9  O   UNL     2     -10.141  10.824  68.729  1.00  0.00    -0.175 OA 
HETATM   10  O   UNL     2     -12.377  11.030  68.557  1.00  0.00    -0.536 OA 
HETATM   11  P   UNL     2     -11.250  11.671  67.705  1.00  0.00    -0.296 P  
HETATM   12  O   UNL     2     -10.562  10.837  66.596  1.00  0.00    -0.245 OA 
HETATM   13  O   UNL     2     -12.242  12.429  66.789  1.00  0.00    -0.551 OA 
ENDBRANCH   5   9
ENDBRANCH   3   5
TORSDOF 3
ENDMDL
MODEL       75
REMARK 921   NORMALIZED FREE ENERGY PREDICTED BY IDOCK:   -3.09 KCAL/MOL
REMARK 922        TOTAL FREE ENERGY PREDICTED BY IDOCK:   -4.09 KCAL/MOL
REMARK 923 INTER-LIGAND FREE ENERGY PREDICTED BY IDOCK:   -3.80 KCAL/MOL
REMARK 924 INTRA-LIGAND FREE ENERGY PREDICTED BY IDOCK:   -0.29 KCAL/MOL
REMARK 927      BINDING AFFINITY PREDICTED BY RF-SCORE:    0.00 PKD
ROOT
HETATM    1 CA   UNL     1      -8.428  20.241  65.127  1.00  0.00    -0.327 Ca 
HETATM    2  O   UNL     2     -10.325  19.340  65.565  1.00  0.00    -0.469 OA 
HETATM    3  C   UNL     2     -10.417  19.343  67.024  1.00  0.00    -0.463 C  
HETATM    4  H   UNL     2     -10.841  20.039  65.180  1.00  0.00     0.000 HD 
ENDROOT
BRANCH   3   5
HETATM    5  C   UNL     2      -9.578  18.207  67.650  1.00  0.00    -0.278 C  
BRANCH   5   6
HETATM    6  C   UNL     2     -10.284  17.438  68.758  1.00  0.00    -0.361 C  
HETATM    7  H   UNL     2     -11.578  15.915  68.906  1.00  0.00     0.000 HD 
HETATM    8  O   UNL     2     -11.137  16.395  68.215  1.00  0.00    -0.347 OA 
ENDBRANCH   5   6
BRANCH   5   9
HETATM    9  O   UNL     2      -9.215  17.255  66.675  1.00  0.00    -0.239 OA 
HETATM   10  O   UNL     2      -7.409  17.282  68.019  1.00  0.00    -0.182 OA 
HETATM   11  P   UNL     2      -7.514  16.986  66.501  1.00  0.00    -0.298 P  
HETATM   12  O   UNL     2      -7.626  18.162  65.499  1.00  0.00    -0.527 OA 
HETATM   13  O   UNL     2      -5.993  16.745  66.345  1.00  0.00    -0.306 OA 
ENDBRANCH   5   9
ENDBRANCH   3   5
TORSDOF 3
ENDMDL
MODEL       76
REMARK 921   NORMALIZED FREE ENERGY PREDICTED BY IDOCK:   -3.08 KCAL/MOL
REMARK 922        TOTAL FREE ENERGY PREDICTED BY IDOCK:   -4.08 KCAL/MOL
REMARK 923 INTER-LIGAND FREE ENERGY PREDICTED BY IDOCK:   -3.94 KCAL/MOL
REMARK 924 INTRA-LIGAND FREE ENERGY PREDICTED BY IDOCK:   -0.14 KCAL/MOL
REMARK 927      BINDING AFFINITY PREDICTED BY RF-SCORE:    0.00 PKD
ROOT
HETATM    1 CA   UNL     1      -9.266  13.538  64.941  1.00  0.00    -0.474 Ca 
HETATM    2  O   UNL     2     -10.829  14.487  66.063  1.00  0.00    -0.297 OA 
HETATM    3  C   UNL     2     -10.704  15.910  65.757  1.00  0.00    -0.316 C  
HETATM    4  H   UNL     2     -11.539  14.084  65.576  1.00  0.00     0.000 HD 
ENDROOT
BRANCH   3   5
HETATM    5  C   UNL     2      -9.551  16.564  66.549  1.00  0.00    -0.271 C  
BRANCH   5   6
HETATM    6  C   UNL     2      -8.385  15.632  66.851  1.00  0.00    -0.252 C  
HETATM    7  H   UNL     2      -7.887  14.299  68.260  1.00  0.00     0.000 HD 
HETATM    8  O   UNL     2      -8.614  14.880  68.072  1.00  0.00    -0.152 OA 
ENDBRANCH   5   6
BRANCH   5   9
HETATM    9  O   UNL     2      -9.012  17.658  65.840  1.00  0.00    -0.519 OA 
HETATM   10  O   UNL     2      -9.412  18.548  67.868  1.00  0.00    -0.284 OA 
HETATM   11  P   UNL     2      -9.412  19.218  66.470  1.00  0.00    -0.381 P  
HETATM   12  O   UNL     2     -10.647  19.060  65.548  1.00  0.00    -0.557 OA 
HETATM   13  O   UNL     2      -9.771  20.615  67.034  1.00  0.00    -0.439 OA 
ENDBRANCH   5   9
ENDBRANCH   3   5
TORSDOF 3
ENDMDL
MODEL       77
REMARK 921   NORMALIZED FREE ENERGY PREDICTED BY IDOCK:   -3.08 KCAL/MOL
REMARK 922        TOTAL FREE ENERGY PREDICTED BY IDOCK:   -4.08 KCAL/MOL
REMARK 923 INTER-LIGAND FREE ENERGY PREDICTED BY IDOCK:   -3.92 KCAL/MOL
REMARK 924 INTRA-LIGAND FREE ENERGY PREDICTED BY IDOCK:   -0.16 KCAL/MOL
REMARK 927      BINDING AFFINITY PREDICTED BY RF-SCORE:    0.00 PKD
ROOT
HETATM    1 CA   UNL     1      -8.001  13.944  66.129  1.00  0.00    -0.327 Ca 
HETATM    2  O   UNL     2      -9.714  13.977  64.838  1.00  0.00    -0.564 OA 
HETATM    3  C   UNL     2     -10.379  15.247  65.124  1.00  0.00    -0.381 C  
HETATM    4  H   UNL     2      -9.213  14.018  64.032  1.00  0.00     0.000 HD 
ENDROOT
BRANCH   3   5
HETATM    5  C   UNL     2     -11.195  15.181  66.434  1.00  0.00    -0.277 C  
BRANCH   5   6
HETATM    6  C   UNL     2     -12.236  14.070  66.473  1.00  0.00    -0.451 C  
HETATM    7  H   UNL     2     -13.521  13.205  65.204  1.00  0.00     0.000 HD 
HETATM    8  O   UNL     2     -12.871  13.897  65.179  1.00  0.00    -0.695 OA 
ENDBRANCH   5   6
BRANCH   5   9
HETATM    9  O   UNL     2     -10.348  14.973  67.542  1.00  0.00    -0.238 OA 
HETATM   10  O   UNL     2     -11.034  17.095  67.851  1.00  0.00    -0.343 OA 
HETATM   11  P   UNL     2      -9.706  16.408  68.264  1.00  0.00    -0.238 P  
HETATM   12  O   UNL     2      -8.590  16.207  67.208  1.00  0.00    -0.167 OA 
HETATM   13  O   UNL     2      -9.131  17.692  68.909  1.00  0.00    -0.239 OA 
ENDBRANCH   5   9
ENDBRANCH   3   5
TORSDOF 3
ENDMDL
MODEL       78
REMARK 921   NORMALIZED FREE ENERGY PREDICTED BY IDOCK:   -3.08 KCAL/MOL
REMARK 922        TOTAL FREE ENERGY PREDICTED BY IDOCK:   -4.07 KCAL/MOL
REMARK 923 INTER-LIGAND FREE ENERGY PREDICTED BY IDOCK:   -3.90 KCAL/MOL
REMARK 924 INTRA-LIGAND FREE ENERGY PREDICTED BY IDOCK:   -0.18 KCAL/MOL
REMARK 927      BINDING AFFINITY PREDICTED BY RF-SCORE:    0.00 PKD
ROOT
HETATM    1 CA   UNL     1      -9.899  12.497  69.195  1.00  0.00    -0.320 Ca 
HETATM    2  O   UNL     2     -11.691  11.820  68.231  1.00  0.00    -0.313 OA 
HETATM    3  C   UNL     2     -11.504  12.139  66.817  1.00  0.00    -0.356 C  
HETATM    4  H   UNL     2     -11.539  10.899  68.405  1.00  0.00     0.000 HD 
ENDROOT
BRANCH   3   5
HETATM    5  C   UNL     2     -11.752  13.637  66.533  1.00  0.00    -0.382 C  
BRANCH   5   6
HETATM    6  C   UNL     2     -12.849  13.912  65.513  1.00  0.00    -0.431 C  
HETATM    7  H   UNL     2     -13.015  14.042  63.521  1.00  0.00     0.000 HD 
HETATM    8  O   UNL     2     -12.331  13.870  64.156  1.00  0.00    -0.614 OA 
ENDBRANCH   5   6
BRANCH   5   9
HETATM    9  O   UNL     2     -12.125  14.316  67.711  1.00  0.00    -0.363 OA 
HETATM   10  O   UNL     2     -10.985  15.896  66.583  1.00  0.00    -0.262 OA 
HETATM   11  P   UNL     2     -11.155  15.692  68.111  1.00  0.00    -0.326 P  
HETATM   12  O   UNL     2     -10.293  14.630  68.839  1.00  0.00    -0.235 OA 
HETATM   13  O   UNL     2     -10.286  16.923  68.469  1.00  0.00    -0.292 OA 
ENDBRANCH   5   9
ENDBRANCH   3   5
TORSDOF 3
ENDMDL
MODEL       79
REMARK 921   NORMALIZED FREE ENERGY PREDICTED BY IDOCK:   -3.07 KCAL/MOL
REMARK 922        TOTAL FREE ENERGY PREDICTED BY IDOCK:   -4.07 KCAL/MOL
REMARK 923 INTER-LIGAND FREE ENERGY PREDICTED BY IDOCK:   -3.65 KCAL/MOL
REMARK 924 INTRA-LIGAND FREE ENERGY PREDICTED BY IDOCK:   -0.42 KCAL/MOL
REMARK 927      BINDING AFFINITY PREDICTED BY RF-SCORE:    0.00 PKD
ROOT
HETATM    1 CA   UNL     1      -8.265  15.993  69.192  1.00  0.00    -0.155 Ca 
HETATM    2  O   UNL     2      -9.343  14.156  68.931  1.00  0.00    -0.356 OA 
HETATM    3  C   UNL     2      -9.449  13.982  67.484  1.00  0.00    -0.221 C  
HETATM    4  H   UNL     2      -8.663  13.606  69.301  1.00  0.00     0.000 HD 
ENDROOT
BRANCH   3   5
HETATM    5  C   UNL     2     -10.555  14.877  66.881  1.00  0.00    -0.300 C  
BRANCH   5   6
HETATM    6  C   UNL     2     -11.949  14.264  66.912  1.00  0.00    -0.438 C  
HETATM    7  H   UNL     2     -12.900  12.807  67.904  1.00  0.00     0.000 HD 
HETATM    8  O   UNL     2     -12.031  13.189  67.885  1.00  0.00    -0.349 OA 
ENDBRANCH   5   6
BRANCH   5   9
HETATM    9  O   UNL     2     -10.643  16.101  67.575  1.00  0.00    -0.304 OA 
HETATM   10  O   UNL     2     -10.701  16.761  65.424  1.00  0.00    -0.507 OA 
HETATM   11  P   UNL     2     -10.161  17.498  66.676  1.00  0.00    -0.334 P  
HETATM   12  O   UNL     2      -8.761  17.134  67.232  1.00  0.00    -0.197 OA 
HETATM   13  O   UNL     2      -9.729  18.749  65.872  1.00  0.00    -0.485 OA 
ENDBRANCH   5   9
ENDBRANCH   3   5
TORSDOF 3
ENDMDL
MODEL       80
REMARK 921   NORMALIZED FREE ENERGY PREDICTED BY IDOCK:   -3.05 KCAL/MOL
REMARK 922        TOTAL FREE ENERGY PREDICTED BY IDOCK:   -4.05 KCAL/MOL
REMARK 923 INTER-LIGAND FREE ENERGY PREDICTED BY IDOCK:   -3.92 KCAL/MOL
REMARK 924 INTRA-LIGAND FREE ENERGY PREDICTED BY IDOCK:   -0.13 KCAL/MOL
REMARK 927      BINDING AFFINITY PREDICTED BY RF-SCORE:    0.00 PKD
ROOT
HETATM    1 CA   UNL     1     -13.331  14.980  64.246  1.00  0.00    -0.548 Ca 
HETATM    2  O   UNL     2     -13.029  12.861  64.387  1.00  0.00    -0.705 OA 
HETATM    3  C   UNL     2     -12.059  12.687  65.465  1.00  0.00    -0.458 C  
HETATM    4  H   UNL     2     -13.914  12.668  64.677  1.00  0.00     0.000 HD 
ENDROOT
BRANCH   3   5
HETATM    5  C   UNL     2     -10.621  13.000  64.994  1.00  0.00    -0.319 C  
BRANCH   5   6
HETATM    6  C   UNL     2     -10.149  14.414  65.304  1.00  0.00    -0.356 C  
HETATM    7  H   UNL     2     -10.638  16.284  64.776  1.00  0.00     0.000 HD 
HETATM    8  O   UNL     2     -10.933  15.402  64.583  1.00  0.00    -0.397 OA 
ENDBRANCH   5   6
BRANCH   5   9
HETATM    9  O   UNL     2      -9.693  12.129  65.600  1.00  0.00    -0.242 OA 
HETATM   10  O   UNL     2      -9.593  11.510  63.438  1.00  0.00    -0.311 OA 
HETATM   11  P   UNL     2      -9.360  10.675  64.724  1.00  0.00    -0.274 P  
HETATM   12  O   UNL     2     -10.578  10.144  65.521  1.00  0.00    -0.111 OA 
HETATM   13  O   UNL     2      -9.062   9.374  63.940  1.00  0.00    -0.196 OA 
ENDBRANCH   5   9
ENDBRANCH   3   5
TORSDOF 3
ENDMDL
MODEL       81
REMARK 921   NORMALIZED FREE ENERGY PREDICTED BY IDOCK:   -3.04 KCAL/MOL
REMARK 922        TOTAL FREE ENERGY PREDICTED BY IDOCK:   -4.03 KCAL/MOL
REMARK 923 INTER-LIGAND FREE ENERGY PREDICTED BY IDOCK:   -3.95 KCAL/MOL
REMARK 924 INTRA-LIGAND FREE ENERGY PREDICTED BY IDOCK:   -0.09 KCAL/MOL
REMARK 927      BINDING AFFINITY PREDICTED BY RF-SCORE:    0.00 PKD
ROOT
HETATM    1 CA   UNL     1     -11.505  12.779  70.937  1.00  0.00    -0.487 Ca 
HETATM    2  O   UNL     2     -11.622  11.717  69.077  1.00  0.00    -0.259 OA 
HETATM    3  C   UNL     2     -10.297  11.856  68.477  1.00  0.00    -0.218 C  
HETATM    4  H   UNL     2     -11.739  10.862  69.475  1.00  0.00     0.000 HD 
ENDROOT
BRANCH   3   5
HETATM    5  C   UNL     2     -10.107  13.246  67.831  1.00  0.00    -0.235 C  
BRANCH   5   6
HETATM    6  C   UNL     2      -8.714  13.836  68.002  1.00  0.00    -0.181 C  
HETATM    7  H   UNL     2      -6.854  13.443  67.369  1.00  0.00     0.000 HD 
HETATM    8  O   UNL     2      -7.723  13.074  67.262  1.00  0.00    -0.160 OA 
ENDBRANCH   5   6
BRANCH   5   9
HETATM    9  O   UNL     2     -10.347  13.190  66.442  1.00  0.00    -0.276 OA 
HETATM   10  O   UNL     2     -11.931  14.625  67.149  1.00  0.00    -0.391 OA 
HETATM   11  P   UNL     2     -11.941  13.644  65.947  1.00  0.00    -0.458 P  
HETATM   12  O   UNL     2     -12.235  12.143  66.191  1.00  0.00    -0.611 OA 
HETATM   13  O   UNL     2     -13.369  14.050  65.505  1.00  0.00    -0.673 OA 
ENDBRANCH   5   9
ENDBRANCH   3   5
TORSDOF 3
ENDMDL
MODEL       82
REMARK 921   NORMALIZED FREE ENERGY PREDICTED BY IDOCK:   -3.04 KCAL/MOL
REMARK 922        TOTAL FREE ENERGY PREDICTED BY IDOCK:   -4.03 KCAL/MOL
REMARK 923 INTER-LIGAND FREE ENERGY PREDICTED BY IDOCK:   -3.64 KCAL/MOL
REMARK 924 INTRA-LIGAND FREE ENERGY PREDICTED BY IDOCK:   -0.39 KCAL/MOL
REMARK 927      BINDING AFFINITY PREDICTED BY RF-SCORE:    0.00 PKD
ROOT
HETATM    1 CA   UNL     1      -7.817  12.933  67.434  1.00  0.00    -0.113 Ca 
HETATM    2  O   UNL     2      -8.443  14.923  66.931  1.00  0.00    -0.228 OA 
HETATM    3  C   UNL     2      -9.851  14.986  67.317  1.00  0.00    -0.228 C  
HETATM    4  H   UNL     2      -7.885  15.351  67.570  1.00  0.00     0.000 HD 
ENDROOT
BRANCH   3   5
HETATM    5  C   UNL     2     -10.758  14.290  66.279  1.00  0.00    -0.297 C  
BRANCH   5   6
HETATM    6  C   UNL     2     -10.901  15.042  64.961  1.00  0.00    -0.422 C  
HETATM    7  H   UNL     2     -10.555  16.890  64.271  1.00  0.00     0.000 HD 
HETATM    8  O   UNL     2     -10.466  16.422  65.092  1.00  0.00    -0.622 OA 
ENDBRANCH   5   6
BRANCH   5   9
HETATM    9  O   UNL     2     -10.261  13.011  65.955  1.00  0.00    -0.282 OA 
HETATM   10  O   UNL     2     -12.263  12.534  66.866  1.00  0.00    -0.511 OA 
HETATM   11  P   UNL     2     -10.956  11.699  66.843  1.00  0.00    -0.308 P  
HETATM   12  O   UNL     2      -9.822  12.031  67.845  1.00  0.00    -0.185 OA 
HETATM   13  O   UNL     2     -11.578  10.526  67.638  1.00  0.00    -0.447 OA 
ENDBRANCH   5   9
ENDBRANCH   3   5
TORSDOF 3
ENDMDL
MODEL       83
REMARK 921   NORMALIZED FREE ENERGY PREDICTED BY IDOCK:   -3.04 KCAL/MOL
REMARK 922        TOTAL FREE ENERGY PREDICTED BY IDOCK:   -4.03 KCAL/MOL
REMARK 923 INTER-LIGAND FREE ENERGY PREDICTED BY IDOCK:   -3.73 KCAL/MOL
REMARK 924 INTRA-LIGAND FREE ENERGY PREDICTED BY IDOCK:   -0.30 KCAL/MOL
REMARK 927      BINDING AFFINITY PREDICTED BY RF-SCORE:    0.00 PKD
ROOT
HETATM    1 CA   UNL     1     -11.958  13.770  62.736  1.00  0.00    -0.719 Ca 
HETATM    2  O   UNL     2     -10.045  13.050  63.388  1.00  0.00    -0.546 OA 
HETATM    3  C   UNL     2     -10.286  12.485  64.714  1.00  0.00    -0.280 C  
HETATM    4  H   UNL     2      -9.980  12.372  62.725  1.00  0.00     0.000 HD 
ENDROOT
BRANCH   3   5
HETATM    5  C   UNL     2     -10.393  13.587  65.792  1.00  0.00    -0.292 C  
BRANCH   5   6
HETATM    6  C   UNL     2     -11.802  14.122  66.009  1.00  0.00    -0.398 C  
HETATM    7  H   UNL     2     -13.609  13.907  65.172  1.00  0.00     0.000 HD 
HETATM    8  O   UNL     2     -12.730  13.573  65.036  1.00  0.00    -0.621 OA 
ENDBRANCH   5   6
BRANCH   5   9
HETATM    9  O   UNL     2      -9.951  13.109  67.043  1.00  0.00    -0.235 OA 
HETATM   10  O   UNL     2      -8.698  14.959  66.763  1.00  0.00    -0.243 OA 
HETATM   11  P   UNL     2      -8.380  13.648  67.529  1.00  0.00    -0.197 P  
HETATM   12  O   UNL     2      -7.919  12.396  66.742  1.00  0.00    -0.090 OA 
HETATM   13  O   UNL     2      -6.975  14.130  67.964  1.00  0.00    -0.111 OA 
ENDBRANCH   5   9
ENDBRANCH   3   5
TORSDOF 3
ENDMDL
MODEL       84
REMARK 921   NORMALIZED FREE ENERGY PREDICTED BY IDOCK:   -3.03 KCAL/MOL
REMARK 922        TOTAL FREE ENERGY PREDICTED BY IDOCK:   -4.02 KCAL/MOL
REMARK 923 INTER-LIGAND FREE ENERGY PREDICTED BY IDOCK:   -3.75 KCAL/MOL
REMARK 924 INTRA-LIGAND FREE ENERGY PREDICTED BY IDOCK:   -0.27 KCAL/MOL
REMARK 927      BINDING AFFINITY PREDICTED BY RF-SCORE:    0.00 PKD
ROOT
HETATM    1 CA   UNL     1     -12.069  10.931  68.113  1.00  0.00    -0.280 Ca 
HETATM    2  O   UNL     2     -11.271  12.442  69.410  1.00  0.00    -0.374 OA 
HETATM    3  C   UNL     2     -11.984  13.666  69.049  1.00  0.00    -0.353 C  
HETATM    4  H   UNL     2     -11.616  12.059  70.208  1.00  0.00     0.000 HD 
ENDROOT
BRANCH   3   5
HETATM    5  C   UNL     2     -11.425  14.290  67.751  1.00  0.00    -0.329 C  
BRANCH   5   6
HETATM    6  C   UNL     2     -12.137  13.846  66.480  1.00  0.00    -0.449 C  
HETATM    7  H   UNL     2     -12.633  12.120  65.592  1.00  0.00     0.000 HD 
HETATM    8  O   UNL     2     -12.190  12.397  66.384  1.00  0.00    -0.604 OA 
ENDBRANCH   5   6
BRANCH   5   9
HETATM    9  O   UNL     2     -11.519  15.696  67.789  1.00  0.00    -0.307 OA 
HETATM   10  O   UNL     2      -9.310  15.368  67.501  1.00  0.00    -0.201 OA 
HETATM   11  P   UNL     2     -10.060  16.525  68.211  1.00  0.00    -0.289 P  
HETATM   12  O   UNL     2     -10.589  16.320  69.653  1.00  0.00    -0.288 OA 
HETATM   13  O   UNL     2      -8.755  17.266  68.590  1.00  0.00    -0.272 OA 
ENDBRANCH   5   9
ENDBRANCH   3   5
TORSDOF 3
ENDMDL
MODEL       85
REMARK 921   NORMALIZED FREE ENERGY PREDICTED BY IDOCK:   -3.03 KCAL/MOL
REMARK 922        TOTAL FREE ENERGY PREDICTED BY IDOCK:   -4.01 KCAL/MOL
REMARK 923 INTER-LIGAND FREE ENERGY PREDICTED BY IDOCK:   -3.72 KCAL/MOL
REMARK 924 INTRA-LIGAND FREE ENERGY PREDICTED BY IDOCK:   -0.29 KCAL/MOL
REMARK 927      BINDING AFFINITY PREDICTED BY RF-SCORE:    0.00 PKD
ROOT
HETATM    1 CA   UNL     1     -12.231  16.278  63.258  1.00  0.00    -0.847 Ca 
HETATM    2  O   UNL     2     -10.947  16.328  64.976  1.00  0.00    -0.479 OA 
HETATM    3  C   UNL     2     -10.103  15.142  64.853  1.00  0.00    -0.116 C  
HETATM    4  H   UNL     2     -10.485  17.116  64.713  1.00  0.00     0.000 HD 
ENDROOT
BRANCH   3   5
HETATM    5  C   UNL     2     -10.855  13.861  65.281  1.00  0.00    -0.333 C  
BRANCH   5   6
HETATM    6  C   UNL     2     -11.797  13.300  64.224  1.00  0.00    -0.417 C  
HETATM    7  H   UNL     2     -13.620  13.711  63.503  1.00  0.00     0.000 HD 
HETATM    8  O   UNL     2     -13.033  14.061  64.162  1.00  0.00    -0.367 OA 
ENDBRANCH   5   6
BRANCH   5   9
HETATM    9  O   UNL     2      -9.948  12.828  65.594  1.00  0.00    -0.269 OA 
HETATM   10  O   UNL     2     -11.477  12.643  67.236  1.00  0.00    -0.301 OA 
HETATM   11  P   UNL     2      -9.963  12.304  67.242  1.00  0.00    -0.208 P  
HETATM   12  O   UNL     2      -8.927  13.443  67.412  1.00  0.00    -0.194 OA 
HETATM   13  O   UNL     2      -9.976  11.835  68.718  1.00  0.00    -0.194 OA 
ENDBRANCH   5   9
ENDBRANCH   3   5
TORSDOF 3
ENDMDL
MODEL       86
REMARK 921   NORMALIZED FREE ENERGY PREDICTED BY IDOCK:   -2.99 KCAL/MOL
REMARK 922        TOTAL FREE ENERGY PREDICTED BY IDOCK:   -3.98 KCAL/MOL
REMARK 923 INTER-LIGAND FREE ENERGY PREDICTED BY IDOCK:   -3.73 KCAL/MOL
REMARK 924 INTRA-LIGAND FREE ENERGY PREDICTED BY IDOCK:   -0.25 KCAL/MOL
REMARK 927      BINDING AFFINITY PREDICTED BY RF-SCORE:    0.00 PKD
ROOT
HETATM    1 CA   UNL     1      -6.445  18.980  64.339  1.00  0.00    -0.257 Ca 
HETATM    2  O   UNL     2      -7.893  20.373  65.091  1.00  0.00    -0.396 OA 
HETATM    3  C   UNL     2      -8.088  19.998  66.490  1.00  0.00    -0.311 C  
HETATM    4  H   UNL     2      -7.331  21.134  65.007  1.00  0.00     0.000 HD 
ENDROOT
BRANCH   3   5
HETATM    5  C   UNL     2      -9.003  18.761  66.626  1.00  0.00    -0.315 C  
BRANCH   5   6
HETATM    6  C   UNL     2     -10.470  19.023  66.311  1.00  0.00    -0.457 C  
HETATM    7  H   UNL     2     -11.824  18.409  64.969  1.00  0.00     0.000 HD 
HETATM    8  O   UNL     2     -10.910  18.245  65.165  1.00  0.00    -0.656 OA 
ENDBRANCH   5   6
BRANCH   5   9
HETATM    9  O   UNL     2      -8.587  17.731  65.758  1.00  0.00    -0.510 OA 
HETATM   10  O   UNL     2      -8.307  16.794  67.786  1.00  0.00    -0.183 OA 
HETATM   11  P   UNL     2      -7.540  16.547  66.461  1.00  0.00    -0.125 P  
HETATM   12  O   UNL     2      -6.437  17.542  66.020  1.00  0.00    -0.231 OA 
HETATM   13  O   UNL     2      -6.602  15.488  67.090  1.00  0.00    -0.283 OA 
ENDBRANCH   5   9
ENDBRANCH   3   5
TORSDOF 3
ENDMDL
MODEL       87
REMARK 921   NORMALIZED FREE ENERGY PREDICTED BY IDOCK:   -2.97 KCAL/MOL
REMARK 922        TOTAL FREE ENERGY PREDICTED BY IDOCK:   -3.95 KCAL/MOL
REMARK 923 INTER-LIGAND FREE ENERGY PREDICTED BY IDOCK:   -3.70 KCAL/MOL
REMARK 924 INTRA-LIGAND FREE ENERGY PREDICTED BY IDOCK:   -0.25 KCAL/MOL
REMARK 927      BINDING AFFINITY PREDICTED BY RF-SCORE:    0.00 PKD
ROOT
HETATM    1 CA   UNL     1      -8.779  12.682  65.586  1.00  0.00    -0.393 Ca 
HETATM    2  O   UNL     2      -9.645  14.523  64.907  1.00  0.00    -0.374 OA 
HETATM    3  C   UNL     2      -9.358  15.489  65.965  1.00  0.00    -0.344 C  
HETATM    4  H   UNL     2      -9.056  14.627  64.168  1.00  0.00     0.000 HD 
ENDROOT
BRANCH   3   5
HETATM    5  C   UNL     2     -10.316  15.321  67.165  1.00  0.00    -0.265 C  
BRANCH   5   6
HETATM    6  C   UNL     2     -10.739  16.629  67.823  1.00  0.00    -0.327 C  
HETATM    7  H   UNL     2      -9.858  18.305  68.477  1.00  0.00     0.000 HD 
HETATM    8  O   UNL     2      -9.595  17.490  68.067  1.00  0.00    -0.267 OA 
ENDBRANCH   5   6
BRANCH   5   9
HETATM    9  O   UNL     2     -11.504  14.672  66.772  1.00  0.00    -0.352 OA 
HETATM   10  O   UNL     2     -11.047  13.689  68.746  1.00  0.00    -0.250 OA 
HETATM   11  P   UNL     2     -11.778  13.126  67.499  1.00  0.00    -0.339 P  
HETATM   12  O   UNL     2     -10.949  12.626  66.290  1.00  0.00    -0.270 OA 
HETATM   13  O   UNL     2     -12.022  11.742  68.150  1.00  0.00    -0.521 OA 
ENDBRANCH   5   9
ENDBRANCH   3   5
TORSDOF 3
ENDMDL
MODEL       88
REMARK 921   NORMALIZED FREE ENERGY PREDICTED BY IDOCK:   -2.97 KCAL/MOL
REMARK 922        TOTAL FREE ENERGY PREDICTED BY IDOCK:   -3.95 KCAL/MOL
REMARK 923 INTER-LIGAND FREE ENERGY PREDICTED BY IDOCK:   -3.50 KCAL/MOL
REMARK 924 INTRA-LIGAND FREE ENERGY PREDICTED BY IDOCK:   -0.44 KCAL/MOL
REMARK 927      BINDING AFFINITY PREDICTED BY RF-SCORE:    0.00 PKD
ROOT
HETATM    1 CA   UNL     1     -10.142   8.949  68.591  1.00  0.00    -0.155 Ca 
HETATM    2  O   UNL     2      -9.677  10.727  67.484  1.00  0.00    -0.164 OA 
HETATM    3  C   UNL     2      -9.820  11.819  68.444  1.00  0.00    -0.199 C  
HETATM    4  H   UNL     2      -8.765  10.502  67.342  1.00  0.00     0.000 HD 
ENDROOT
BRANCH   3   5
HETATM    5  C   UNL     2     -11.303  12.184  68.675  1.00  0.00    -0.280 C  
BRANCH   5   6
HETATM    6  C   UNL     2     -11.937  12.989  67.547  1.00  0.00    -0.306 C  
HETATM    7  H   UNL     2     -12.329  12.746  65.598  1.00  0.00     0.000 HD 
HETATM    8  O   UNL     2     -11.934  12.244  66.301  1.00  0.00    -0.588 OA 
ENDBRANCH   5   6
BRANCH   5   9
HETATM    9  O   UNL     2     -12.089  11.023  68.824  1.00  0.00    -0.518 OA 
HETATM   10  O   UNL     2     -12.502  12.136  70.738  1.00  0.00    -0.347 OA 
HETATM   11  P   UNL     2     -12.498  10.611  70.454  1.00  0.00    -0.251 P  
HETATM   12  O   UNL     2     -11.150   9.850  70.395  1.00  0.00    -0.270 OA 
HETATM   13  O   UNL     2     -12.862  10.242  71.913  1.00  0.00    -0.425 OA 
ENDBRANCH   5   9
ENDBRANCH   3   5
TORSDOF 3
ENDMDL
MODEL       89
REMARK 921   NORMALIZED FREE ENERGY PREDICTED BY IDOCK:   -2.96 KCAL/MOL
REMARK 922        TOTAL FREE ENERGY PREDICTED BY IDOCK:   -3.94 KCAL/MOL
REMARK 923 INTER-LIGAND FREE ENERGY PREDICTED BY IDOCK:   -3.90 KCAL/MOL
REMARK 924 INTRA-LIGAND FREE ENERGY PREDICTED BY IDOCK:   -0.04 KCAL/MOL
REMARK 927      BINDING AFFINITY PREDICTED BY RF-SCORE:    0.00 PKD
ROOT
HETATM    1 CA   UNL     1      -7.906  16.481  69.585  1.00  0.00    -0.235 Ca 
HETATM    2  O   UNL     2     -10.007  16.231  69.225  1.00  0.00    -0.245 OA 
HETATM    3  C   UNL     2     -10.090  15.475  67.978  1.00  0.00    -0.223 C  
HETATM    4  H   UNL     2     -10.157  15.676  69.982  1.00  0.00     0.000 HD 
ENDROOT
BRANCH   3   5
HETATM    5  C   UNL     2      -9.847  16.377  66.748  1.00  0.00    -0.256 C  
BRANCH   5   6
HETATM    6  C   UNL     2     -10.764  16.093  65.565  1.00  0.00    -0.342 C  
HETATM    7  H   UNL     2     -11.498  17.092  63.992  1.00  0.00     0.000 HD 
HETATM    8  O   UNL     2     -10.926  17.269  64.729  1.00  0.00    -0.950 OA 
ENDBRANCH   5   6
BRANCH   5   9
HETATM    9  O   UNL     2     -10.032  17.736  67.077  1.00  0.00    -0.297 OA 
HETATM   10  O   UNL     2      -8.214  17.804  65.750  1.00  0.00    -0.538 OA 
HETATM   11  P   UNL     2      -8.627  18.734  66.921  1.00  0.00    -0.303 P  
HETATM   12  O   UNL     2      -8.379  18.278  68.381  1.00  0.00    -0.293 OA 
HETATM   13  O   UNL     2      -7.370  19.626  66.782  1.00  0.00    -0.218 OA 
ENDBRANCH   5   9
ENDBRANCH   3   5
TORSDOF 3
ENDMDL
MODEL       90
REMARK 921   NORMALIZED FREE ENERGY PREDICTED BY IDOCK:   -2.96 KCAL/MOL
REMARK 922        TOTAL FREE ENERGY PREDICTED BY IDOCK:   -3.94 KCAL/MOL
REMARK 923 INTER-LIGAND FREE ENERGY PREDICTED BY IDOCK:   -3.49 KCAL/MOL
REMARK 924 INTRA-LIGAND FREE ENERGY PREDICTED BY IDOCK:   -0.45 KCAL/MOL
REMARK 927      BINDING AFFINITY PREDICTED BY RF-SCORE:    0.00 PKD
ROOT
HETATM    1 CA   UNL     1     -11.747  16.020  69.465  1.00  0.00    -0.252 Ca 
HETATM    2  O   UNL     2     -10.025  14.832  69.942  1.00  0.00    -0.440 OA 
HETATM    3  C   UNL     2      -8.913  15.486  69.256  1.00  0.00    -0.267 C  
HETATM    4  H   UNL     2     -10.035  15.039  70.870  1.00  0.00     0.000 HD 
ENDROOT
BRANCH   3   5
HETATM    5  C   UNL     2      -8.897  15.151  67.749  1.00  0.00    -0.170 C  
BRANCH   5   6
HETATM    6  C   UNL     2      -8.449  13.732  67.422  1.00  0.00    -0.202 C  
HETATM    7  H   UNL     2      -9.086  11.865  67.772  1.00  0.00     0.000 HD 
HETATM    8  O   UNL     2      -9.365  12.750  67.976  1.00  0.00    -0.200 OA 
ENDBRANCH   5   6
BRANCH   5   9
HETATM    9  O   UNL     2     -10.182  15.301  67.188  1.00  0.00    -0.246 OA 
HETATM   10  O   UNL     2      -8.905  16.539  65.807  1.00  0.00    -0.474 OA 
HETATM   11  P   UNL     2     -10.398  16.702  66.196  1.00  0.00    -0.257 P  
HETATM   12  O   UNL     2     -10.767  17.364  67.547  1.00  0.00    -0.347 OA 
HETATM   13  O   UNL     2     -10.591  17.956  65.308  1.00  0.00    -0.637 OA 
ENDBRANCH   5   9
ENDBRANCH   3   5
TORSDOF 3
ENDMDL
MODEL       91
REMARK 921   NORMALIZED FREE ENERGY PREDICTED BY IDOCK:   -2.96 KCAL/MOL
REMARK 922        TOTAL FREE ENERGY PREDICTED BY IDOCK:   -3.94 KCAL/MOL
REMARK 923 INTER-LIGAND FREE ENERGY PREDICTED BY IDOCK:   -3.84 KCAL/MOL
REMARK 924 INTRA-LIGAND FREE ENERGY PREDICTED BY IDOCK:   -0.10 KCAL/MOL
REMARK 927      BINDING AFFINITY PREDICTED BY RF-SCORE:    0.00 PKD
ROOT
HETATM    1 CA   UNL     1     -13.283  13.904  64.590  1.00  0.00    -0.616 Ca 
HETATM    2  O   UNL     2     -11.228  13.342  64.844  1.00  0.00    -0.302 OA 
HETATM    3  C   UNL     2     -11.203  12.533  66.060  1.00  0.00    -0.315 C  
HETATM    4  H   UNL     2     -11.191  12.801  64.063  1.00  0.00     0.000 HD 
ENDROOT
BRANCH   3   5
HETATM    5  C   UNL     2     -11.263  13.412  67.330  1.00  0.00    -0.295 C  
BRANCH   5   6
HETATM    6  C   UNL     2     -11.573  12.649  68.611  1.00  0.00    -0.316 C  
HETATM    7  H   UNL     2     -12.384  10.890  69.123  1.00  0.00     0.000 HD 
HETATM    8  O   UNL     2     -12.191  11.365  68.324  1.00  0.00    -0.588 OA 
ENDBRANCH   5   6
BRANCH   5   9
HETATM    9  O   UNL     2     -10.034  14.067  67.545  1.00  0.00    -0.232 OA 
HETATM   10  O   UNL     2     -11.527  15.714  67.902  1.00  0.00    -0.329 OA 
HETATM   11  P   UNL     2     -10.071  15.788  67.372  1.00  0.00    -0.254 P  
HETATM   12  O   UNL     2      -9.782  15.451  65.887  1.00  0.00    -0.311 OA 
HETATM   13  O   UNL     2     -10.105  17.328  67.216  1.00  0.00    -0.283 OA 
ENDBRANCH   5   9
ENDBRANCH   3   5
TORSDOF 3
ENDMDL
MODEL       92
REMARK 921   NORMALIZED FREE ENERGY PREDICTED BY IDOCK:   -2.95 KCAL/MOL
REMARK 922        TOTAL FREE ENERGY PREDICTED BY IDOCK:   -3.92 KCAL/MOL
REMARK 923 INTER-LIGAND FREE ENERGY PREDICTED BY IDOCK:   -3.78 KCAL/MOL
REMARK 924 INTRA-LIGAND FREE ENERGY PREDICTED BY IDOCK:   -0.14 KCAL/MOL
REMARK 927      BINDING AFFINITY PREDICTED BY RF-SCORE:    0.00 PKD
ROOT
HETATM    1 CA   UNL     1     -12.007  13.821  64.898  1.00  0.00    -0.325 Ca 
HETATM    2  O   UNL     2      -9.901  14.229  64.940  1.00  0.00    -0.545 OA 
HETATM    3  C   UNL     2      -9.562  14.323  66.358  1.00  0.00    -0.298 C  
HETATM    4  H   UNL     2      -9.645  13.390  64.573  1.00  0.00     0.000 HD 
ENDROOT
BRANCH   3   5
HETATM    5  C   UNL     2      -9.978  15.686  66.954  1.00  0.00    -0.248 C  
BRANCH   5   6
HETATM    6  C   UNL     2      -9.925  16.847  65.970  1.00  0.00    -0.293 C  
HETATM    7  H   UNL     2     -10.966  17.486  64.383  1.00  0.00     0.000 HD 
HETATM    8  O   UNL     2     -10.999  16.762  64.996  1.00  0.00    -0.584 OA 
ENDBRANCH   5   6
BRANCH   5   9
HETATM    9  O   UNL     2     -11.299  15.638  67.443  1.00  0.00    -0.281 OA 
HETATM   10  O   UNL     2     -10.180  16.547  69.171  1.00  0.00    -0.263 OA 
HETATM   11  P   UNL     2     -11.454  15.663  69.166  1.00  0.00    -0.392 P  
HETATM   12  O   UNL     2     -11.317  14.128  69.007  1.00  0.00    -0.245 OA 
HETATM   13  O   UNL     2     -11.592  15.686  70.708  1.00  0.00    -0.311 OA 
ENDBRANCH   5   9
ENDBRANCH   3   5
TORSDOF 3
ENDMDL
MODEL       93
REMARK 921   NORMALIZED FREE ENERGY PREDICTED BY IDOCK:   -2.94 KCAL/MOL
REMARK 922        TOTAL FREE ENERGY PREDICTED BY IDOCK:   -3.92 KCAL/MOL
REMARK 923 INTER-LIGAND FREE ENERGY PREDICTED BY IDOCK:   -3.70 KCAL/MOL
REMARK 924 INTRA-LIGAND FREE ENERGY PREDICTED BY IDOCK:   -0.22 KCAL/MOL
REMARK 927      BINDING AFFINITY PREDICTED BY RF-SCORE:    0.00 PKD
ROOT
HETATM    1 CA   UNL     1      -9.624  13.542  63.920  1.00  0.00    -0.568 Ca 
HETATM    2  O   UNL     2      -9.052  11.484  63.724  1.00  0.00    -0.433 OA 
HETATM    3  C   UNL     2     -10.193  10.724  64.230  1.00  0.00    -0.354 C  
HETATM    4  H   UNL     2      -9.030  11.492  62.774  1.00  0.00     0.000 HD 
ENDROOT
BRANCH   3   5
HETATM    5  C   UNL     2     -10.229  10.710  65.774  1.00  0.00    -0.252 C  
BRANCH   5   6
HETATM    6  C   UNL     2      -9.342   9.652  66.416  1.00  0.00    -0.174 C  
HETATM    7  H   UNL     2      -8.356   9.400  68.142  1.00  0.00     0.000 HD 
HETATM    8  O   UNL     2      -8.910  10.060  67.742  1.00  0.00    -0.125 OA 
ENDBRANCH   5   6
BRANCH   5   9
HETATM    9  O   UNL     2      -9.811  11.950  66.297  1.00  0.00    -0.214 OA 
HETATM   10  O   UNL     2     -11.807  11.653  67.297  1.00  0.00    -0.609 OA 
HETATM   11  P   UNL     2     -11.077  12.963  66.902  1.00  0.00    -0.304 P  
HETATM   12  O   UNL     2     -11.126  13.451  65.432  1.00  0.00    -0.285 OA 
HETATM   13  O   UNL     2     -12.210  13.870  67.442  1.00  0.00    -0.378 OA 
ENDBRANCH   5   9
ENDBRANCH   3   5
TORSDOF 3
ENDMDL
MODEL       94
REMARK 921   NORMALIZED FREE ENERGY PREDICTED BY IDOCK:   -2.94 KCAL/MOL
REMARK 922        TOTAL FREE ENERGY PREDICTED BY IDOCK:   -3.92 KCAL/MOL
REMARK 923 INTER-LIGAND FREE ENERGY PREDICTED BY IDOCK:   -3.84 KCAL/MOL
REMARK 924 INTRA-LIGAND FREE ENERGY PREDICTED BY IDOCK:   -0.08 KCAL/MOL
REMARK 927      BINDING AFFINITY PREDICTED BY RF-SCORE:    0.00 PKD
ROOT
HETATM    1 CA   UNL     1      -9.682   7.582  65.287  1.00  0.00    -0.389 Ca 
HETATM    2  O   UNL     2      -9.566   9.291  66.579  1.00  0.00    -0.187 OA 
HETATM    3  C   UNL     2     -10.521  10.249  66.027  1.00  0.00    -0.111 C  
HETATM    4  H   UNL     2      -9.917   8.845  67.341  1.00  0.00     0.000 HD 
ENDROOT
BRANCH   3   5
HETATM    5  C   UNL     2      -9.951  10.974  64.788  1.00  0.00    -0.294 C  
BRANCH   5   6
HETATM    6  C   UNL     2      -8.810  10.238  64.096  1.00  0.00    -0.222 C  
HETATM    7  H   UNL     2      -6.899   9.779  64.482  1.00  0.00     0.000 HD 
HETATM    8  O   UNL     2      -7.610  10.238  64.914  1.00  0.00    -0.143 OA 
ENDBRANCH   5   6
BRANCH   5   9
HETATM    9  O   UNL     2     -10.951  11.164  63.813  1.00  0.00    -0.363 OA 
HETATM   10  O   UNL     2     -10.276  13.271  64.229  1.00  0.00    -0.396 OA 
HETATM   11  P   UNL     2     -11.663  12.741  63.780  1.00  0.00    -0.541 P  
HETATM   12  O   UNL     2     -12.619  12.120  64.829  1.00  0.00    -0.473 OA 
HETATM   13  O   UNL     2     -12.299  14.152  63.751  1.00  0.00    -0.716 OA 
ENDBRANCH   5   9
ENDBRANCH   3   5
TORSDOF 3
ENDMDL
MODEL       95
REMARK 921   NORMALIZED FREE ENERGY PREDICTED BY IDOCK:   -2.93 KCAL/MOL
REMARK 922        TOTAL FREE ENERGY PREDICTED BY IDOCK:   -3.91 KCAL/MOL
REMARK 923 INTER-LIGAND FREE ENERGY PREDICTED BY IDOCK:   -3.62 KCAL/MOL
REMARK 924 INTRA-LIGAND FREE ENERGY PREDICTED BY IDOCK:   -0.28 KCAL/MOL
REMARK 927      BINDING AFFINITY PREDICTED BY RF-SCORE:    0.00 PKD
ROOT
HETATM    1 CA   UNL     1     -12.836  15.422  73.974  1.00  0.00    -0.399 Ca 
HETATM    2  O   UNL     2     -14.346  15.543  72.454  1.00  0.00    -0.558 OA 
HETATM    3  C   UNL     2     -14.177  14.331  71.655  1.00  0.00    -0.388 C  
HETATM    4  H   UNL     2     -15.078  15.467  73.055  1.00  0.00     0.000 HD 
ENDROOT
BRANCH   3   5
HETATM    5  C   UNL     2     -12.987  14.454  70.678  1.00  0.00    -0.289 C  
BRANCH   5   6
HETATM    6  C   UNL     2     -12.347  15.836  70.634  1.00  0.00    -0.371 C  
HETATM    7  H   UNL     2     -11.017  16.881  71.706  1.00  0.00     0.000 HD 
HETATM    8  O   UNL     2     -11.416  16.020  71.734  1.00  0.00    -0.413 OA 
ENDBRANCH   5   6
BRANCH   5   9
HETATM    9  O   UNL     2     -11.961  13.551  71.020  1.00  0.00    -0.237 OA 
HETATM   10  O   UNL     2     -12.240  13.153  68.822  1.00  0.00    -0.255 OA 
HETATM   11  P   UNL     2     -11.777  12.200  69.954  1.00  0.00    -0.149 P  
HETATM   12  O   UNL     2     -12.831  11.562  70.894  1.00  0.00    -0.294 OA 
HETATM   13  O   UNL     2     -11.613  10.991  69.001  1.00  0.00    -0.271 OA 
ENDBRANCH   5   9
ENDBRANCH   3   5
TORSDOF 3
ENDMDL
MODEL       96
REMARK 921   NORMALIZED FREE ENERGY PREDICTED BY IDOCK:   -2.93 KCAL/MOL
REMARK 922        TOTAL FREE ENERGY PREDICTED BY IDOCK:   -3.90 KCAL/MOL
REMARK 923 INTER-LIGAND FREE ENERGY PREDICTED BY IDOCK:   -3.98 KCAL/MOL
REMARK 924 INTRA-LIGAND FREE ENERGY PREDICTED BY IDOCK:    0.09 KCAL/MOL
REMARK 927      BINDING AFFINITY PREDICTED BY RF-SCORE:    0.00 PKD
ROOT
HETATM    1 CA   UNL     1     -11.129  18.316  66.082  1.00  0.00    -0.338 Ca 
HETATM    2  O   UNL     2      -9.996  16.740  66.998  1.00  0.00    -0.255 OA 
HETATM    3  C   UNL     2      -9.844  15.728  65.955  1.00  0.00    -0.349 C  
HETATM    4  H   UNL     2      -9.205  17.256  67.104  1.00  0.00     0.000 HD 
ENDROOT
BRANCH   3   5
HETATM    5  C   UNL     2     -11.130  14.890  65.781  1.00  0.00    -0.342 C  
BRANCH   5   6
HETATM    6  C   UNL     2     -11.731  14.939  64.383  1.00  0.00    -0.328 C  
HETATM    7  H   UNL     2     -12.114  16.325  62.988  1.00  0.00     0.000 HD 
HETATM    8  O   UNL     2     -11.739  16.294  63.860  1.00  0.00    -0.986 OA 
ENDBRANCH   5   6
BRANCH   5   9
HETATM    9  O   UNL     2     -10.884  13.530  66.061  1.00  0.00    -0.277 OA 
HETATM   10  O   UNL     2     -12.274  14.123  67.730  1.00  0.00    -0.334 OA 
HETATM   11  P   UNL     2     -11.153  13.051  67.702  1.00  0.00    -0.296 P  
HETATM   12  O   UNL     2      -9.676  13.488  67.868  1.00  0.00    -0.211 OA 
HETATM   13  O   UNL     2     -11.393  12.623  69.170  1.00  0.00    -0.267 OA 
ENDBRANCH   5   9
ENDBRANCH   3   5
TORSDOF 3
ENDMDL
MODEL       97
REMARK 921   NORMALIZED FREE ENERGY PREDICTED BY IDOCK:   -2.92 KCAL/MOL
REMARK 922        TOTAL FREE ENERGY PREDICTED BY IDOCK:   -3.89 KCAL/MOL
REMARK 923 INTER-LIGAND FREE ENERGY PREDICTED BY IDOCK:   -3.64 KCAL/MOL
REMARK 924 INTRA-LIGAND FREE ENERGY PREDICTED BY IDOCK:   -0.25 KCAL/MOL
REMARK 927      BINDING AFFINITY PREDICTED BY RF-SCORE:    0.00 PKD
ROOT
HETATM    1 CA   UNL     1     -10.295  19.026  69.383  1.00  0.00    -0.355 Ca 
HETATM    2  O   UNL     2      -8.850  19.066  67.798  1.00  0.00    -0.286 OA 
HETATM    3  C   UNL     2      -9.533  18.480  66.647  1.00  0.00    -0.311 C  
HETATM    4  H   UNL     2      -8.814  20.014  67.740  1.00  0.00     0.000 HD 
ENDROOT
BRANCH   3   5
HETATM    5  C   UNL     2      -9.591  16.940  66.741  1.00  0.00    -0.262 C  
BRANCH   5   6
HETATM    6  C   UNL     2      -9.132  16.372  68.078  1.00  0.00    -0.200 C  
HETATM    7  H   UNL     2      -9.709  16.458  69.995  1.00  0.00     0.000 HD 
HETATM    8  O   UNL     2      -9.995  16.812  69.161  1.00  0.00    -0.267 OA 
ENDBRANCH   5   6
BRANCH   5   9
HETATM    9  O   UNL     2     -10.906  16.473  66.541  1.00  0.00    -0.200 OA 
HETATM   10  O   UNL     2      -9.673  14.893  65.516  1.00  0.00    -0.331 OA 
HETATM   11  P   UNL     2     -11.112  15.385  65.212  1.00  0.00    -0.299 P  
HETATM   12  O   UNL     2     -11.317  16.700  64.419  1.00  0.00    -1.023 OA 
HETATM   13  O   UNL     2     -11.296  14.412  64.022  1.00  0.00    -0.106 OA 
ENDBRANCH   5   9
ENDBRANCH   3   5
TORSDOF 3
ENDMDL
MODEL       98
REMARK 921   NORMALIZED FREE ENERGY PREDICTED BY IDOCK:   -2.92 KCAL/MOL
REMARK 922        TOTAL FREE ENERGY PREDICTED BY IDOCK:   -3.89 KCAL/MOL
REMARK 923 INTER-LIGAND FREE ENERGY PREDICTED BY IDOCK:   -3.63 KCAL/MOL
REMARK 924 INTRA-LIGAND FREE ENERGY PREDICTED BY IDOCK:   -0.25 KCAL/MOL
REMARK 927      BINDING AFFINITY PREDICTED BY RF-SCORE:    0.00 PKD
ROOT
HETATM    1 CA   UNL     1     -10.294  15.487  65.435  1.00  0.00    -0.251 Ca 
HETATM    2  O   UNL     2      -9.098  17.234  65.784  1.00  0.00    -0.523 OA 
HETATM    3  C   UNL     2      -8.620  17.097  67.158  1.00  0.00    -0.204 C  
HETATM    4  H   UNL     2      -8.425  17.002  65.155  1.00  0.00     0.000 HD 
ENDROOT
BRANCH   3   5
HETATM    5  C   UNL     2      -9.714  17.473  68.182  1.00  0.00    -0.302 C  
BRANCH   5   6
HETATM    6  C   UNL     2      -9.924  18.971  68.360  1.00  0.00    -0.408 C  
HETATM    7  H   UNL     2      -8.926  20.518  69.150  1.00  0.00     0.000 HD 
HETATM    8  O   UNL     2      -8.795  19.584  69.039  1.00  0.00    -0.340 OA 
ENDBRANCH   5   6
BRANCH   5   9
HETATM    9  O   UNL     2     -10.963  16.940  67.801  1.00  0.00    -0.315 OA 
HETATM   10  O   UNL     2     -10.808  16.312  69.957  1.00  0.00    -0.335 OA 
HETATM   11  P   UNL     2     -11.534  15.626  68.771  1.00  0.00    -0.384 P  
HETATM   12  O   UNL     2     -10.717  14.780  67.762  1.00  0.00    -0.260 OA 
HETATM   13  O   UNL     2     -12.045  14.450  69.639  1.00  0.00    -0.311 OA 
ENDBRANCH   5   9
ENDBRANCH   3   5
TORSDOF 3
ENDMDL
MODEL       99
REMARK 921   NORMALIZED FREE ENERGY PREDICTED BY IDOCK:   -2.92 KCAL/MOL
REMARK 922        TOTAL FREE ENERGY PREDICTED BY IDOCK:   -3.89 KCAL/MOL
REMARK 923 INTER-LIGAND FREE ENERGY PREDICTED BY IDOCK:   -3.58 KCAL/MOL
REMARK 924 INTRA-LIGAND FREE ENERGY PREDICTED BY IDOCK:   -0.31 KCAL/MOL
REMARK 927      BINDING AFFINITY PREDICTED BY RF-SCORE:    0.00 PKD
ROOT
HETATM    1 CA   UNL     1      -9.883  21.034  66.577  1.00  0.00    -0.534 Ca 
HETATM    2  O   UNL     2     -10.990  20.047  68.127  1.00  0.00    -0.145 OA 
HETATM    3  C   UNL     2     -10.021  19.180  68.792  1.00  0.00    -0.427 C  
HETATM    4  H   UNL     2     -11.156  20.837  68.628  1.00  0.00     0.000 HD 
ENDROOT
BRANCH   3   5
HETATM    5  C   UNL     2      -9.751  17.896  67.977  1.00  0.00    -0.303 C  
BRANCH   5   6
HETATM    6  C   UNL     2      -8.630  18.022  66.954  1.00  0.00    -0.250 C  
HETATM    7  H   UNL     2      -8.223  19.134  65.338  1.00  0.00     0.000 HD 
HETATM    8  O   UNL     2      -8.922  19.056  65.976  1.00  0.00    -0.456 OA 
ENDBRANCH   5   6
BRANCH   5   9
HETATM    9  O   UNL     2      -9.397  16.828  68.826  1.00  0.00    -0.243 OA 
HETATM   10  O   UNL     2     -11.077  15.944  67.615  1.00  0.00    -0.323 OA 
HETATM   11  P   UNL     2     -10.625  15.633  69.066  1.00  0.00    -0.274 P  
HETATM   12  O   UNL     2     -11.049  16.579  70.217  1.00  0.00    -0.348 OA 
HETATM   13  O   UNL     2     -11.725  14.565  69.281  1.00  0.00    -0.275 OA 
ENDBRANCH   5   9
ENDBRANCH   3   5
TORSDOF 3
ENDMDL
MODEL      100
REMARK 921   NORMALIZED FREE ENERGY PREDICTED BY IDOCK:   -2.91 KCAL/MOL
REMARK 922        TOTAL FREE ENERGY PREDICTED BY IDOCK:   -3.88 KCAL/MOL
REMARK 923 INTER-LIGAND FREE ENERGY PREDICTED BY IDOCK:   -3.88 KCAL/MOL
REMARK 924 INTRA-LIGAND FREE ENERGY PREDICTED BY IDOCK:   -0.01 KCAL/MOL
REMARK 927      BINDING AFFINITY PREDICTED BY RF-SCORE:    0.00 PKD
ROOT
HETATM    1 CA   UNL     1      -8.442  12.052  66.485  1.00  0.00    -0.162 Ca 
HETATM    2  O   UNL     2     -10.364  12.201  67.427  1.00  0.00    -0.203 OA 
HETATM    3  C   UNL     2     -11.325  12.208  66.326  1.00  0.00    -0.357 C  
HETATM    4  H   UNL     2     -10.319  11.350  67.847  1.00  0.00     0.000 HD 
ENDROOT
BRANCH   3   5
HETATM    5  C   UNL     2     -11.399  13.592  65.644  1.00  0.00    -0.298 C  
BRANCH   5   6
HETATM    6  C   UNL     2     -12.723  13.882  64.948  1.00  0.00    -0.278 C  
HETATM    7  H   UNL     2     -13.377  14.160  63.076  1.00  0.00     0.000 HD 
HETATM    8  O   UNL     2     -12.552  13.978  63.509  1.00  0.00    -0.842 OA 
ENDBRANCH   5   6
BRANCH   5   9
HETATM    9  O   UNL     2     -11.208  14.626  66.583  1.00  0.00    -0.334 OA 
HETATM   10  O   UNL     2     -10.275  15.485  64.722  1.00  0.00    -0.343 OA 
HETATM   11  P   UNL     2      -9.931  15.734  66.214  1.00  0.00    -0.347 P  
HETATM   12  O   UNL     2      -9.072  14.699  66.983  1.00  0.00    -0.213 OA 
HETATM   13  O   UNL     2      -8.788  16.725  65.884  1.00  0.00    -0.499 OA 
ENDBRANCH   5   9
ENDBRANCH   3   5
TORSDOF 3
ENDMDL
MODEL      101
REMARK 921   NORMALIZED FREE ENERGY PREDICTED BY IDOCK:   -2.91 KCAL/MOL
REMARK 922        TOTAL FREE ENERGY PREDICTED BY IDOCK:   -3.88 KCAL/MOL
REMARK 923 INTER-LIGAND FREE ENERGY PREDICTED BY IDOCK:   -3.75 KCAL/MOL
REMARK 924 INTRA-LIGAND FREE ENERGY PREDICTED BY IDOCK:   -0.13 KCAL/MOL
REMARK 927      BINDING AFFINITY PREDICTED BY RF-SCORE:    0.00 PKD
ROOT
HETATM    1 CA   UNL     1      -6.561  19.481  65.140  1.00  0.00    -0.201 Ca 
HETATM    2  O   UNL     2      -8.147  20.478  66.186  1.00  0.00    -0.523 OA 
HETATM    3  C   UNL     2      -7.636  20.688  67.538  1.00  0.00    -0.297 C  
HETATM    4  H   UNL     2      -8.104  21.273  65.667  1.00  0.00     0.000 HD 
ENDROOT
BRANCH   3   5
HETATM    5  C   UNL     2      -7.706  19.395  68.381  1.00  0.00    -0.328 C  
BRANCH   5   6
HETATM    6  C   UNL     2      -6.616  19.271  69.438  1.00  0.00    -0.312 C  
HETATM    7  H   UNL     2      -5.573  20.493  70.634  1.00  0.00     0.000 HD 
HETATM    8  O   UNL     2      -6.253  20.571  69.976  1.00  0.00    -0.370 OA 
ENDBRANCH   5   6
BRANCH   5   9
HETATM    9  O   UNL     2      -8.935  19.308  69.066  1.00  0.00    -0.338 OA 
HETATM   10  O   UNL     2      -8.696  17.228  68.238  1.00  0.00    -0.235 OA 
HETATM   11  P   UNL     2      -9.985  18.035  68.545  1.00  0.00    -0.394 P  
HETATM   12  O   UNL     2     -10.471  19.109  67.539  1.00  0.00    -0.400 OA 
HETATM   13  O   UNL     2     -10.924  16.896  68.079  1.00  0.00    -0.354 OA 
ENDBRANCH   5   9
ENDBRANCH   3   5
TORSDOF 3
ENDMDL
MODEL      102
REMARK 921   NORMALIZED FREE ENERGY PREDICTED BY IDOCK:   -2.91 KCAL/MOL
REMARK 922        TOTAL FREE ENERGY PREDICTED BY IDOCK:   -3.88 KCAL/MOL
REMARK 923 INTER-LIGAND FREE ENERGY PREDICTED BY IDOCK:   -3.45 KCAL/MOL
REMARK 924 INTRA-LIGAND FREE ENERGY PREDICTED BY IDOCK:   -0.42 KCAL/MOL
REMARK 927      BINDING AFFINITY PREDICTED BY RF-SCORE:    0.00 PKD
ROOT
HETATM    1 CA   UNL     1     -10.969   4.791  69.912  1.00  0.00    -0.258 Ca 
HETATM    2  O   UNL     2     -11.845   6.673  69.371  1.00  0.00    -0.651 OA 
HETATM    3  C   UNL     2     -11.216   7.652  70.255  1.00  0.00    -0.216 C  
HETATM    4  H   UNL     2     -11.466   6.695  68.499  1.00  0.00     0.000 HD 
ENDROOT
BRANCH   3   5
HETATM    5  C   UNL     2     -11.830   7.617  71.672  1.00  0.00    -0.291 C  
BRANCH   5   6
HETATM    6  C   UNL     2     -13.214   8.244  71.775  1.00  0.00    -0.347 C  
HETATM    7  H   UNL     2     -15.096   7.759  71.289  1.00  0.00     0.000 HD 
HETATM    8  O   UNL     2     -14.233   7.367  71.225  1.00  0.00    -0.407 OA 
ENDBRANCH   5   6
BRANCH   5   9
HETATM    9  O   UNL     2     -11.960   6.289  72.130  1.00  0.00    -0.329 OA 
HETATM   10  O   UNL     2     -10.638   7.214  73.700  1.00  0.00    -0.372 OA 
HETATM   11  P   UNL     2     -10.711   5.748  73.197  1.00  0.00    -0.278 P  
HETATM   12  O   UNL     2     -10.012   5.361  71.870  1.00  0.00    -0.173 OA 
HETATM   13  O   UNL     2      -9.592   5.264  74.152  1.00  0.00    -0.132 OA 
ENDBRANCH   5   9
ENDBRANCH   3   5
TORSDOF 3
ENDMDL
MODEL      103
REMARK 921   NORMALIZED FREE ENERGY PREDICTED BY IDOCK:   -2.91 KCAL/MOL
REMARK 922        TOTAL FREE ENERGY PREDICTED BY IDOCK:   -3.87 KCAL/MOL
REMARK 923 INTER-LIGAND FREE ENERGY PREDICTED BY IDOCK:   -3.43 KCAL/MOL
REMARK 924 INTRA-LIGAND FREE ENERGY PREDICTED BY IDOCK:   -0.44 KCAL/MOL
REMARK 927      BINDING AFFINITY PREDICTED BY RF-SCORE:    0.00 PKD
ROOT
HETATM    1 CA   UNL     1      -6.693  16.786  66.848  1.00  0.00    -0.108 Ca 
HETATM    2  O   UNL     2      -7.621  18.611  67.487  1.00  0.00    -0.226 OA 
HETATM    3  C   UNL     2      -8.900  18.203  68.065  1.00  0.00    -0.279 C  
HETATM    4  H   UNL     2      -6.978  18.802  68.160  1.00  0.00     0.000 HD 
ENDROOT
BRANCH   3   5
HETATM    5  C   UNL     2      -9.946  17.893  66.972  1.00  0.00    -0.324 C  
BRANCH   5   6
HETATM    6  C   UNL     2     -10.594  19.124  66.351  1.00  0.00    -0.435 C  
HETATM    7  H   UNL     2     -10.371  21.112  66.437  1.00  0.00     0.000 HD 
HETATM    8  O   UNL     2      -9.966  20.345  66.824  1.00  0.00    -0.450 OA 
ENDBRANCH   5   6
BRANCH   5   9
HETATM    9  O   UNL     2      -9.363  17.172  65.909  1.00  0.00    -0.504 OA 
HETATM   10  O   UNL     2     -11.074  15.840  66.514  1.00  0.00    -0.227 OA 
HETATM   11  P   UNL     2      -9.701  15.476  65.892  1.00  0.00    -0.341 P  
HETATM   12  O   UNL     2      -8.445  15.412  66.797  1.00  0.00    -0.238 OA 
HETATM   13  O   UNL     2     -10.003  13.957  65.876  1.00  0.00    -0.299 OA 
ENDBRANCH   5   9
ENDBRANCH   3   5
TORSDOF 3
ENDMDL
MODEL      104
REMARK 921   NORMALIZED FREE ENERGY PREDICTED BY IDOCK:   -2.90 KCAL/MOL
REMARK 922        TOTAL FREE ENERGY PREDICTED BY IDOCK:   -3.86 KCAL/MOL
REMARK 923 INTER-LIGAND FREE ENERGY PREDICTED BY IDOCK:   -3.43 KCAL/MOL
REMARK 924 INTRA-LIGAND FREE ENERGY PREDICTED BY IDOCK:   -0.43 KCAL/MOL
REMARK 927      BINDING AFFINITY PREDICTED BY RF-SCORE:    0.00 PKD
ROOT
HETATM    1 CA   UNL     1     -12.430   6.469  69.197  1.00  0.00    -0.589 Ca 
HETATM    2  O   UNL     2     -11.217   7.626  67.859  1.00  0.00    -0.438 OA 
HETATM    3  C   UNL     2      -9.969   7.857  68.583  1.00  0.00    -0.191 C  
HETATM    4  H   UNL     2     -11.124   6.937  67.211  1.00  0.00     0.000 HD 
ENDROOT
BRANCH   3   5
HETATM    5  C   UNL     2     -10.119   8.978  69.635  1.00  0.00    -0.197 C  
BRANCH   5   6
HETATM    6  C   UNL     2     -10.200  10.383  69.053  1.00  0.00    -0.217 C  
HETATM    7  H   UNL     2     -10.694  11.233  67.308  1.00  0.00     0.000 HD 
HETATM    8  O   UNL     2     -10.644  10.357  67.670  1.00  0.00    -0.218 OA 
ENDBRANCH   5   6
BRANCH   5   9
HETATM    9  O   UNL     2     -11.291   8.796  70.398  1.00  0.00    -0.256 OA 
HETATM   10  O   UNL     2      -9.693   8.892  71.982  1.00  0.00    -0.316 OA 
HETATM   11  P   UNL     2     -11.049   8.139  71.980  1.00  0.00    -0.361 P  
HETATM   12  O   UNL     2     -11.173   6.790  71.228  1.00  0.00    -0.254 OA 
HETATM   13  O   UNL     2     -10.833   7.550  73.396  1.00  0.00    -0.394 OA 
ENDBRANCH   5   9
ENDBRANCH   3   5
TORSDOF 3
ENDMDL
MODEL      105
REMARK 921   NORMALIZED FREE ENERGY PREDICTED BY IDOCK:   -2.89 KCAL/MOL
REMARK 922        TOTAL FREE ENERGY PREDICTED BY IDOCK:   -3.86 KCAL/MOL
REMARK 923 INTER-LIGAND FREE ENERGY PREDICTED BY IDOCK:   -3.74 KCAL/MOL
REMARK 924 INTRA-LIGAND FREE ENERGY PREDICTED BY IDOCK:   -0.11 KCAL/MOL
REMARK 927      BINDING AFFINITY PREDICTED BY RF-SCORE:    0.00 PKD
ROOT
HETATM    1 CA   UNL     1     -10.920  18.031  65.174  1.00  0.00    -0.446 Ca 
HETATM    2  O   UNL     2      -8.991  17.693  66.051  1.00  0.00    -0.495 OA 
HETATM    3  C   UNL     2      -8.795  16.246  65.987  1.00  0.00    -0.273 C  
HETATM    4  H   UNL     2      -8.507  18.143  65.368  1.00  0.00     0.000 HD 
ENDROOT
BRANCH   3   5
HETATM    5  C   UNL     2      -9.581  15.514  67.097  1.00  0.00    -0.222 C  
BRANCH   5   6
HETATM    6  C   UNL     2      -9.317  16.034  68.504  1.00  0.00    -0.213 C  
HETATM    7  H   UNL     2      -8.018  17.265  69.404  1.00  0.00     0.000 HD 
HETATM    8  O   UNL     2      -8.183  16.942  68.527  1.00  0.00    -0.228 OA 
ENDBRANCH   5   6
BRANCH   5   9
HETATM    9  O   UNL     2     -10.970  15.627  66.886  1.00  0.00    -0.315 OA 
HETATM   10  O   UNL     2     -10.716  13.421  67.252  1.00  0.00    -0.257 OA 
HETATM   11  P   UNL     2     -11.765  14.172  66.391  1.00  0.00    -0.414 P  
HETATM   12  O   UNL     2     -11.377  14.670  64.976  1.00  0.00    -0.355 OA 
HETATM   13  O   UNL     2     -12.476  12.870  65.948  1.00  0.00    -0.527 OA 
ENDBRANCH   5   9
ENDBRANCH   3   5
TORSDOF 3
ENDMDL
MODEL      106
REMARK 921   NORMALIZED FREE ENERGY PREDICTED BY IDOCK:   -2.88 KCAL/MOL
REMARK 922        TOTAL FREE ENERGY PREDICTED BY IDOCK:   -3.85 KCAL/MOL
REMARK 923 INTER-LIGAND FREE ENERGY PREDICTED BY IDOCK:   -3.42 KCAL/MOL
REMARK 924 INTRA-LIGAND FREE ENERGY PREDICTED BY IDOCK:   -0.43 KCAL/MOL
REMARK 927      BINDING AFFINITY PREDICTED BY RF-SCORE:    0.00 PKD
ROOT
HETATM    1 CA   UNL     1     -11.008  16.646  67.048  1.00  0.00    -0.311 Ca 
HETATM    2  O   UNL     2     -11.276  14.823  65.949  1.00  0.00    -0.335 OA 
HETATM    3  C   UNL     2     -12.256  14.058  66.717  1.00  0.00    -0.404 C  
HETATM    4  H   UNL     2     -11.672  15.238  65.191  1.00  0.00     0.000 HD 
ENDROOT
BRANCH   3   5
HETATM    5  C   UNL     2     -11.612  13.383  67.948  1.00  0.00    -0.339 C  
BRANCH   5   6
HETATM    6  C   UNL     2     -10.723  12.190  67.621  1.00  0.00    -0.220 C  
HETATM    7  H   UNL     2      -9.075  11.830  66.541  1.00  0.00     0.000 HD 
HETATM    8  O   UNL     2      -9.629  12.573  66.745  1.00  0.00    -0.218 OA 
ENDBRANCH   5   6
BRANCH   5   9
HETATM    9  O   UNL     2     -10.807  14.296  68.659  1.00  0.00    -0.238 OA 
HETATM   10  O   UNL     2     -12.332  13.695  70.202  1.00  0.00    -0.331 OA 
HETATM   11  P   UNL     2     -11.556  15.028  70.036  1.00  0.00    -0.333 P  
HETATM   12  O   UNL     2     -12.032  16.062  68.986  1.00  0.00    -0.342 OA 
HETATM   13  O   UNL     2     -12.226  15.683  71.269  1.00  0.00    -0.349 OA 
ENDBRANCH   5   9
ENDBRANCH   3   5
TORSDOF 3
ENDMDL
MODEL      107
REMARK 921   NORMALIZED FREE ENERGY PREDICTED BY IDOCK:   -2.88 KCAL/MOL
REMARK 922        TOTAL FREE ENERGY PREDICTED BY IDOCK:   -3.84 KCAL/MOL
REMARK 923 INTER-LIGAND FREE ENERGY PREDICTED BY IDOCK:   -3.61 KCAL/MOL
REMARK 924 INTRA-LIGAND FREE ENERGY PREDICTED BY IDOCK:   -0.23 KCAL/MOL
REMARK 927      BINDING AFFINITY PREDICTED BY RF-SCORE:    0.00 PKD
ROOT
HETATM    1 CA   UNL     1      -8.762  18.330  66.602  1.00  0.00    -0.224 Ca 
HETATM    2  O   UNL     2      -9.214  17.078  68.285  1.00  0.00    -0.239 OA 
HETATM    3  C   UNL     2      -8.633  15.778  67.956  1.00  0.00    -0.163 C  
HETATM    4  H   UNL     2      -8.670  17.560  68.897  1.00  0.00     0.000 HD 
ENDROOT
BRANCH   3   5
HETATM    5  C   UNL     2      -9.517  14.995  66.960  1.00  0.00    -0.229 C  
BRANCH   5   6
HETATM    6  C   UNL     2      -9.794  13.552  67.363  1.00  0.00    -0.227 C  
HETATM    7  H   UNL     2     -10.042  12.513  69.057  1.00  0.00     0.000 HD 
HETATM    8  O   UNL     2      -9.870  13.413  68.807  1.00  0.00    -0.152 OA 
ENDBRANCH   5   6
BRANCH   5   9
HETATM    9  O   UNL     2     -10.775  15.614  66.810  1.00  0.00    -0.308 OA 
HETATM   10  O   UNL     2     -10.408  14.764  64.758  1.00  0.00    -0.382 OA 
HETATM   11  P   UNL     2     -11.211  16.020  65.186  1.00  0.00    -0.022 P  
HETATM   12  O   UNL     2     -10.457  17.333  65.517  1.00  0.00    -0.609 OA 
HETATM   13  O   UNL     2     -11.601  16.384  63.733  1.00  0.00    -1.055 OA 
ENDBRANCH   5   9
ENDBRANCH   3   5
TORSDOF 3
ENDMDL
MODEL      108
REMARK 921   NORMALIZED FREE ENERGY PREDICTED BY IDOCK:   -2.86 KCAL/MOL
REMARK 922        TOTAL FREE ENERGY PREDICTED BY IDOCK:   -3.82 KCAL/MOL
REMARK 923 INTER-LIGAND FREE ENERGY PREDICTED BY IDOCK:   -3.36 KCAL/MOL
REMARK 924 INTRA-LIGAND FREE ENERGY PREDICTED BY IDOCK:   -0.46 KCAL/MOL
REMARK 927      BINDING AFFINITY PREDICTED BY RF-SCORE:    0.00 PKD
ROOT
HETATM    1 CA   UNL     1      -9.611  19.755  67.394  1.00  0.00    -0.286 Ca 
HETATM    2  O   UNL     2      -8.884  18.428  65.873  1.00  0.00    -0.491 OA 
HETATM    3  C   UNL     2      -7.972  17.521  66.566  1.00  0.00    -0.274 C  
HETATM    4  H   UNL     2      -9.726  18.019  65.708  1.00  0.00     0.000 HD 
ENDROOT
BRANCH   3   5
HETATM    5  C   UNL     2      -6.603  18.185  66.835  1.00  0.00    -0.181 C  
BRANCH   5   6
HETATM    6  C   UNL     2      -5.685  18.251  65.621  1.00  0.00    -0.212 C  
HETATM    7  H   UNL     2      -5.769  18.936  63.741  1.00  0.00     0.000 HD 
HETATM    8  O   UNL     2      -6.342  18.895  64.497  1.00  0.00    -0.486 OA 
ENDBRANCH   5   6
BRANCH   5   9
HETATM    9  O   UNL     2      -6.768  19.512  67.281  1.00  0.00    -0.197 OA 
HETATM   10  O   UNL     2      -5.429  18.634  68.864  1.00  0.00    -0.193 OA 
HETATM   11  P   UNL     2      -6.483  19.767  68.969  1.00  0.00    -0.343 P  
HETATM   12  O   UNL     2      -7.985  19.405  69.079  1.00  0.00    -0.351 OA 
HETATM   13  O   UNL     2      -6.229  19.995  70.479  1.00  0.00    -0.343 OA 
ENDBRANCH   5   9
ENDBRANCH   3   5
TORSDOF 3
ENDMDL
MODEL      109
REMARK 921   NORMALIZED FREE ENERGY PREDICTED BY IDOCK:   -2.83 KCAL/MOL
REMARK 922        TOTAL FREE ENERGY PREDICTED BY IDOCK:   -3.78 KCAL/MOL
REMARK 923 INTER-LIGAND FREE ENERGY PREDICTED BY IDOCK:   -3.48 KCAL/MOL
REMARK 924 INTRA-LIGAND FREE ENERGY PREDICTED BY IDOCK:   -0.30 KCAL/MOL
REMARK 927      BINDING AFFINITY PREDICTED BY RF-SCORE:    0.00 PKD
ROOT
HETATM    1 CA   UNL     1     -11.585   8.527  68.518  1.00  0.00    -0.423 Ca 
HETATM    2  O   UNL     2     -11.801   6.671  69.573  1.00  0.00    -0.658 OA 
HETATM    3  C   UNL     2     -12.178   7.051  70.933  1.00  0.00    -0.342 C  
HETATM    4  H   UNL     2     -12.552   6.375  69.071  1.00  0.00     0.000 HD 
ENDROOT
BRANCH   3   5
HETATM    5  C   UNL     2     -10.959   7.532  71.749  1.00  0.00    -0.234 C  
BRANCH   5   6
HETATM    6  C   UNL     2     -10.638   9.013  71.592  1.00  0.00    -0.364 C  
HETATM    7  H   UNL     2     -11.347  10.575  70.558  1.00  0.00     0.000 HD 
HETATM    8  O   UNL     2     -11.548   9.652  70.657  1.00  0.00    -0.270 OA 
ENDBRANCH   5   6
BRANCH   5   9
HETATM    9  O   UNL     2     -11.159   7.313  73.128  1.00  0.00    -0.331 OA 
HETATM   10  O   UNL     2      -9.080   6.511  72.810  1.00  0.00    -0.138 OA 
HETATM   11  P   UNL     2     -10.164   6.088  73.836  1.00  0.00    -0.296 P  
HETATM   12  O   UNL     2     -11.320   5.161  73.387  1.00  0.00    -0.313 OA 
HETATM   13  O   UNL     2      -9.273   4.992  74.469  1.00  0.00    -0.113 OA 
ENDBRANCH   5   9
ENDBRANCH   3   5
TORSDOF 3
ENDMDL
MODEL      110
REMARK 921   NORMALIZED FREE ENERGY PREDICTED BY IDOCK:   -2.83 KCAL/MOL
REMARK 922        TOTAL FREE ENERGY PREDICTED BY IDOCK:   -3.78 KCAL/MOL
REMARK 923 INTER-LIGAND FREE ENERGY PREDICTED BY IDOCK:   -3.47 KCAL/MOL
REMARK 924 INTRA-LIGAND FREE ENERGY PREDICTED BY IDOCK:   -0.31 KCAL/MOL
REMARK 927      BINDING AFFINITY PREDICTED BY RF-SCORE:    0.00 PKD
ROOT
HETATM    1 CA   UNL     1     -11.131  12.163  70.365  1.00  0.00    -0.464 Ca 
HETATM    2  O   UNL     2     -12.414  10.662  69.526  1.00  0.00    -0.576 OA 
HETATM    3  C   UNL     2     -13.020   9.995  70.676  1.00  0.00    -0.184 C  
HETATM    4  H   UNL     2     -13.013  11.279  69.122  1.00  0.00     0.000 HD 
ENDROOT
BRANCH   3   5
HETATM    5  C   UNL     2     -12.045   8.992  71.332  1.00  0.00    -0.327 C  
BRANCH   5   6
HETATM    6  C   UNL     2     -12.711   7.745  71.900  1.00  0.00    -0.302 C  
HETATM    7  H   UNL     2     -12.622   5.764  71.615  1.00  0.00     0.000 HD 
HETATM    8  O   UNL     2     -12.207   6.541  71.261  1.00  0.00    -0.340 OA 
ENDBRANCH   5   6
BRANCH   5   9
HETATM    9  O   UNL     2     -11.086   8.542  70.401  1.00  0.00    -0.244 OA 
HETATM   10  O   UNL     2      -9.868   8.763  72.282  1.00  0.00    -0.307 OA 
HETATM   11  P   UNL     2      -9.442   8.907  70.797  1.00  0.00    -0.271 P  
HETATM   12  O   UNL     2      -9.754  10.222  70.039  1.00  0.00    -0.160 OA 
HETATM   13  O   UNL     2      -7.971   9.235  71.152  1.00  0.00    -0.292 OA 
ENDBRANCH   5   9
ENDBRANCH   3   5
TORSDOF 3
ENDMDL
MODEL      111
REMARK 921   NORMALIZED FREE ENERGY PREDICTED BY IDOCK:   -2.82 KCAL/MOL
REMARK 922        TOTAL FREE ENERGY PREDICTED BY IDOCK:   -3.78 KCAL/MOL
REMARK 923 INTER-LIGAND FREE ENERGY PREDICTED BY IDOCK:   -3.51 KCAL/MOL
REMARK 924 INTRA-LIGAND FREE ENERGY PREDICTED BY IDOCK:   -0.27 KCAL/MOL
REMARK 927      BINDING AFFINITY PREDICTED BY RF-SCORE:    0.00 PKD
ROOT
HETATM    1 CA   UNL     1     -11.836  12.881  67.388  1.00  0.00    -0.264 Ca 
HETATM    2  O   UNL     2     -10.727  13.929  68.896  1.00  0.00    -0.247 OA 
HETATM    3  C   UNL     2     -10.928  15.345  68.597  1.00  0.00    -0.273 C  
HETATM    4  H   UNL     2     -11.274  13.642  69.618  1.00  0.00     0.000 HD 
ENDROOT
BRANCH   3   5
HETATM    5  C   UNL     2     -10.038  15.812  67.424  1.00  0.00    -0.246 C  
BRANCH   5   6
HETATM    6  C   UNL     2      -8.567  15.986  67.777  1.00  0.00    -0.163 C  
HETATM    7  H   UNL     2      -7.281  17.500  68.040  1.00  0.00     0.000 HD 
HETATM    8  O   UNL     2      -8.198  17.391  67.820  1.00  0.00    -0.209 OA 
ENDBRANCH   5   6
BRANCH   5   9
HETATM    9  O   UNL     2     -10.085  14.887  66.360  1.00  0.00    -0.264 OA 
HETATM   10  O   UNL     2     -10.526  16.836  65.324  1.00  0.00    -0.630 OA 
HETATM   11  P   UNL     2     -10.986  15.397  64.974  1.00  0.00    -0.359 P  
HETATM   12  O   UNL     2     -12.168  14.763  65.750  1.00  0.00    -0.208 OA 
HETATM   13  O   UNL     2     -11.793  15.853  63.734  1.00  0.00    -0.645 OA 
ENDBRANCH   5   9
ENDBRANCH   3   5
TORSDOF 3
ENDMDL
MODEL      112
REMARK 921   NORMALIZED FREE ENERGY PREDICTED BY IDOCK:   -2.82 KCAL/MOL
REMARK 922        TOTAL FREE ENERGY PREDICTED BY IDOCK:   -3.77 KCAL/MOL
REMARK 923 INTER-LIGAND FREE ENERGY PREDICTED BY IDOCK:   -3.45 KCAL/MOL
REMARK 924 INTRA-LIGAND FREE ENERGY PREDICTED BY IDOCK:   -0.32 KCAL/MOL
REMARK 927      BINDING AFFINITY PREDICTED BY RF-SCORE:    0.00 PKD
ROOT
HETATM    1 CA   UNL     1     -10.413  13.152  69.829  1.00  0.00    -0.419 Ca 
HETATM    2  O   UNL     2     -11.821  11.711  69.093  1.00  0.00    -0.292 OA 
HETATM    3  C   UNL     2     -11.247  11.227  67.839  1.00  0.00    -0.290 C  
HETATM    4  H   UNL     2     -11.687  11.092  69.801  1.00  0.00     0.000 HD 
ENDROOT
BRANCH   3   5
HETATM    5  C   UNL     2     -11.464  12.232  66.687  1.00  0.00    -0.373 C  
BRANCH   5   6
HETATM    6  C   UNL     2     -11.816  13.644  67.139  1.00  0.00    -0.396 C  
HETATM    7  H   UNL     2     -10.951  15.119  68.182  1.00  0.00     0.000 HD 
HETATM    8  O   UNL     2     -10.732  14.239  67.900  1.00  0.00    -0.237 OA 
ENDBRANCH   5   6
BRANCH   5   9
HETATM    9  O   UNL     2     -10.304  12.346  65.895  1.00  0.00    -0.246 OA 
HETATM   10  O   UNL     2     -11.923  12.116  64.348  1.00  0.00    -0.377 OA 
HETATM   11  P   UNL     2     -10.431  11.696  64.296  1.00  0.00    -0.399 P  
HETATM   12  O   UNL     2      -9.981  10.391  65.000  1.00  0.00    -0.294 OA 
HETATM   13  O   UNL     2     -10.545  11.113  62.866  1.00  0.00    -0.127 OA 
ENDBRANCH   5   9
ENDBRANCH   3   5
TORSDOF 3
ENDMDL
MODEL      113
REMARK 921   NORMALIZED FREE ENERGY PREDICTED BY IDOCK:   -2.81 KCAL/MOL
REMARK 922        TOTAL FREE ENERGY PREDICTED BY IDOCK:   -3.76 KCAL/MOL
REMARK 923 INTER-LIGAND FREE ENERGY PREDICTED BY IDOCK:   -3.51 KCAL/MOL
REMARK 924 INTRA-LIGAND FREE ENERGY PREDICTED BY IDOCK:   -0.26 KCAL/MOL
REMARK 927      BINDING AFFINITY PREDICTED BY RF-SCORE:    0.00 PKD
ROOT
HETATM    1 CA   UNL     1     -12.493  15.459  68.351  1.00  0.00    -0.485 Ca 
HETATM    2  O   UNL     2     -12.763  13.882  66.923  1.00  0.00    -0.416 OA 
HETATM    3  C   UNL     2     -11.726  12.902  67.240  1.00  0.00    -0.373 C  
HETATM    4  H   UNL     2     -13.612  13.612  67.253  1.00  0.00     0.000 HD 
ENDROOT
BRANCH   3   5
HETATM    5  C   UNL     2     -10.345  13.340  66.703  1.00  0.00    -0.274 C  
BRANCH   5   6
HETATM    6  C   UNL     2      -9.499  12.206  66.139  1.00  0.00    -0.224 C  
HETATM    7  H   UNL     2      -9.710  10.248  65.772  1.00  0.00     0.000 HD 
HETATM    8  O   UNL     2     -10.238  10.955  66.123  1.00  0.00    -0.235 OA 
ENDBRANCH   5   6
BRANCH   5   9
HETATM    9  O   UNL     2     -10.486  14.284  65.666  1.00  0.00    -0.294 OA 
HETATM   10  O   UNL     2      -8.604  14.972  66.691  1.00  0.00    -0.258 OA 
HETATM   11  P   UNL     2      -9.672  15.790  65.919  1.00  0.00    -0.323 P  
HETATM   12  O   UNL     2     -10.999  16.168  66.622  1.00  0.00    -0.211 OA 
HETATM   13  O   UNL     2      -8.943  17.137  66.145  1.00  0.00    -0.415 OA 
ENDBRANCH   5   9
ENDBRANCH   3   5
TORSDOF 3
ENDMDL
MODEL      114
REMARK 921   NORMALIZED FREE ENERGY PREDICTED BY IDOCK:   -2.77 KCAL/MOL
REMARK 922        TOTAL FREE ENERGY PREDICTED BY IDOCK:   -3.71 KCAL/MOL
REMARK 923 INTER-LIGAND FREE ENERGY PREDICTED BY IDOCK:   -3.46 KCAL/MOL
REMARK 924 INTRA-LIGAND FREE ENERGY PREDICTED BY IDOCK:   -0.26 KCAL/MOL
REMARK 927      BINDING AFFINITY PREDICTED BY RF-SCORE:    0.00 PKD
ROOT
HETATM    1 CA   UNL     1      -7.053  17.275  68.584  1.00  0.00    -0.162 Ca 
HETATM    2  O   UNL     2      -8.142  15.478  68.149  1.00  0.00    -0.129 OA 
HETATM    3  C   UNL     2      -8.304  15.476  66.696  1.00  0.00    -0.251 C  
HETATM    4  H   UNL     2      -7.449  14.890  68.425  1.00  0.00     0.000 HD 
ENDROOT
BRANCH   3   5
HETATM    5  C   UNL     2      -9.431  16.433  66.247  1.00  0.00    -0.317 C  
BRANCH   5   6
HETATM    6  C   UNL     2     -10.420  15.823  65.263  1.00  0.00    -0.401 C  
HETATM    7  H   UNL     2     -11.915  14.490  65.306  1.00  0.00     0.000 HD 
HETATM    8  O   UNL     2     -11.298  14.870  65.920  1.00  0.00    -0.340 OA 
ENDBRANCH   5   6
BRANCH   5   9
HETATM    9  O   UNL     2     -10.188  16.871  67.352  1.00  0.00    -0.283 OA 
HETATM   10  O   UNL     2     -10.212  18.675  66.005  1.00  0.00    -0.464 OA 
HETATM   11  P   UNL     2     -10.282  18.587  67.552  1.00  0.00    -0.424 P  
HETATM   12  O   UNL     2      -8.980  18.369  68.364  1.00  0.00    -0.303 OA 
HETATM   13  O   UNL     2     -10.365  20.122  67.731  1.00  0.00    -0.382 OA 
ENDBRANCH   5   9
ENDBRANCH   3   5
TORSDOF 3
ENDMDL
MODEL      115
REMARK 921   NORMALIZED FREE ENERGY PREDICTED BY IDOCK:   -2.76 KCAL/MOL
REMARK 922        TOTAL FREE ENERGY PREDICTED BY IDOCK:   -3.71 KCAL/MOL
REMARK 923 INTER-LIGAND FREE ENERGY PREDICTED BY IDOCK:   -3.41 KCAL/MOL
REMARK 924 INTRA-LIGAND FREE ENERGY PREDICTED BY IDOCK:   -0.30 KCAL/MOL
REMARK 927      BINDING AFFINITY PREDICTED BY RF-SCORE:    0.00 PKD
ROOT
HETATM    1 CA   UNL     1     -10.671   4.786  67.615  1.00  0.00    -0.154 Ca 
HETATM    2  O   UNL     2     -11.445   6.760  67.941  1.00  0.00    -0.559 OA 
HETATM    3  C   UNL     2     -10.632   7.311  69.023  1.00  0.00    -0.201 C  
HETATM    4  H   UNL     2     -11.176   7.098  67.095  1.00  0.00     0.000 HD 
ENDROOT
BRANCH   3   5
HETATM    5  C   UNL     2     -11.068   6.763  70.400  1.00  0.00    -0.308 C  
BRANCH   5   6
HETATM    6  C   UNL     2     -10.286   5.543  70.870  1.00  0.00    -0.242 C  
HETATM    7  H   UNL     2      -9.709   3.779  70.116  1.00  0.00     0.000 HD 
HETATM    8  O   UNL     2     -10.196   4.540  69.823  1.00  0.00    -0.201 OA 
ENDBRANCH   5   6
BRANCH   5   9
HETATM    9  O   UNL     2     -10.915   7.743  71.402  1.00  0.00    -0.232 OA 
HETATM   10  O   UNL     2     -13.066   7.128  71.653  1.00  0.00    -0.372 OA 
HETATM   11  P   UNL     2     -12.380   8.491  71.937  1.00  0.00    -0.402 P  
HETATM   12  O   UNL     2     -12.089   9.458  70.763  1.00  0.00    -0.276 OA 
HETATM   13  O   UNL     2     -13.692   9.159  72.416  1.00  0.00    -0.464 OA 
ENDBRANCH   5   9
ENDBRANCH   3   5
TORSDOF 3
ENDMDL
MODEL      116
REMARK 921   NORMALIZED FREE ENERGY PREDICTED BY IDOCK:   -2.76 KCAL/MOL
REMARK 922        TOTAL FREE ENERGY PREDICTED BY IDOCK:   -3.70 KCAL/MOL
REMARK 923 INTER-LIGAND FREE ENERGY PREDICTED BY IDOCK:   -3.41 KCAL/MOL
REMARK 924 INTRA-LIGAND FREE ENERGY PREDICTED BY IDOCK:   -0.29 KCAL/MOL
REMARK 927      BINDING AFFINITY PREDICTED BY RF-SCORE:    0.00 PKD
ROOT
HETATM    1 CA   UNL     1      -7.782  11.101  68.641  1.00  0.00    -0.085 Ca 
HETATM    2  O   UNL     2      -9.232   9.869  67.650  1.00  0.00    -0.133 OA 
HETATM    3  C   UNL     2      -9.549  10.577  66.412  1.00  0.00    -0.177 C  
HETATM    4  H   UNL     2      -8.637   9.144  67.497  1.00  0.00     0.000 HD 
ENDROOT
BRANCH   3   5
HETATM    5  C   UNL     2     -10.517  11.755  66.660  1.00  0.00    -0.224 C  
BRANCH   5   6
HETATM    6  C   UNL     2     -10.409  12.378  68.046  1.00  0.00    -0.216 C  
HETATM    7  H   UNL     2      -8.997  13.250  69.168  1.00  0.00     0.000 HD 
HETATM    8  O   UNL     2      -9.064  12.862  68.304  1.00  0.00    -0.199 OA 
ENDBRANCH   5   6
BRANCH   5   9
HETATM    9  O   UNL     2     -10.288  12.796  65.737  1.00  0.00    -0.271 OA 
HETATM   10  O   UNL     2     -12.510  12.479  65.566  1.00  0.00    -0.646 OA 
HETATM   11  P   UNL     2     -11.491  12.972  64.506  1.00  0.00    -0.398 P  
HETATM   12  O   UNL     2     -10.604  11.941  63.763  1.00  0.00    -0.338 OA 
HETATM   13  O   UNL     2     -12.567  13.129  63.404  1.00  0.00    -0.722 OA 
ENDBRANCH   5   9
ENDBRANCH   3   5
TORSDOF 3
ENDMDL
MODEL      117
REMARK 921   NORMALIZED FREE ENERGY PREDICTED BY IDOCK:   -2.75 KCAL/MOL
REMARK 922        TOTAL FREE ENERGY PREDICTED BY IDOCK:   -3.69 KCAL/MOL
REMARK 923 INTER-LIGAND FREE ENERGY PREDICTED BY IDOCK:   -3.46 KCAL/MOL
REMARK 924 INTRA-LIGAND FREE ENERGY PREDICTED BY IDOCK:   -0.23 KCAL/MOL
REMARK 927      BINDING AFFINITY PREDICTED BY RF-SCORE:    0.00 PKD
ROOT
HETATM    1 CA   UNL     1      -7.080  20.697  64.523  1.00  0.00    -0.300 Ca 
HETATM    2  O   UNL     2      -8.787  20.288  65.756  1.00  0.00    -0.539 OA 
HETATM    3  C   UNL     2      -8.263  20.216  67.118  1.00  0.00    -0.332 C  
HETATM    4  H   UNL     2      -9.214  21.120  65.588  1.00  0.00     0.000 HD 
ENDROOT
BRANCH   3   5
HETATM    5  C   UNL     2      -7.569  18.864  67.391  1.00  0.00    -0.230 C  
BRANCH   5   6
HETATM    6  C   UNL     2      -7.531  17.921  66.196  1.00  0.00    -0.280 C  
HETATM    7  H   UNL     2      -6.856  17.953  64.310  1.00  0.00     0.000 HD 
HETATM    8  O   UNL     2      -6.879  18.541  65.055  1.00  0.00    -0.498 OA 
ENDBRANCH   5   6
BRANCH   5   9
HETATM    9  O   UNL     2      -6.229  19.058  67.786  1.00  0.00    -0.205 OA 
HETATM   10  O   UNL     2      -6.920  17.446  69.198  1.00  0.00    -0.237 OA 
HETATM   11  P   UNL     2      -5.852  18.553  69.398  1.00  0.00    -0.259 P  
HETATM   12  O   UNL     2      -6.301  19.993  69.748  1.00  0.00    -0.337 OA 
HETATM   13  O   UNL     2      -5.514  18.101  70.839  1.00  0.00    -0.246 OA 
ENDBRANCH   5   9
ENDBRANCH   3   5
TORSDOF 3
ENDMDL
MODEL      118
REMARK 921   NORMALIZED FREE ENERGY PREDICTED BY IDOCK:   -2.74 KCAL/MOL
REMARK 922        TOTAL FREE ENERGY PREDICTED BY IDOCK:   -3.68 KCAL/MOL
REMARK 923 INTER-LIGAND FREE ENERGY PREDICTED BY IDOCK:   -3.53 KCAL/MOL
REMARK 924 INTRA-LIGAND FREE ENERGY PREDICTED BY IDOCK:   -0.15 KCAL/MOL
REMARK 927      BINDING AFFINITY PREDICTED BY RF-SCORE:    0.00 PKD
ROOT
HETATM    1 CA   UNL     1     -13.678   6.669  72.373  1.00  0.00    -0.462 Ca 
HETATM    2  O   UNL     2     -12.721   8.465  73.052  1.00  0.00    -0.697 OA 
HETATM    3  C   UNL     2     -11.559   8.628  72.181  1.00  0.00    -0.370 C  
HETATM    4  H   UNL     2     -13.433   9.041  72.799  1.00  0.00     0.000 HD 
ENDROOT
BRANCH   3   5
HETATM    5  C   UNL     2     -10.402   7.692  72.592  1.00  0.00    -0.275 C  
BRANCH   5   6
HETATM    6  C   UNL     2      -9.130   8.412  73.020  1.00  0.00    -0.188 C  
HETATM    7  H   UNL     2      -7.636   9.418  72.144  1.00  0.00     0.000 HD 
HETATM    8  O   UNL     2      -8.429   8.970  71.877  1.00  0.00    -0.363 OA 
ENDBRANCH   5   6
BRANCH   5   9
HETATM    9  O   UNL     2     -10.780   6.874  73.676  1.00  0.00    -0.343 OA 
HETATM   10  O   UNL     2      -9.375   5.539  72.530  1.00  0.00    -0.143 OA 
HETATM   11  P   UNL     2     -10.591   5.173  73.421  1.00  0.00    -0.307 P  
HETATM   12  O   UNL     2     -12.023   5.296  72.845  1.00  0.00    -0.227 OA 
HETATM   13  O   UNL     2     -10.422   3.651  73.192  1.00  0.00    -0.159 OA 
ENDBRANCH   5   9
ENDBRANCH   3   5
TORSDOF 3
ENDMDL
MODEL      119
REMARK 921   NORMALIZED FREE ENERGY PREDICTED BY IDOCK:   -2.73 KCAL/MOL
REMARK 922        TOTAL FREE ENERGY PREDICTED BY IDOCK:   -3.67 KCAL/MOL
REMARK 923 INTER-LIGAND FREE ENERGY PREDICTED BY IDOCK:   -3.43 KCAL/MOL
REMARK 924 INTRA-LIGAND FREE ENERGY PREDICTED BY IDOCK:   -0.24 KCAL/MOL
REMARK 927      BINDING AFFINITY PREDICTED BY RF-SCORE:    0.00 PKD
ROOT
HETATM    1 CA   UNL     1      -8.078  12.111  65.672  1.00  0.00    -0.366 Ca 
HETATM    2  O   UNL     2      -9.890  13.236  65.434  1.00  0.00    -0.464 OA 
HETATM    3  C   UNL     2      -9.870  14.218  66.515  1.00  0.00    -0.288 C  
HETATM    4  H   UNL     2      -9.640  13.624  64.603  1.00  0.00     0.000 HD 
ENDROOT
BRANCH   3   5
HETATM    5  C   UNL     2     -10.276  13.588  67.865  1.00  0.00    -0.247 C  
BRANCH   5   6
HETATM    6  C   UNL     2      -9.506  12.325  68.229  1.00  0.00    -0.209 C  
HETATM    7  H   UNL     2      -7.617  11.667  68.131  1.00  0.00     0.000 HD 
HETATM    8  O   UNL     2      -8.096  12.455  67.904  1.00  0.00    -0.138 OA 
ENDBRANCH   5   6
BRANCH   5   9
HETATM    9  O   UNL     2     -10.073  14.496  68.925  1.00  0.00    -0.234 OA 
HETATM   10  O   UNL     2     -12.085  13.616  69.422  1.00  0.00    -0.326 OA 
HETATM   11  P   UNL     2     -11.509  15.022  69.734  1.00  0.00    -0.339 P  
HETATM   12  O   UNL     2     -11.503  16.107  68.629  1.00  0.00    -0.373 OA 
HETATM   13  O   UNL     2     -12.794  15.493  70.458  1.00  0.00    -0.443 OA 
ENDBRANCH   5   9
ENDBRANCH   3   5
TORSDOF 3
ENDMDL
MODEL      120
REMARK 921   NORMALIZED FREE ENERGY PREDICTED BY IDOCK:   -2.73 KCAL/MOL
REMARK 922        TOTAL FREE ENERGY PREDICTED BY IDOCK:   -3.67 KCAL/MOL
REMARK 923 INTER-LIGAND FREE ENERGY PREDICTED BY IDOCK:   -3.53 KCAL/MOL
REMARK 924 INTRA-LIGAND FREE ENERGY PREDICTED BY IDOCK:   -0.14 KCAL/MOL
REMARK 927      BINDING AFFINITY PREDICTED BY RF-SCORE:    0.00 PKD
ROOT
HETATM    1 CA   UNL     1      -9.414  12.752  64.539  1.00  0.00    -0.430 Ca 
HETATM    2  O   UNL     2     -11.312  11.839  64.950  1.00  0.00    -0.301 OA 
HETATM    3  C   UNL     2     -12.079  12.863  65.656  1.00  0.00    -0.458 C  
HETATM    4  H   UNL     2     -11.573  11.771  64.039  1.00  0.00     0.000 HD 
ENDROOT
BRANCH   3   5
HETATM    5  C   UNL     2     -11.656  12.973  67.137  1.00  0.00    -0.358 C  
BRANCH   5   6
HETATM    6  C   UNL     2     -12.031  14.290  67.804  1.00  0.00    -0.349 C  
HETATM    7  H   UNL     2     -11.170  16.063  68.161  1.00  0.00     0.000 HD 
HETATM    8  O   UNL     2     -10.936  15.243  67.745  1.00  0.00    -0.293 OA 
ENDBRANCH   5   6
BRANCH   5   9
HETATM    9  O   UNL     2     -12.251  11.954  67.907  1.00  0.00    -0.508 OA 
HETATM   10  O   UNL     2     -10.150  12.002  68.714  1.00  0.00    -0.190 OA 
HETATM   11  P   UNL     2     -11.151  10.822  68.615  1.00  0.00    -0.301 P  
HETATM   12  O   UNL     2     -11.336  10.089  67.263  1.00  0.00    -0.159 OA 
HETATM   13  O   UNL     2     -10.166   9.808  69.248  1.00  0.00    -0.182 OA 
ENDBRANCH   5   9
ENDBRANCH   3   5
TORSDOF 3
ENDMDL
MODEL      121
REMARK 921   NORMALIZED FREE ENERGY PREDICTED BY IDOCK:   -2.70 KCAL/MOL
REMARK 922        TOTAL FREE ENERGY PREDICTED BY IDOCK:   -3.63 KCAL/MOL
REMARK 923 INTER-LIGAND FREE ENERGY PREDICTED BY IDOCK:   -3.38 KCAL/MOL
REMARK 924 INTRA-LIGAND FREE ENERGY PREDICTED BY IDOCK:   -0.25 KCAL/MOL
REMARK 927      BINDING AFFINITY PREDICTED BY RF-SCORE:    0.00 PKD
ROOT
HETATM    1 CA   UNL     1      -8.812  16.838  69.686  1.00  0.00    -0.210 Ca 
HETATM    2  O   UNL     2     -10.662  17.152  68.647  1.00  0.00    -0.343 OA 
HETATM    3  C   UNL     2     -10.314  17.102  67.229  1.00  0.00    -0.320 C  
HETATM    4  H   UNL     2     -11.062  16.341  68.939  1.00  0.00     0.000 HD 
ENDROOT
BRANCH   3   5
HETATM    5  C   UNL     2      -9.665  18.420  66.754  1.00  0.00    -0.326 C  
BRANCH   5   6
HETATM    6  C   UNL     2     -10.608  19.616  66.731  1.00  0.00    -0.486 C  
HETATM    7  H   UNL     2     -10.528  21.569  67.171  1.00  0.00     0.000 HD 
HETATM    8  O   UNL     2      -9.940  20.824  67.185  1.00  0.00    -0.422 OA 
ENDBRANCH   5   6
BRANCH   5   9
HETATM    9  O   UNL     2      -8.588  18.780  67.591  1.00  0.00    -0.268 OA 
HETATM   10  O   UNL     2      -7.587  18.552  65.588  1.00  0.00    -0.511 OA 
HETATM   11  P   UNL     2      -7.020  18.330  67.015  1.00  0.00    -0.200 P  
HETATM   12  O   UNL     2      -7.335  17.012  67.765  1.00  0.00    -0.155 OA 
HETATM   13  O   UNL     2      -5.617  17.928  66.499  1.00  0.00    -0.137 OA 
ENDBRANCH   5   9
ENDBRANCH   3   5
TORSDOF 3
ENDMDL
MODEL      122
REMARK 921   NORMALIZED FREE ENERGY PREDICTED BY IDOCK:   -2.66 KCAL/MOL
REMARK 922        TOTAL FREE ENERGY PREDICTED BY IDOCK:   -3.59 KCAL/MOL
REMARK 923 INTER-LIGAND FREE ENERGY PREDICTED BY IDOCK:   -3.31 KCAL/MOL
REMARK 924 INTRA-LIGAND FREE ENERGY PREDICTED BY IDOCK:   -0.28 KCAL/MOL
REMARK 927      BINDING AFFINITY PREDICTED BY RF-SCORE:    0.00 PKD
ROOT
HETATM    1 CA   UNL     1      -8.726  15.919  66.423  1.00  0.00    -0.163 Ca 
HETATM    2  O   UNL     2      -6.816  16.883  66.579  1.00  0.00    -0.222 OA 
HETATM    3  C   UNL     2      -6.707  17.284  67.980  1.00  0.00    -0.173 C  
HETATM    4  H   UNL     2      -6.310  16.099  66.399  1.00  0.00     0.000 HD 
ENDROOT
BRANCH   3   5
HETATM    5  C   UNL     2      -7.529  18.559  68.273  1.00  0.00    -0.281 C  
BRANCH   5   6
HETATM    6  C   UNL     2      -6.885  19.508  69.275  1.00  0.00    -0.346 C  
HETATM    7  H   UNL     2      -5.037  19.978  69.887  1.00  0.00     0.000 HD 
HETATM    8  O   UNL     2      -5.438  19.386  69.262  1.00  0.00    -0.197 OA 
ENDBRANCH   5   6
BRANCH   5   9
HETATM    9  O   UNL     2      -7.735  19.305  67.094  1.00  0.00    -0.241 OA 
HETATM   10  O   UNL     2      -9.684  19.581  68.187  1.00  0.00    -0.344 OA 
HETATM   11  P   UNL     2      -9.390  19.568  66.664  1.00  0.00    -0.400 P  
HETATM   12  O   UNL     2      -9.214  18.215  65.932  1.00  0.00    -0.514 OA 
HETATM   13  O   UNL     2     -10.872  19.803  66.280  1.00  0.00    -0.429 OA 
ENDBRANCH   5   9
ENDBRANCH   3   5
TORSDOF 3
ENDMDL
MODEL      123
REMARK 921   NORMALIZED FREE ENERGY PREDICTED BY IDOCK:   -2.66 KCAL/MOL
REMARK 922        TOTAL FREE ENERGY PREDICTED BY IDOCK:   -3.59 KCAL/MOL
REMARK 923 INTER-LIGAND FREE ENERGY PREDICTED BY IDOCK:   -3.26 KCAL/MOL
REMARK 924 INTRA-LIGAND FREE ENERGY PREDICTED BY IDOCK:   -0.32 KCAL/MOL
REMARK 927      BINDING AFFINITY PREDICTED BY RF-SCORE:    0.00 PKD
ROOT
HETATM    1 CA   UNL     1     -11.669   8.832  69.422  1.00  0.00    -0.443 Ca 
HETATM    2  O   UNL     2     -12.357  10.716  68.662  1.00  0.00    -0.820 OA 
HETATM    3  C   UNL     2     -11.419  11.060  67.595  1.00  0.00    -0.224 C  
HETATM    4  H   UNL     2     -13.173  10.375  68.315  1.00  0.00     0.000 HD 
ENDROOT
BRANCH   3   5
HETATM    5  C   UNL     2     -10.093  11.615  68.159  1.00  0.00    -0.196 C  
BRANCH   5   6
HETATM    6  C   UNL     2      -9.215  10.576  68.845  1.00  0.00    -0.183 C  
HETATM    7  H   UNL     2      -9.285   9.440  70.493  1.00  0.00     0.000 HD 
HETATM    8  O   UNL     2      -9.833  10.087  70.066  1.00  0.00    -0.241 OA 
ENDBRANCH   5   6
BRANCH   5   9
HETATM    9  O   UNL     2      -9.310  12.182  67.133  1.00  0.00    -0.184 OA 
HETATM   10  O   UNL     2      -9.563  13.908  68.557  1.00  0.00    -0.213 OA 
HETATM   11  P   UNL     2      -9.378  13.907  67.017  1.00  0.00    -0.263 P  
HETATM   12  O   UNL     2     -10.591  13.605  66.103  1.00  0.00    -0.284 OA 
HETATM   13  O   UNL     2      -9.440  15.451  66.913  1.00  0.00    -0.215 OA 
ENDBRANCH   5   9
ENDBRANCH   3   5
TORSDOF 3
ENDMDL
MODEL      124
REMARK 921   NORMALIZED FREE ENERGY PREDICTED BY IDOCK:   -2.66 KCAL/MOL
REMARK 922        TOTAL FREE ENERGY PREDICTED BY IDOCK:   -3.58 KCAL/MOL
REMARK 923 INTER-LIGAND FREE ENERGY PREDICTED BY IDOCK:   -3.44 KCAL/MOL
REMARK 924 INTRA-LIGAND FREE ENERGY PREDICTED BY IDOCK:   -0.15 KCAL/MOL
REMARK 927      BINDING AFFINITY PREDICTED BY RF-SCORE:    0.00 PKD
ROOT
HETATM    1 CA   UNL     1     -10.820  18.446  65.849  1.00  0.00    -0.359 Ca 
HETATM    2  O   UNL     2     -10.329  16.545  64.984  1.00  0.00    -0.622 OA 
HETATM    3  C   UNL     2     -10.759  15.557  65.971  1.00  0.00    -0.326 C  
HETATM    4  H   UNL     2     -10.949  16.616  64.266  1.00  0.00     0.000 HD 
ENDROOT
BRANCH   3   5
HETATM    5  C   UNL     2      -9.752  15.442  67.137  1.00  0.00    -0.216 C  
BRANCH   5   6
HETATM    6  C   UNL     2      -8.299  15.672  66.741  1.00  0.00    -0.278 C  
HETATM    7  H   UNL     2      -7.127  17.224  66.263  1.00  0.00     0.000 HD 
HETATM    8  O   UNL     2      -8.032  17.081  66.509  1.00  0.00    -0.237 OA 
ENDBRANCH   5   6
BRANCH   5   9
HETATM    9  O   UNL     2     -10.042  16.382  68.146  1.00  0.00    -0.239 OA 
HETATM   10  O   UNL     2      -9.796  14.476  69.319  1.00  0.00    -0.140 OA 
HETATM   11  P   UNL     2     -10.673  15.720  69.615  1.00  0.00    -0.347 P  
HETATM   12  O   UNL     2     -12.028  15.891  68.884  1.00  0.00    -0.370 OA 
HETATM   13  O   UNL     2     -11.238  15.128  70.930  1.00  0.00    -0.303 OA 
ENDBRANCH   5   9
ENDBRANCH   3   5
TORSDOF 3
ENDMDL
MODEL      125
REMARK 921   NORMALIZED FREE ENERGY PREDICTED BY IDOCK:   -2.65 KCAL/MOL
REMARK 922        TOTAL FREE ENERGY PREDICTED BY IDOCK:   -3.57 KCAL/MOL
REMARK 923 INTER-LIGAND FREE ENERGY PREDICTED BY IDOCK:   -3.35 KCAL/MOL
REMARK 924 INTRA-LIGAND FREE ENERGY PREDICTED BY IDOCK:   -0.22 KCAL/MOL
REMARK 927      BINDING AFFINITY PREDICTED BY RF-SCORE:    0.00 PKD
ROOT
HETATM    1 CA   UNL     1     -11.410  16.171  69.255  1.00  0.00    -0.240 Ca 
HETATM    2  O   UNL     2     -12.611  14.394  69.178  1.00  0.00    -0.548 OA 
HETATM    3  C   UNL     2     -11.727  13.362  68.641  1.00  0.00    -0.349 C  
HETATM    4  H   UNL     2     -12.708  14.317  70.120  1.00  0.00     0.000 HD 
ENDROOT
BRANCH   3   5
HETATM    5  C   UNL     2     -11.569  13.488  67.109  1.00  0.00    -0.357 C  
BRANCH   5   6
HETATM    6  C   UNL     2     -11.595  14.919  66.587  1.00  0.00    -0.261 C  
HETATM    7  H   UNL     2     -10.601  16.627  66.910  1.00  0.00     0.000 HD 
HETATM    8  O   UNL     2     -10.584  15.735  67.236  1.00  0.00    -0.303 OA 
ENDBRANCH   5   6
BRANCH   5   9
HETATM    9  O   UNL     2     -10.345  12.932  66.684  1.00  0.00    -0.246 OA 
HETATM   10  O   UNL     2     -11.758  12.297  65.050  1.00  0.00    -0.352 OA 
HETATM   11  P   UNL     2     -10.478  11.602  65.584  1.00  0.00    -0.285 P  
HETATM   12  O   UNL     2     -10.548  10.777  66.894  1.00  0.00    -0.241 OA 
HETATM   13  O   UNL     2     -10.598  10.413  64.601  1.00  0.00    -0.173 OA 
ENDBRANCH   5   9
ENDBRANCH   3   5
TORSDOF 3
ENDMDL
MODEL      126
REMARK 921   NORMALIZED FREE ENERGY PREDICTED BY IDOCK:   -2.64 KCAL/MOL
REMARK 922        TOTAL FREE ENERGY PREDICTED BY IDOCK:   -3.56 KCAL/MOL
REMARK 923 INTER-LIGAND FREE ENERGY PREDICTED BY IDOCK:   -3.14 KCAL/MOL
REMARK 924 INTRA-LIGAND FREE ENERGY PREDICTED BY IDOCK:   -0.43 KCAL/MOL
REMARK 927      BINDING AFFINITY PREDICTED BY RF-SCORE:    0.00 PKD
ROOT
HETATM    1 CA   UNL     1     -13.438   8.945  70.472  1.00  0.00    -0.519 Ca 
HETATM    2  O   UNL     2     -13.123   7.736  72.216  1.00  0.00    -0.501 OA 
HETATM    3  C   UNL     2     -11.699   7.867  72.515  1.00  0.00    -0.367 C  
HETATM    4  H   UNL     2     -13.654   8.276  72.790  1.00  0.00     0.000 HD 
ENDROOT
BRANCH   3   5
HETATM    5  C   UNL     2     -10.837   6.989  71.582  1.00  0.00    -0.223 C  
BRANCH   5   6
HETATM    6  C   UNL     2     -10.898   5.497  71.884  1.00  0.00    -0.223 C  
HETATM    7  H   UNL     2     -11.551   4.316  73.365  1.00  0.00     0.000 HD 
HETATM    8  O   UNL     2     -11.513   5.246  73.176  1.00  0.00    -0.310 OA 
ENDBRANCH   5   6
BRANCH   5   9
HETATM    9  O   UNL     2     -11.239   7.139  70.239  1.00  0.00    -0.269 OA 
HETATM   10  O   UNL     2      -9.031   7.565  70.132  1.00  0.00    -0.146 OA 
HETATM   11  P   UNL     2     -10.192   8.103  69.255  1.00  0.00    -0.213 P  
HETATM   12  O   UNL     2     -11.077   9.259  69.787  1.00  0.00    -0.227 OA 
HETATM   13  O   UNL     2      -9.255   8.967  68.376  1.00  0.00    -0.140 OA 
ENDBRANCH   5   9
ENDBRANCH   3   5
TORSDOF 3
ENDMDL
MODEL      127
REMARK 921   NORMALIZED FREE ENERGY PREDICTED BY IDOCK:   -2.63 KCAL/MOL
REMARK 922        TOTAL FREE ENERGY PREDICTED BY IDOCK:   -3.55 KCAL/MOL
REMARK 923 INTER-LIGAND FREE ENERGY PREDICTED BY IDOCK:   -3.37 KCAL/MOL
REMARK 924 INTRA-LIGAND FREE ENERGY PREDICTED BY IDOCK:   -0.19 KCAL/MOL
REMARK 927      BINDING AFFINITY PREDICTED BY RF-SCORE:    0.00 PKD
ROOT
HETATM    1 CA   UNL     1     -11.417  16.944  68.244  1.00  0.00    -0.339 Ca 
HETATM    2  O   UNL     2     -10.328  18.525  69.203  1.00  0.00    -0.483 OA 
HETATM    3  C   UNL     2      -9.973  19.448  68.127  1.00  0.00    -0.413 C  
HETATM    4  H   UNL     2     -11.068  18.843  69.708  1.00  0.00     0.000 HD 
ENDROOT
BRANCH   3   5
HETATM    5  C   UNL     2      -8.771  18.931  67.307  1.00  0.00    -0.278 C  
BRANCH   5   6
HETATM    6  C   UNL     2      -7.821  20.020  66.825  1.00  0.00    -0.309 C  
HETATM    7  H   UNL     2      -7.089  20.675  65.080  1.00  0.00     0.000 HD 
HETATM    8  O   UNL     2      -7.682  19.996  65.380  1.00  0.00    -0.317 OA 
ENDBRANCH   5   6
BRANCH   5   9
HETATM    9  O   UNL     2      -7.994  18.033  68.067  1.00  0.00    -0.241 OA 
HETATM   10  O   UNL     2      -8.006  17.061  66.036  1.00  0.00    -0.435 OA 
HETATM   11  P   UNL     2      -7.905  16.421  67.445  1.00  0.00    -0.183 P  
HETATM   12  O   UNL     2      -9.189  16.230  68.291  1.00  0.00    -0.190 OA 
HETATM   13  O   UNL     2      -7.826  14.978  66.889  1.00  0.00    -0.179 OA 
ENDBRANCH   5   9
ENDBRANCH   3   5
TORSDOF 3
ENDMDL
MODEL      128
REMARK 921   NORMALIZED FREE ENERGY PREDICTED BY IDOCK:   -2.63 KCAL/MOL
REMARK 922        TOTAL FREE ENERGY PREDICTED BY IDOCK:   -3.55 KCAL/MOL
REMARK 923 INTER-LIGAND FREE ENERGY PREDICTED BY IDOCK:   -3.50 KCAL/MOL
REMARK 924 INTRA-LIGAND FREE ENERGY PREDICTED BY IDOCK:   -0.05 KCAL/MOL
REMARK 927      BINDING AFFINITY PREDICTED BY RF-SCORE:    0.00 PKD
ROOT
HETATM    1 CA   UNL     1     -10.775  19.176  70.499  1.00  0.00    -0.518 Ca 
HETATM    2  O   UNL     2     -10.499  19.808  68.467  1.00  0.00    -0.499 OA 
HETATM    3  C   UNL     2     -10.813  18.632  67.659  1.00  0.00    -0.294 C  
HETATM    4  H   UNL     2     -11.216  20.431  68.474  1.00  0.00     0.000 HD 
ENDROOT
BRANCH   3   5
HETATM    5  C   UNL     2      -9.647  17.620  67.647  1.00  0.00    -0.268 C  
BRANCH   5   6
HETATM    6  C   UNL     2      -9.831  16.457  66.681  1.00  0.00    -0.261 C  
HETATM    7  H   UNL     2     -10.984  14.825  66.536  1.00  0.00     0.000 HD 
HETATM    8  O   UNL     2     -10.869  15.550  67.139  1.00  0.00    -0.316 OA 
ENDBRANCH   5   6
BRANCH   5   9
HETATM    9  O   UNL     2      -8.439  18.249  67.286  1.00  0.00    -0.244 OA 
HETATM   10  O   UNL     2      -7.764  16.766  68.840  1.00  0.00    -0.232 OA 
HETATM   11  P   UNL     2      -7.171  18.148  68.460  1.00  0.00    -0.278 P  
HETATM   12  O   UNL     2      -7.834  19.439  69.003  1.00  0.00    -0.357 OA 
HETATM   13  O   UNL     2      -6.037  18.058  69.510  1.00  0.00    -0.233 OA 
ENDBRANCH   5   9
ENDBRANCH   3   5
TORSDOF 3
ENDMDL
MODEL      129
REMARK 921   NORMALIZED FREE ENERGY PREDICTED BY IDOCK:   -2.62 KCAL/MOL
REMARK 922        TOTAL FREE ENERGY PREDICTED BY IDOCK:   -3.54 KCAL/MOL
REMARK 923 INTER-LIGAND FREE ENERGY PREDICTED BY IDOCK:   -3.26 KCAL/MOL
REMARK 924 INTRA-LIGAND FREE ENERGY PREDICTED BY IDOCK:   -0.28 KCAL/MOL
REMARK 927      BINDING AFFINITY PREDICTED BY RF-SCORE:    0.00 PKD
ROOT
HETATM    1 CA   UNL     1     -11.084  10.435  64.168  1.00  0.00    -0.400 Ca 
HETATM    2  O   UNL     2      -9.333   9.974  65.318  1.00  0.00    -0.198 OA 
HETATM    3  C   UNL     2      -9.809   9.128  66.410  1.00  0.00    -0.280 C  
HETATM    4  H   UNL     2      -8.915   9.462  64.634  1.00  0.00     0.000 HD 
ENDROOT
BRANCH   3   5
HETATM    5  C   UNL     2     -10.487   9.960  67.521  1.00  0.00    -0.255 C  
BRANCH   5   6
HETATM    6  C   UNL     2     -10.222   9.459  68.935  1.00  0.00    -0.200 C  
HETATM    7  H   UNL     2     -10.621   7.824  70.021  1.00  0.00     0.000 HD 
HETATM    8  O   UNL     2     -10.785   8.136  69.139  1.00  0.00    -0.197 OA 
ENDBRANCH   5   6
BRANCH   5   9
HETATM    9  O   UNL     2     -10.047  11.299  67.484  1.00  0.00    -0.180 OA 
HETATM   10  O   UNL     2     -12.215  11.518  68.051  1.00  0.00    -0.582 OA 
HETATM   11  P   UNL     2     -11.291  12.481  67.261  1.00  0.00    -0.356 P  
HETATM   12  O   UNL     2     -11.010  12.211  65.761  1.00  0.00    -0.277 OA 
HETATM   13  O   UNL     2     -12.403  13.539  67.060  1.00  0.00    -0.335 OA 
ENDBRANCH   5   9
ENDBRANCH   3   5
TORSDOF 3
ENDMDL
MODEL      130
REMARK 921   NORMALIZED FREE ENERGY PREDICTED BY IDOCK:   -2.62 KCAL/MOL
REMARK 922        TOTAL FREE ENERGY PREDICTED BY IDOCK:   -3.53 KCAL/MOL
REMARK 923 INTER-LIGAND FREE ENERGY PREDICTED BY IDOCK:   -3.35 KCAL/MOL
REMARK 924 INTRA-LIGAND FREE ENERGY PREDICTED BY IDOCK:   -0.19 KCAL/MOL
REMARK 927      BINDING AFFINITY PREDICTED BY RF-SCORE:    0.00 PKD
ROOT
HETATM    1 CA   UNL     1     -11.232   9.480  69.422  1.00  0.00    -0.223 Ca 
HETATM    2  O   UNL     2     -11.358  10.911  71.016  1.00  0.00    -0.248 OA 
HETATM    3  C   UNL     2     -12.392  11.855  70.597  1.00  0.00    -0.313 C  
HETATM    4  H   UNL     2     -11.687  10.293  71.659  1.00  0.00     0.000 HD 
ENDROOT
BRANCH   3   5
HETATM    5  C   UNL     2     -11.858  12.859  69.552  1.00  0.00    -0.320 C  
BRANCH   5   6
HETATM    6  C   UNL     2     -11.834  12.330  68.123  1.00  0.00    -0.311 C  
HETATM    7  H   UNL     2     -12.043  10.566  67.198  1.00  0.00     0.000 HD 
HETATM    8  O   UNL     2     -12.058  10.896  68.088  1.00  0.00    -0.563 OA 
ENDBRANCH   5   6
BRANCH   5   9
HETATM    9  O   UNL     2     -12.647  14.028  69.530  1.00  0.00    -0.222 OA 
HETATM   10  O   UNL     2     -10.585  14.844  69.917  1.00  0.00    -0.213 OA 
HETATM   11  P   UNL     2     -11.970  15.393  70.348  1.00  0.00    -0.414 P  
HETATM   12  O   UNL     2     -12.690  14.773  71.572  1.00  0.00    -0.297 OA 
HETATM   13  O   UNL     2     -11.364  16.615  71.081  1.00  0.00    -0.220 OA 
ENDBRANCH   5   9
ENDBRANCH   3   5
TORSDOF 3
ENDMDL
MODEL      131
REMARK 921   NORMALIZED FREE ENERGY PREDICTED BY IDOCK:   -2.62 KCAL/MOL
REMARK 922        TOTAL FREE ENERGY PREDICTED BY IDOCK:   -3.53 KCAL/MOL
REMARK 923 INTER-LIGAND FREE ENERGY PREDICTED BY IDOCK:   -3.56 KCAL/MOL
REMARK 924 INTRA-LIGAND FREE ENERGY PREDICTED BY IDOCK:    0.03 KCAL/MOL
REMARK 927      BINDING AFFINITY PREDICTED BY RF-SCORE:    0.00 PKD
ROOT
HETATM    1 CA   UNL     1     -11.013  16.989  67.121  1.00  0.00    -0.314 Ca 
HETATM    2  O   UNL     2      -9.668  15.356  67.472  1.00  0.00    -0.208 OA 
HETATM    3  C   UNL     2      -9.947  14.398  66.404  1.00  0.00    -0.294 C  
HETATM    4  H   UNL     2      -8.879  15.856  67.297  1.00  0.00     0.000 HD 
ENDROOT
BRANCH   3   5
HETATM    5  C   UNL     2     -11.229  13.585  66.689  1.00  0.00    -0.312 C  
BRANCH   5   6
HETATM    6  C   UNL     2     -12.503  14.195  66.119  1.00  0.00    -0.395 C  
HETATM    7  H   UNL     2     -13.854  13.744  64.710  1.00  0.00     0.000 HD 
HETATM    8  O   UNL     2     -13.060  13.364  65.065  1.00  0.00    -0.734 OA 
ENDBRANCH   5   6
BRANCH   5   9
HETATM    9  O   UNL     2     -11.131  12.288  66.144  1.00  0.00    -0.284 OA 
HETATM   10  O   UNL     2     -11.867  11.880  68.233  1.00  0.00    -0.377 OA 
HETATM   11  P   UNL     2     -10.986  11.008  67.300  1.00  0.00    -0.247 P  
HETATM   12  O   UNL     2      -9.474  11.320  67.167  1.00  0.00    -0.168 OA 
HETATM   13  O   UNL     2     -10.856   9.864  68.335  1.00  0.00    -0.232 OA 
ENDBRANCH   5   9
ENDBRANCH   3   5
TORSDOF 3
ENDMDL
MODEL      132
REMARK 921   NORMALIZED FREE ENERGY PREDICTED BY IDOCK:   -2.61 KCAL/MOL
REMARK 922        TOTAL FREE ENERGY PREDICTED BY IDOCK:   -3.53 KCAL/MOL
REMARK 923 INTER-LIGAND FREE ENERGY PREDICTED BY IDOCK:   -3.20 KCAL/MOL
REMARK 924 INTRA-LIGAND FREE ENERGY PREDICTED BY IDOCK:   -0.33 KCAL/MOL
REMARK 927      BINDING AFFINITY PREDICTED BY RF-SCORE:    0.00 PKD
ROOT
HETATM    1 CA   UNL     1      -8.735   5.888  70.447  1.00  0.00    -0.117 Ca 
HETATM    2  O   UNL     2     -10.717   5.412  69.777  1.00  0.00    -0.315 OA 
HETATM    3  C   UNL     2     -11.420   6.693  69.736  1.00  0.00    -0.328 C  
HETATM    4  H   UNL     2     -10.448   5.132  68.909  1.00  0.00     0.000 HD 
ENDROOT
BRANCH   3   5
HETATM    5  C   UNL     2     -11.857   7.148  71.146  1.00  0.00    -0.325 C  
BRANCH   5   6
HETATM    6  C   UNL     2     -11.650   6.106  72.238  1.00  0.00    -0.313 C  
HETATM    7  H   UNL     2     -10.108   5.231  73.170  1.00  0.00     0.000 HD 
HETATM    8  O   UNL     2     -10.237   5.880  72.490  1.00  0.00    -0.181 OA 
ENDBRANCH   5   6
BRANCH   5   9
HETATM    9  O   UNL     2     -11.140   8.293  71.548  1.00  0.00    -0.241 OA 
HETATM   10  O   UNL     2     -13.273   8.894  71.947  1.00  0.00    -0.341 OA 
HETATM   11  P   UNL     2     -12.048   9.766  71.567  1.00  0.00    -0.365 P  
HETATM   12  O   UNL     2     -11.592   9.840  70.088  1.00  0.00    -0.243 OA 
HETATM   13  O   UNL     2     -12.860  11.084  71.584  1.00  0.00    -0.430 OA 
ENDBRANCH   5   9
ENDBRANCH   3   5
TORSDOF 3
ENDMDL
MODEL      133
REMARK 921   NORMALIZED FREE ENERGY PREDICTED BY IDOCK:   -2.61 KCAL/MOL
REMARK 922        TOTAL FREE ENERGY PREDICTED BY IDOCK:   -3.53 KCAL/MOL
REMARK 923 INTER-LIGAND FREE ENERGY PREDICTED BY IDOCK:   -3.23 KCAL/MOL
REMARK 924 INTRA-LIGAND FREE ENERGY PREDICTED BY IDOCK:   -0.30 KCAL/MOL
REMARK 927      BINDING AFFINITY PREDICTED BY RF-SCORE:    0.00 PKD
ROOT
HETATM    1 CA   UNL     1     -11.879   7.061  67.330  1.00  0.00    -0.549 Ca 
HETATM    2  O   UNL     2     -11.137   9.036  67.716  1.00  0.00    -0.497 OA 
HETATM    3  C   UNL     2      -9.844   8.835  68.366  1.00  0.00    -0.171 C  
HETATM    4  H   UNL     2     -11.036   9.269  66.800  1.00  0.00     0.000 HD 
ENDROOT
BRANCH   3   5
HETATM    5  C   UNL     2     -10.007   8.456  69.855  1.00  0.00    -0.190 C  
BRANCH   5   6
HETATM    6  C   UNL     2     -10.303   9.633  70.776  1.00  0.00    -0.286 C  
HETATM    7  H   UNL     2     -11.651  10.106  72.180  1.00  0.00     0.000 HD 
HETATM    8  O   UNL     2     -11.466   9.372  71.606  1.00  0.00    -0.369 OA 
ENDBRANCH   5   6
BRANCH   5   9
HETATM    9  O   UNL     2     -11.065   7.541  70.027  1.00  0.00    -0.257 OA 
HETATM   10  O   UNL     2      -9.354   6.499  71.054  1.00  0.00    -0.160 OA 
HETATM   11  P   UNL     2     -10.588   5.905  70.326  1.00  0.00    -0.313 P  
HETATM   12  O   UNL     2     -10.594   5.823  68.779  1.00  0.00    -0.231 OA 
HETATM   13  O   UNL     2     -10.160   4.441  70.593  1.00  0.00    -0.205 OA 
ENDBRANCH   5   9
ENDBRANCH   3   5
TORSDOF 3
ENDMDL
MODEL      134
REMARK 921   NORMALIZED FREE ENERGY PREDICTED BY IDOCK:   -2.61 KCAL/MOL
REMARK 922        TOTAL FREE ENERGY PREDICTED BY IDOCK:   -3.52 KCAL/MOL
REMARK 923 INTER-LIGAND FREE ENERGY PREDICTED BY IDOCK:   -3.49 KCAL/MOL
REMARK 924 INTRA-LIGAND FREE ENERGY PREDICTED BY IDOCK:   -0.03 KCAL/MOL
REMARK 927      BINDING AFFINITY PREDICTED BY RF-SCORE:    0.00 PKD
ROOT
HETATM    1 CA   UNL     1      -9.643  14.820  70.562  1.00  0.00    -0.430 Ca 
HETATM    2  O   UNL     2     -10.209  15.704  68.691  1.00  0.00    -0.205 OA 
HETATM    3  C   UNL     2     -11.412  14.984  68.281  1.00  0.00    -0.332 C  
HETATM    4  H   UNL     2     -10.419  16.555  69.059  1.00  0.00     0.000 HD 
ENDROOT
BRANCH   3   5
HETATM    5  C   UNL     2     -11.073  13.601  67.682  1.00  0.00    -0.273 C  
BRANCH   5   6
HETATM    6  C   UNL     2     -10.092  13.641  66.517  1.00  0.00    -0.286 C  
HETATM    7  H   UNL     2      -8.282  12.901  66.084  1.00  0.00     0.000 HD 
HETATM    8  O   UNL     2      -8.893  12.876  66.811  1.00  0.00    -0.209 OA 
ENDBRANCH   5   6
BRANCH   5   9
HETATM    9  O   UNL     2     -10.498  12.760  68.657  1.00  0.00    -0.244 OA 
HETATM   10  O   UNL     2     -12.191  11.501  67.871  1.00  0.00    -0.586 OA 
HETATM   11  P   UNL     2     -11.540  11.527  69.279  1.00  0.00    -0.377 P  
HETATM   12  O   UNL     2     -11.936  12.638  70.283  1.00  0.00    -0.348 OA 
HETATM   13  O   UNL     2     -12.473  10.423  69.835  1.00  0.00    -0.204 OA 
ENDBRANCH   5   9
ENDBRANCH   3   5
TORSDOF 3
ENDMDL
MODEL      135
REMARK 921   NORMALIZED FREE ENERGY PREDICTED BY IDOCK:   -2.60 KCAL/MOL
REMARK 922        TOTAL FREE ENERGY PREDICTED BY IDOCK:   -3.52 KCAL/MOL
REMARK 923 INTER-LIGAND FREE ENERGY PREDICTED BY IDOCK:   -3.20 KCAL/MOL
REMARK 924 INTRA-LIGAND FREE ENERGY PREDICTED BY IDOCK:   -0.32 KCAL/MOL
REMARK 927      BINDING AFFINITY PREDICTED BY RF-SCORE:    0.00 PKD
ROOT
HETATM    1 CA   UNL     1     -12.405  10.895  71.789  1.00  0.00    -0.313 Ca 
HETATM    2  O   UNL     2     -13.599   9.313  70.967  1.00  0.00    -0.569 OA 
HETATM    3  C   UNL     2     -13.108   8.096  71.609  1.00  0.00    -0.335 C  
HETATM    4  H   UNL     2     -14.413   9.611  71.356  1.00  0.00     0.000 HD 
ENDROOT
BRANCH   3   5
HETATM    5  C   UNL     2     -11.784   7.612  70.977  1.00  0.00    -0.286 C  
BRANCH   5   6
HETATM    6  C   UNL     2     -11.046   8.672  70.169  1.00  0.00    -0.192 C  
HETATM    7  H   UNL     2     -10.086  10.394  70.521  1.00  0.00     0.000 HD 
HETATM    8  O   UNL     2     -10.546   9.733  71.024  1.00  0.00    -0.314 OA 
ENDBRANCH   5   6
BRANCH   5   9
HETATM    9  O   UNL     2     -10.885   7.172  71.969  1.00  0.00    -0.216 OA 
HETATM   10  O   UNL     2     -10.697   5.567  70.402  1.00  0.00    -0.285 OA 
HETATM   11  P   UNL     2     -10.520   5.481  71.941  1.00  0.00    -0.224 P  
HETATM   12  O   UNL     2     -11.772   5.392  72.849  1.00  0.00    -0.297 OA 
HETATM   13  O   UNL     2     -10.194   3.967  71.915  1.00  0.00    -0.167 OA 
ENDBRANCH   5   9
ENDBRANCH   3   5
TORSDOF 3
ENDMDL
MODEL      136
REMARK 921   NORMALIZED FREE ENERGY PREDICTED BY IDOCK:   -2.60 KCAL/MOL
REMARK 922        TOTAL FREE ENERGY PREDICTED BY IDOCK:   -3.51 KCAL/MOL
REMARK 923 INTER-LIGAND FREE ENERGY PREDICTED BY IDOCK:   -3.23 KCAL/MOL
REMARK 924 INTRA-LIGAND FREE ENERGY PREDICTED BY IDOCK:   -0.28 KCAL/MOL
REMARK 927      BINDING AFFINITY PREDICTED BY RF-SCORE:    0.00 PKD
ROOT
HETATM    1 CA   UNL     1     -12.735   6.022  73.105  1.00  0.00    -0.464 Ca 
HETATM    2  O   UNL     2     -13.086   8.109  72.753  1.00  0.00    -0.572 OA 
HETATM    3  C   UNL     2     -12.802   8.306  71.333  1.00  0.00    -0.247 C  
HETATM    4  H   UNL     2     -14.020   8.067  72.921  1.00  0.00     0.000 HD 
ENDROOT
BRANCH   3   5
HETATM    5  C   UNL     2     -11.284   8.374  71.059  1.00  0.00    -0.266 C  
BRANCH   5   6
HETATM    6  C   UNL     2     -10.884   9.350  69.960  1.00  0.00    -0.241 C  
HETATM    7  H   UNL     2     -11.539  11.093  69.223  1.00  0.00     0.000 HD 
HETATM    8  O   UNL     2     -11.789  10.485  69.908  1.00  0.00    -0.268 OA 
ENDBRANCH   5   6
BRANCH   5   9
HETATM    9  O   UNL     2     -10.582   8.769  72.216  1.00  0.00    -0.337 OA 
HETATM   10  O   UNL     2      -9.202   7.235  71.315  1.00  0.00    -0.150 OA 
HETATM   11  P   UNL     2      -9.416   7.632  72.800  1.00  0.00    -0.239 P  
HETATM   12  O   UNL     2     -10.635   7.070  73.572  1.00  0.00    -0.332 OA 
HETATM   13  O   UNL     2      -8.372   6.614  73.322  1.00  0.00    -0.118 OA 
ENDBRANCH   5   9
ENDBRANCH   3   5
TORSDOF 3
ENDMDL
MODEL      137
REMARK 921   NORMALIZED FREE ENERGY PREDICTED BY IDOCK:   -2.58 KCAL/MOL
REMARK 922        TOTAL FREE ENERGY PREDICTED BY IDOCK:   -3.50 KCAL/MOL
REMARK 923 INTER-LIGAND FREE ENERGY PREDICTED BY IDOCK:   -3.34 KCAL/MOL
REMARK 924 INTRA-LIGAND FREE ENERGY PREDICTED BY IDOCK:   -0.16 KCAL/MOL
REMARK 927      BINDING AFFINITY PREDICTED BY RF-SCORE:    0.00 PKD
ROOT
HETATM    1 CA   UNL     1      -7.266  17.227  68.516  1.00  0.00    -0.163 Ca 
HETATM    2  O   UNL     2      -8.012  15.329  67.852  1.00  0.00    -0.126 OA 
HETATM    3  C   UNL     2      -8.718  15.614  66.605  1.00  0.00    -0.298 C  
HETATM    4  H   UNL     2      -7.154  14.952  67.691  1.00  0.00     0.000 HD 
ENDROOT
BRANCH   3   5
HETATM    5  C   UNL     2     -10.112  16.226  66.866  1.00  0.00    -0.278 C  
BRANCH   5   6
HETATM    6  C   UNL     2     -10.592  17.186  65.785  1.00  0.00    -0.195 C  
HETATM    7  H   UNL     2     -11.245  17.074  63.895  1.00  0.00     0.000 HD 
HETATM    8  O   UNL     2     -10.946  16.475  64.568  1.00  0.00    -0.827 OA 
ENDBRANCH   5   6
BRANCH   5   9
HETATM    9  O   UNL     2     -11.092  15.217  66.966  1.00  0.00    -0.327 OA 
HETATM   10  O   UNL     2     -11.494  16.464  68.797  1.00  0.00    -0.328 OA 
HETATM   11  P   UNL     2     -11.718  14.948  68.556  1.00  0.00    -0.251 P  
HETATM   12  O   UNL     2     -10.518  13.974  68.655  1.00  0.00    -0.239 OA 
HETATM   13  O   UNL     2     -12.278  14.708  69.979  1.00  0.00    -0.307 OA 
ENDBRANCH   5   9
ENDBRANCH   3   5
TORSDOF 3
ENDMDL
MODEL      138
REMARK 921   NORMALIZED FREE ENERGY PREDICTED BY IDOCK:   -2.56 KCAL/MOL
REMARK 922        TOTAL FREE ENERGY PREDICTED BY IDOCK:   -3.46 KCAL/MOL
REMARK 923 INTER-LIGAND FREE ENERGY PREDICTED BY IDOCK:   -3.12 KCAL/MOL
REMARK 924 INTRA-LIGAND FREE ENERGY PREDICTED BY IDOCK:   -0.34 KCAL/MOL
REMARK 927      BINDING AFFINITY PREDICTED BY RF-SCORE:    0.00 PKD
ROOT
HETATM    1 CA   UNL     1      -7.619  16.446  65.758  1.00  0.00    -0.251 Ca 
HETATM    2  O   UNL     2      -5.706  17.404  65.596  1.00  0.00    -0.150 OA 
HETATM    3  C   UNL     2      -5.445  17.954  66.924  1.00  0.00    -0.142 C  
HETATM    4  H   UNL     2      -5.221  16.600  65.448  1.00  0.00     0.000 HD 
ENDROOT
BRANCH   3   5
HETATM    5  C   UNL     2      -6.233  19.260  67.165  1.00  0.00    -0.182 C  
BRANCH   5   6
HETATM    6  C   UNL     2      -7.149  19.665  66.018  1.00  0.00    -0.281 C  
HETATM    7  H   UNL     2      -8.866  19.030  65.205  1.00  0.00     0.000 HD 
HETATM    8  O   UNL     2      -8.295  18.778  65.920  1.00  0.00    -0.490 OA 
ENDBRANCH   5   6
BRANCH   5   9
HETATM    9  O   UNL     2      -7.052  19.149  68.308  1.00  0.00    -0.255 OA 
HETATM   10  O   UNL     2      -5.809  20.966  68.780  1.00  0.00    -0.338 OA 
HETATM   11  P   UNL     2      -6.444  19.920  69.733  1.00  0.00    -0.244 P  
HETATM   12  O   UNL     2      -5.744  18.553  69.939  1.00  0.00    -0.230 OA 
HETATM   13  O   UNL     2      -5.899  20.609  71.008  1.00  0.00    -0.559 OA 
ENDBRANCH   5   9
ENDBRANCH   3   5
TORSDOF 3
ENDMDL
MODEL      139
REMARK 921   NORMALIZED FREE ENERGY PREDICTED BY IDOCK:   -2.55 KCAL/MOL
REMARK 922        TOTAL FREE ENERGY PREDICTED BY IDOCK:   -3.46 KCAL/MOL
REMARK 923 INTER-LIGAND FREE ENERGY PREDICTED BY IDOCK:   -3.11 KCAL/MOL
REMARK 924 INTRA-LIGAND FREE ENERGY PREDICTED BY IDOCK:   -0.35 KCAL/MOL
REMARK 927      BINDING AFFINITY PREDICTED BY RF-SCORE:    0.00 PKD
ROOT
HETATM    1 CA   UNL     1     -10.914   6.410  73.674  1.00  0.00    -0.232 Ca 
HETATM    2  O   UNL     2     -12.521   7.441  72.696  1.00  0.00    -0.506 OA 
HETATM    3  C   UNL     2     -12.292   7.232  71.268  1.00  0.00    -0.366 C  
HETATM    4  H   UNL     2     -13.204   6.870  73.029  1.00  0.00     0.000 HD 
ENDROOT
BRANCH   3   5
HETATM    5  C   UNL     2     -11.183   8.160  70.727  1.00  0.00    -0.261 C  
BRANCH   5   6
HETATM    6  C   UNL     2     -10.496   9.009  71.789  1.00  0.00    -0.348 C  
HETATM    7  H   UNL     2      -9.288   8.717  73.360  1.00  0.00     0.000 HD 
HETATM    8  O   UNL     2      -9.716   8.187  72.697  1.00  0.00    -0.240 OA 
ENDBRANCH   5   6
BRANCH   5   9
HETATM    9  O   UNL     2     -10.166   7.413  70.096  1.00  0.00    -0.199 OA 
HETATM   10  O   UNL     2     -10.722   8.908  68.507  1.00  0.00    -0.178 OA 
HETATM   11  P   UNL     2     -10.174   7.464  68.367  1.00  0.00    -0.182 P  
HETATM   12  O   UNL     2     -11.138   6.262  68.529  1.00  0.00    -0.334 OA 
HETATM   13  O   UNL     2     -10.181   7.509  66.819  1.00  0.00    -0.263 OA 
ENDBRANCH   5   9
ENDBRANCH   3   5
TORSDOF 3
ENDMDL
MODEL      140
REMARK 921   NORMALIZED FREE ENERGY PREDICTED BY IDOCK:   -2.52 KCAL/MOL
REMARK 922        TOTAL FREE ENERGY PREDICTED BY IDOCK:   -3.42 KCAL/MOL
REMARK 923 INTER-LIGAND FREE ENERGY PREDICTED BY IDOCK:   -2.99 KCAL/MOL
REMARK 924 INTRA-LIGAND FREE ENERGY PREDICTED BY IDOCK:   -0.44 KCAL/MOL
REMARK 927      BINDING AFFINITY PREDICTED BY RF-SCORE:    0.00 PKD
ROOT
HETATM    1 CA   UNL     1     -10.307   9.261  68.413  1.00  0.00    -0.162 Ca 
HETATM    2  O   UNL     2     -12.022   9.552  69.668  1.00  0.00    -0.372 OA 
HETATM    3  C   UNL     2     -11.488  10.076  70.924  1.00  0.00    -0.371 C  
HETATM    4  H   UNL     2     -12.402  10.241  69.135  1.00  0.00     0.000 HD 
ENDROOT
BRANCH   3   5
HETATM    5  C   UNL     2     -10.871   8.957  71.791  1.00  0.00    -0.365 C  
BRANCH   5   6
HETATM    6  C   UNL     2     -11.888   8.020  72.430  1.00  0.00    -0.372 C  
HETATM    7  H   UNL     2     -13.368   6.814  71.825  1.00  0.00     0.000 HD 
HETATM    8  O   UNL     2     -12.734   7.397  71.426  1.00  0.00    -0.352 OA 
ENDBRANCH   5   6
BRANCH   5   9
HETATM    9  O   UNL     2     -10.009   8.145  71.025  1.00  0.00    -0.183 OA 
HETATM   10  O   UNL     2      -8.705   8.725  72.766  1.00  0.00    -0.398 OA 
HETATM   11  P   UNL     2      -8.319   8.392  71.301  1.00  0.00    -0.171 P  
HETATM   12  O   UNL     2      -8.495   9.470  70.202  1.00  0.00    -0.171 OA 
HETATM   13  O   UNL     2      -6.807   8.614  71.547  1.00  0.00    -0.072 OA 
ENDBRANCH   5   9
ENDBRANCH   3   5
TORSDOF 3
ENDMDL
MODEL      141
REMARK 921   NORMALIZED FREE ENERGY PREDICTED BY IDOCK:   -2.50 KCAL/MOL
REMARK 922        TOTAL FREE ENERGY PREDICTED BY IDOCK:   -3.40 KCAL/MOL
REMARK 923 INTER-LIGAND FREE ENERGY PREDICTED BY IDOCK:   -2.96 KCAL/MOL
REMARK 924 INTRA-LIGAND FREE ENERGY PREDICTED BY IDOCK:   -0.44 KCAL/MOL
REMARK 927      BINDING AFFINITY PREDICTED BY RF-SCORE:    0.00 PKD
ROOT
HETATM    1 CA   UNL     1      -9.704  14.663  66.424  1.00  0.00    -0.218 Ca 
HETATM    2  O   UNL     2      -7.650  14.633  67.042  1.00  0.00    -0.305 OA 
HETATM    3  C   UNL     2      -7.527  15.729  68.000  1.00  0.00    -0.127 C  
HETATM    4  H   UNL     2      -7.705  13.790  67.478  1.00  0.00     0.000 HD 
ENDROOT
BRANCH   3   5
HETATM    5  C   UNL     2      -7.437  17.098  67.292  1.00  0.00    -0.160 C  
BRANCH   5   6
HETATM    6  C   UNL     2      -6.125  17.344  66.556  1.00  0.00    -0.215 C  
HETATM    7  H   UNL     2      -4.434  16.339  66.178  1.00  0.00     0.000 HD 
HETATM    8  O   UNL     2      -5.252  16.186  66.636  1.00  0.00    -0.256 OA 
ENDBRANCH   5   6
BRANCH   5   9
HETATM    9  O   UNL     2      -8.462  17.236  66.333  1.00  0.00    -0.252 OA 
HETATM   10  O   UNL     2      -8.778  19.042  67.639  1.00  0.00    -0.283 OA 
HETATM   11  P   UNL     2      -9.802  18.217  66.817  1.00  0.00    -0.374 P  
HETATM   12  O   UNL     2     -10.331  16.875  67.383  1.00  0.00    -0.296 OA 
HETATM   13  O   UNL     2     -11.002  19.095  67.251  1.00  0.00    -0.478 OA 
ENDBRANCH   5   9
ENDBRANCH   3   5
TORSDOF 3
ENDMDL
MODEL      142
REMARK 921   NORMALIZED FREE ENERGY PREDICTED BY IDOCK:   -2.50 KCAL/MOL
REMARK 922        TOTAL FREE ENERGY PREDICTED BY IDOCK:   -3.39 KCAL/MOL
REMARK 923 INTER-LIGAND FREE ENERGY PREDICTED BY IDOCK:   -3.08 KCAL/MOL
REMARK 924 INTRA-LIGAND FREE ENERGY PREDICTED BY IDOCK:   -0.31 KCAL/MOL
REMARK 927      BINDING AFFINITY PREDICTED BY RF-SCORE:    0.00 PKD
ROOT
HETATM    1 CA   UNL     1      -8.484  10.292  67.310  1.00  0.00    -0.116 Ca 
HETATM    2  O   UNL     2      -8.409  12.020  66.041  1.00  0.00    -0.383 OA 
HETATM    3  C   UNL     2      -9.065  13.079  66.805  1.00  0.00    -0.210 C  
HETATM    4  H   UNL     2      -7.463  12.104  66.068  1.00  0.00     0.000 HD 
ENDROOT
BRANCH   3   5
HETATM    5  C   UNL     2     -10.603  12.944  66.762  1.00  0.00    -0.257 C  
BRANCH   5   6
HETATM    6  C   UNL     2     -11.211  13.095  65.374  1.00  0.00    -0.291 C  
HETATM    7  H   UNL     2     -10.744  13.997  63.647  1.00  0.00     0.000 HD 
HETATM    8  O   UNL     2     -10.365  13.903  64.513  1.00  0.00    -0.436 OA 
ENDBRANCH   5   6
BRANCH   5   9
HETATM    9  O   UNL     2     -11.010  11.681  67.239  1.00  0.00    -0.236 OA 
HETATM   10  O   UNL     2     -12.077  13.089  68.634  1.00  0.00    -0.295 OA 
HETATM   11  P   UNL     2     -11.556  11.649  68.880  1.00  0.00    -0.359 P  
HETATM   12  O   UNL     2     -10.051  11.422  69.173  1.00  0.00    -0.146 OA 
HETATM   13  O   UNL     2     -12.044  11.621  70.350  1.00  0.00    -0.355 OA 
ENDBRANCH   5   9
ENDBRANCH   3   5
TORSDOF 3
ENDMDL
MODEL      143
REMARK 921   NORMALIZED FREE ENERGY PREDICTED BY IDOCK:   -2.49 KCAL/MOL
REMARK 922        TOTAL FREE ENERGY PREDICTED BY IDOCK:   -3.39 KCAL/MOL
REMARK 923 INTER-LIGAND FREE ENERGY PREDICTED BY IDOCK:   -3.04 KCAL/MOL
REMARK 924 INTRA-LIGAND FREE ENERGY PREDICTED BY IDOCK:   -0.35 KCAL/MOL
REMARK 927      BINDING AFFINITY PREDICTED BY RF-SCORE:    0.00 PKD
ROOT
HETATM    1 CA   UNL     1      -9.332   8.030  68.293  1.00  0.00    -0.136 Ca 
HETATM    2  O   UNL     2      -9.519   9.901  69.325  1.00  0.00    -0.184 OA 
HETATM    3  C   UNL     2     -10.779  10.471  68.851  1.00  0.00    -0.220 C  
HETATM    4  H   UNL     2      -9.612   9.513  70.187  1.00  0.00     0.000 HD 
ENDROOT
BRANCH   3   5
HETATM    5  C   UNL     2     -10.628  11.101  67.449  1.00  0.00    -0.234 C  
BRANCH   5   6
HETATM    6  C   UNL     2     -10.303  10.107  66.342  1.00  0.00    -0.188 C  
HETATM    7  H   UNL     2      -8.745   8.982  65.778  1.00  0.00     0.000 HD 
HETATM    8  O   UNL     2      -8.947   9.601  66.469  1.00  0.00    -0.142 OA 
ENDBRANCH   5   6
BRANCH   5   9
HETATM    9  O   UNL     2     -11.816  11.754  67.062  1.00  0.00    -0.599 OA 
HETATM   10  O   UNL     2     -10.235  13.251  66.491  1.00  0.00    -0.271 OA 
HETATM   11  P   UNL     2     -11.706  13.475  66.929  1.00  0.00    -0.410 P  
HETATM   12  O   UNL     2     -12.071  13.422  68.433  1.00  0.00    -0.343 OA 
HETATM   13  O   UNL     2     -11.608  15.016  66.810  1.00  0.00    -0.312 OA 
ENDBRANCH   5   9
ENDBRANCH   3   5
TORSDOF 3
ENDMDL
MODEL      144
REMARK 921   NORMALIZED FREE ENERGY PREDICTED BY IDOCK:   -2.47 KCAL/MOL
REMARK 922        TOTAL FREE ENERGY PREDICTED BY IDOCK:   -3.36 KCAL/MOL
REMARK 923 INTER-LIGAND FREE ENERGY PREDICTED BY IDOCK:   -3.02 KCAL/MOL
REMARK 924 INTRA-LIGAND FREE ENERGY PREDICTED BY IDOCK:   -0.34 KCAL/MOL
REMARK 927      BINDING AFFINITY PREDICTED BY RF-SCORE:    0.00 PKD
ROOT
HETATM    1 CA   UNL     1     -11.533   8.441  67.238  1.00  0.00    -0.483 Ca 
HETATM    2  O   UNL     2     -11.450   6.386  67.849  1.00  0.00    -0.622 OA 
HETATM    3  C   UNL     2     -11.478   6.424  69.310  1.00  0.00    -0.248 C  
HETATM    4  H   UNL     2     -12.299   6.157  67.489  1.00  0.00     0.000 HD 
ENDROOT
BRANCH   3   5
HETATM    5  C   UNL     2     -10.098   6.797  69.896  1.00  0.00    -0.180 C  
BRANCH   5   6
HETATM    6  C   UNL     2      -9.023   7.073  68.853  1.00  0.00    -0.129 C  
HETATM    7  H   UNL     2      -8.582   8.511  67.530  1.00  0.00     0.000 HD 
HETATM    8  O   UNL     2      -9.253   8.340  68.181  1.00  0.00    -0.135 OA 
ENDBRANCH   5   6
BRANCH   5   9
HETATM    9  O   UNL     2     -10.188   7.958  70.691  1.00  0.00    -0.195 OA 
HETATM   10  O   UNL     2      -9.289   6.466  72.117  1.00  0.00    -0.151 OA 
HETATM   11  P   UNL     2     -10.203   7.687  72.400  1.00  0.00    -0.275 P  
HETATM   12  O   UNL     2     -11.731   7.566  72.172  1.00  0.00    -0.284 OA 
HETATM   13  O   UNL     2     -10.217   7.444  73.929  1.00  0.00    -0.317 OA 
ENDBRANCH   5   9
ENDBRANCH   3   5
TORSDOF 3
ENDMDL
MODEL      145
REMARK 921   NORMALIZED FREE ENERGY PREDICTED BY IDOCK:   -2.46 KCAL/MOL
REMARK 922        TOTAL FREE ENERGY PREDICTED BY IDOCK:   -3.35 KCAL/MOL
REMARK 923 INTER-LIGAND FREE ENERGY PREDICTED BY IDOCK:   -3.23 KCAL/MOL
REMARK 924 INTRA-LIGAND FREE ENERGY PREDICTED BY IDOCK:   -0.12 KCAL/MOL
REMARK 927      BINDING AFFINITY PREDICTED BY RF-SCORE:    0.00 PKD
ROOT
HETATM    1 CA   UNL     1      -9.634  13.787  64.009  1.00  0.00    -0.550 Ca 
HETATM    2  O   UNL     2      -9.743  14.716  65.940  1.00  0.00    -0.312 OA 
HETATM    3  C   UNL     2      -9.345  13.675  66.884  1.00  0.00    -0.257 C  
HETATM    4  H   UNL     2      -9.036  15.331  65.777  1.00  0.00     0.000 HD 
ENDROOT
BRANCH   3   5
HETATM    5  C   UNL     2     -10.493  12.676  67.148  1.00  0.00    -0.235 C  
BRANCH   5   6
HETATM    6  C   UNL     2     -11.799  13.320  67.595  1.00  0.00    -0.357 C  
HETATM    7  H   UNL     2     -13.175  14.556  66.825  1.00  0.00     0.000 HD 
HETATM    8  O   UNL     2     -12.361  14.154  66.547  1.00  0.00    -0.460 OA 
ENDBRANCH   5   6
BRANCH   5   9
HETATM    9  O   UNL     2     -10.792  11.936  65.986  1.00  0.00    -0.277 OA 
HETATM   10  O   UNL     2     -10.699  10.335  67.566  1.00  0.00    -0.255 OA 
HETATM   11  P   UNL     2     -10.379  10.257  66.050  1.00  0.00    -0.065 P  
HETATM   12  O   UNL     2      -9.013  10.771  65.531  1.00  0.00    -0.183 OA 
HETATM   13  O   UNL     2     -10.010   8.754  66.108  1.00  0.00    -0.275 OA 
ENDBRANCH   5   9
ENDBRANCH   3   5
TORSDOF 3
ENDMDL
MODEL      146
REMARK 921   NORMALIZED FREE ENERGY PREDICTED BY IDOCK:   -2.43 KCAL/MOL
REMARK 922        TOTAL FREE ENERGY PREDICTED BY IDOCK:   -3.31 KCAL/MOL
REMARK 923 INTER-LIGAND FREE ENERGY PREDICTED BY IDOCK:   -3.27 KCAL/MOL
REMARK 924 INTRA-LIGAND FREE ENERGY PREDICTED BY IDOCK:   -0.05 KCAL/MOL
REMARK 927      BINDING AFFINITY PREDICTED BY RF-SCORE:    0.00 PKD
ROOT
HETATM    1 CA   UNL     1      -8.521  15.958  65.519  1.00  0.00    -0.271 Ca 
HETATM    2  O   UNL     2      -9.151  15.219  67.432  1.00  0.00    -0.184 OA 
HETATM    3  C   UNL     2      -8.657  13.845  67.488  1.00  0.00    -0.193 C  
HETATM    4  H   UNL     2      -8.603  15.809  67.936  1.00  0.00     0.000 HD 
ENDROOT
BRANCH   3   5
HETATM    5  C   UNL     2      -9.547  12.884  66.670  1.00  0.00    -0.257 C  
BRANCH   5   6
HETATM    6  C   UNL     2      -9.101  11.428  66.702  1.00  0.00    -0.181 C  
HETATM    7  H   UNL     2      -7.508  10.359  66.126  1.00  0.00     0.000 HD 
HETATM    8  O   UNL     2      -7.786  11.266  66.106  1.00  0.00    -0.121 OA 
ENDBRANCH   5   6
BRANCH   5   9
HETATM    9  O   UNL     2     -10.875  12.904  67.144  1.00  0.00    -0.250 OA 
HETATM   10  O   UNL     2     -11.160  12.755  64.915  1.00  0.00    -0.279 OA 
HETATM   11  P   UNL     2     -12.065  13.408  65.993  1.00  0.00    -0.429 P  
HETATM   12  O   UNL     2     -11.712  14.816  66.535  1.00  0.00    -0.350 OA 
HETATM   13  O   UNL     2     -13.129  13.859  64.963  1.00  0.00    -0.749 OA 
ENDBRANCH   5   9
ENDBRANCH   3   5
TORSDOF 3
ENDMDL
MODEL      147
REMARK 921   NORMALIZED FREE ENERGY PREDICTED BY IDOCK:   -2.43 KCAL/MOL
REMARK 922        TOTAL FREE ENERGY PREDICTED BY IDOCK:   -3.31 KCAL/MOL
REMARK 923 INTER-LIGAND FREE ENERGY PREDICTED BY IDOCK:   -3.10 KCAL/MOL
REMARK 924 INTRA-LIGAND FREE ENERGY PREDICTED BY IDOCK:   -0.21 KCAL/MOL
REMARK 927      BINDING AFFINITY PREDICTED BY RF-SCORE:    0.00 PKD
ROOT
HETATM    1 CA   UNL     1      -8.617  13.630  69.233  1.00  0.00    -0.312 Ca 
HETATM    2  O   UNL     2     -10.642  13.680  68.526  1.00  0.00    -0.240 OA 
HETATM    3  C   UNL     2     -10.548  13.432  67.089  1.00  0.00    -0.259 C  
HETATM    4  H   UNL     2     -10.916  12.902  68.999  1.00  0.00     0.000 HD 
ENDROOT
BRANCH   3   5
HETATM    5  C   UNL     2     -10.102  14.695  66.321  1.00  0.00    -0.294 C  
BRANCH   5   6
HETATM    6  C   UNL     2     -10.567  14.749  64.871  1.00  0.00    -0.406 C  
HETATM    7  H   UNL     2     -10.439  13.599  63.236  1.00  0.00     0.000 HD 
HETATM    8  O   UNL     2     -10.150  13.565  64.140  1.00  0.00    -0.300 OA 
ENDBRANCH   5   6
BRANCH   5   9
HETATM    9  O   UNL     2     -10.598  15.861  66.941  1.00  0.00    -0.311 OA 
HETATM   10  O   UNL     2      -8.540  16.499  66.290  1.00  0.00    -0.288 OA 
HETATM   11  P   UNL     2      -9.396  16.975  67.493  1.00  0.00    -0.238 P  
HETATM   12  O   UNL     2      -9.459  16.108  68.776  1.00  0.00    -0.210 OA 
HETATM   13  O   UNL     2      -8.319  17.972  67.988  1.00  0.00    -0.247 OA 
ENDBRANCH   5   9
ENDBRANCH   3   5
TORSDOF 3
ENDMDL
MODEL      148
REMARK 921   NORMALIZED FREE ENERGY PREDICTED BY IDOCK:   -2.42 KCAL/MOL
REMARK 922        TOTAL FREE ENERGY PREDICTED BY IDOCK:   -3.31 KCAL/MOL
REMARK 923 INTER-LIGAND FREE ENERGY PREDICTED BY IDOCK:   -3.36 KCAL/MOL
REMARK 924 INTRA-LIGAND FREE ENERGY PREDICTED BY IDOCK:    0.05 KCAL/MOL
REMARK 927      BINDING AFFINITY PREDICTED BY RF-SCORE:    0.00 PKD
ROOT
HETATM    1 CA   UNL     1     -10.686   7.981  65.897  1.00  0.00    -0.454 Ca 
HETATM    2  O   UNL     2      -9.215   9.090  64.799  1.00  0.00    -0.438 OA 
HETATM    3  C   UNL     2      -8.978  10.294  65.592  1.00  0.00    -0.172 C  
HETATM    4  H   UNL     2      -8.521   8.451  64.916  1.00  0.00     0.000 HD 
ENDROOT
BRANCH   3   5
HETATM    5  C   UNL     2     -10.105  11.333  65.401  1.00  0.00    -0.264 C  
BRANCH   5   6
HETATM    6  C   UNL     2     -10.746  11.322  64.020  1.00  0.00    -0.377 C  
HETATM    7  H   UNL     2     -10.617  12.377  62.322  1.00  0.00     0.000 HD 
HETATM    8  O   UNL     2     -10.216  12.384  63.183  1.00  0.00    -0.339 OA 
ENDBRANCH   5   6
BRANCH   5   9
HETATM    9  O   UNL     2     -11.147  11.119  66.326  1.00  0.00    -0.229 OA 
HETATM   10  O   UNL     2     -10.836  13.345  66.457  1.00  0.00    -0.280 OA 
HETATM   11  P   UNL     2     -11.329  12.343  67.534  1.00  0.00    -0.356 P  
HETATM   12  O   UNL     2     -10.298  11.473  68.296  1.00  0.00    -0.183 OA 
HETATM   13  O   UNL     2     -11.491  13.439  68.616  1.00  0.00    -0.265 OA 
ENDBRANCH   5   9
ENDBRANCH   3   5
TORSDOF 3
ENDMDL
MODEL      149
REMARK 921   NORMALIZED FREE ENERGY PREDICTED BY IDOCK:   -2.42 KCAL/MOL
REMARK 922        TOTAL FREE ENERGY PREDICTED BY IDOCK:   -3.31 KCAL/MOL
REMARK 923 INTER-LIGAND FREE ENERGY PREDICTED BY IDOCK:   -2.96 KCAL/MOL
REMARK 924 INTRA-LIGAND FREE ENERGY PREDICTED BY IDOCK:   -0.34 KCAL/MOL
REMARK 927      BINDING AFFINITY PREDICTED BY RF-SCORE:    0.00 PKD
ROOT
HETATM    1 CA   UNL     1      -8.286  10.421  67.821  1.00  0.00    -0.102 Ca 
HETATM    2  O   UNL     2      -8.415  11.892  66.265  1.00  0.00    -0.361 OA 
HETATM    3  C   UNL     2      -8.957  13.084  66.915  1.00  0.00    -0.209 C  
HETATM    4  H   UNL     2      -7.476  11.961  66.135  1.00  0.00     0.000 HD 
ENDROOT
BRANCH   3   5
HETATM    5  C   UNL     2     -10.483  12.973  67.126  1.00  0.00    -0.243 C  
BRANCH   5   6
HETATM    6  C   UNL     2     -11.112  11.715  66.541  1.00  0.00    -0.301 C  
HETATM    7  H   UNL     2     -11.198   9.764  66.986  1.00  0.00     0.000 HD 
HETATM    8  O   UNL     2     -10.807  10.548  67.351  1.00  0.00    -0.266 OA 
ENDBRANCH   5   6
BRANCH   5   9
HETATM    9  O   UNL     2     -10.801  12.975  68.500  1.00  0.00    -0.243 OA 
HETATM   10  O   UNL     2     -12.149  14.586  67.691  1.00  0.00    -0.343 OA 
HETATM   11  P   UNL     2     -11.507  14.438  69.095  1.00  0.00    -0.332 P  
HETATM   12  O   UNL     2     -10.026  14.840  69.303  1.00  0.00    -0.209 OA 
HETATM   13  O   UNL     2     -12.139  15.748  69.627  1.00  0.00    -0.355 OA 
ENDBRANCH   5   9
ENDBRANCH   3   5
TORSDOF 3
ENDMDL
MODEL      150
REMARK 921   NORMALIZED FREE ENERGY PREDICTED BY IDOCK:   -2.42 KCAL/MOL
REMARK 922        TOTAL FREE ENERGY PREDICTED BY IDOCK:   -3.30 KCAL/MOL
REMARK 923 INTER-LIGAND FREE ENERGY PREDICTED BY IDOCK:   -3.43 KCAL/MOL
REMARK 924 INTRA-LIGAND FREE ENERGY PREDICTED BY IDOCK:    0.13 KCAL/MOL
REMARK 927      BINDING AFFINITY PREDICTED BY RF-SCORE:    0.00 PKD
ROOT
HETATM    1 CA   UNL     1      -9.449  13.666  64.631  1.00  0.00    -0.516 Ca 
HETATM    2  O   UNL     2     -11.314  14.586  65.160  1.00  0.00    -0.335 OA 
HETATM    3  C   UNL     2     -11.110  16.014  64.930  1.00  0.00    -0.370 C  
HETATM    4  H   UNL     2     -11.809  14.185  64.455  1.00  0.00     0.000 HD 
ENDROOT
BRANCH   3   5
HETATM    5  C   UNL     2     -10.306  16.667  66.076  1.00  0.00    -0.340 C  
BRANCH   5   6
HETATM    6  C   UNL     2     -10.255  18.188  66.025  1.00  0.00    -0.320 C  
HETATM    7  H   UNL     2     -10.962  19.726  67.095  1.00  0.00     0.000 HD 
HETATM    8  O   UNL     2     -10.994  18.778  67.127  1.00  0.00    -0.380 OA 
ENDBRANCH   5   6
BRANCH   5   9
HETATM    9  O   UNL     2     -10.854  16.329  67.330  1.00  0.00    -0.313 OA 
HETATM   10  O   UNL     2      -8.686  16.673  67.829  1.00  0.00    -0.197 OA 
HETATM   11  P   UNL     2      -9.724  15.734  68.497  1.00  0.00    -0.221 P  
HETATM   12  O   UNL     2     -10.057  14.372  67.839  1.00  0.00    -0.223 OA 
HETATM   13  O   UNL     2      -8.713  15.201  69.541  1.00  0.00    -0.214 OA 
ENDBRANCH   5   9
ENDBRANCH   3   5
TORSDOF 3
ENDMDL
MODEL      151
REMARK 921   NORMALIZED FREE ENERGY PREDICTED BY IDOCK:   -2.40 KCAL/MOL
REMARK 922        TOTAL FREE ENERGY PREDICTED BY IDOCK:   -3.28 KCAL/MOL
REMARK 923 INTER-LIGAND FREE ENERGY PREDICTED BY IDOCK:   -2.84 KCAL/MOL
REMARK 924 INTRA-LIGAND FREE ENERGY PREDICTED BY IDOCK:   -0.45 KCAL/MOL
REMARK 927      BINDING AFFINITY PREDICTED BY RF-SCORE:    0.00 PKD
ROOT
HETATM    1 CA   UNL     1     -11.033  12.351  70.248  1.00  0.00    -0.464 Ca 
HETATM    2  O   UNL     2     -11.923  13.465  68.645  1.00  0.00    -0.343 OA 
HETATM    3  C   UNL     2     -11.577  12.726  67.433  1.00  0.00    -0.356 C  
HETATM    4  H   UNL     2     -12.819  13.297  68.914  1.00  0.00     0.000 HD 
ENDROOT
BRANCH   3   5
HETATM    5  C   UNL     2     -10.120  12.998  66.997  1.00  0.00    -0.243 C  
BRANCH   5   6
HETATM    6  C   UNL     2      -9.896  14.365  66.363  1.00  0.00    -0.295 C  
HETATM    7  H   UNL     2     -11.009  15.931  65.797  1.00  0.00     0.000 HD 
HETATM    8  O   UNL     2     -11.149  15.079  66.192  1.00  0.00    -0.336 OA 
ENDBRANCH   5   6
BRANCH   5   9
HETATM    9  O   UNL     2      -9.244  12.922  68.098  1.00  0.00    -0.204 OA 
HETATM   10  O   UNL     2      -8.285  11.519  66.622  1.00  0.00    -0.165 OA 
HETATM   11  P   UNL     2      -8.269  11.495  68.173  1.00  0.00    -0.162 P  
HETATM   12  O   UNL     2      -9.492  10.933  68.940  1.00  0.00    -0.188 OA 
HETATM   13  O   UNL     2      -7.397  10.217  68.239  1.00  0.00    -0.079 OA 
ENDBRANCH   5   9
ENDBRANCH   3   5
TORSDOF 3
ENDMDL
MODEL      152
REMARK 921   NORMALIZED FREE ENERGY PREDICTED BY IDOCK:   -2.40 KCAL/MOL
REMARK 922        TOTAL FREE ENERGY PREDICTED BY IDOCK:   -3.28 KCAL/MOL
REMARK 923 INTER-LIGAND FREE ENERGY PREDICTED BY IDOCK:   -3.03 KCAL/MOL
REMARK 924 INTRA-LIGAND FREE ENERGY PREDICTED BY IDOCK:   -0.25 KCAL/MOL
REMARK 927      BINDING AFFINITY PREDICTED BY RF-SCORE:    0.00 PKD
ROOT
HETATM    1 CA   UNL     1     -11.890   5.146  65.275  1.00  0.00    -0.711 Ca 
HETATM    2  O   UNL     2     -11.524   6.630  66.780  1.00  0.00    -0.776 OA 
HETATM    3  C   UNL     2     -10.102   6.509  67.094  1.00  0.00    -0.170 C  
HETATM    4  H   UNL     2     -11.696   7.372  66.210  1.00  0.00     0.000 HD 
ENDROOT
BRANCH   3   5
HETATM    5  C   UNL     2      -9.824   5.304  68.019  1.00  0.00    -0.149 C  
BRANCH   5   6
HETATM    6  C   UNL     2      -9.371   4.043  67.294  1.00  0.00    -0.184 C  
HETATM    7  H   UNL     2      -9.642   3.193  65.501  1.00  0.00     0.000 HD 
HETATM    8  O   UNL     2      -9.924   3.979  65.952  1.00  0.00    -0.192 OA 
ENDBRANCH   5   6
BRANCH   5   9
HETATM    9  O   UNL     2      -8.812   5.611  68.952  1.00  0.00    -0.109 OA 
HETATM   10  O   UNL     2     -10.583   5.195  70.279  1.00  0.00    -0.262 OA 
HETATM   11  P   UNL     2      -9.371   6.136  70.503  1.00  0.00    -0.162 P  
HETATM   12  O   UNL     2      -9.350   7.529  69.825  1.00  0.00    -0.151 OA 
HETATM   13  O   UNL     2      -9.871   6.607  71.891  1.00  0.00    -0.167 OA 
ENDBRANCH   5   9
ENDBRANCH   3   5
TORSDOF 3
ENDMDL
MODEL      153
REMARK 921   NORMALIZED FREE ENERGY PREDICTED BY IDOCK:   -2.39 KCAL/MOL
REMARK 922        TOTAL FREE ENERGY PREDICTED BY IDOCK:   -3.26 KCAL/MOL
REMARK 923 INTER-LIGAND FREE ENERGY PREDICTED BY IDOCK:   -3.33 KCAL/MOL
REMARK 924 INTRA-LIGAND FREE ENERGY PREDICTED BY IDOCK:    0.07 KCAL/MOL
REMARK 927      BINDING AFFINITY PREDICTED BY RF-SCORE:    0.00 PKD
ROOT
HETATM    1 CA   UNL     1     -11.784  11.063  66.837  1.00  0.00    -0.306 Ca 
HETATM    2  O   UNL     2     -12.621  10.890  68.805  1.00  0.00    -0.699 OA 
HETATM    3  C   UNL     2     -11.478  10.973  69.711  1.00  0.00    -0.311 C  
HETATM    4  H   UNL     2     -13.098  11.711  68.767  1.00  0.00     0.000 HD 
ENDROOT
BRANCH   3   5
HETATM    5  C   UNL     2     -10.702   9.638  69.773  1.00  0.00    -0.245 C  
BRANCH   5   6
HETATM    6  C   UNL     2      -9.362   9.653  69.049  1.00  0.00    -0.159 C  
HETATM    7  H   UNL     2      -7.894  10.967  68.687  1.00  0.00     0.000 HD 
HETATM    8  O   UNL     2      -8.729  10.958  69.138  1.00  0.00    -0.137 OA 
ENDBRANCH   5   6
BRANCH   5   9
HETATM    9  O   UNL     2     -10.429   9.278  71.109  1.00  0.00    -0.282 OA 
HETATM   10  O   UNL     2     -11.273   7.372  70.259  1.00  0.00    -0.269 OA 
HETATM   11  P   UNL     2     -11.321   7.923  71.708  1.00  0.00    -0.301 P  
HETATM   12  O   UNL     2     -12.358   9.014  72.077  1.00  0.00    -0.350 OA 
HETATM   13  O   UNL     2     -12.120   6.710  72.245  1.00  0.00    -0.272 OA 
ENDBRANCH   5   9
ENDBRANCH   3   5
TORSDOF 3
ENDMDL
MODEL      154
REMARK 921   NORMALIZED FREE ENERGY PREDICTED BY IDOCK:   -2.37 KCAL/MOL
REMARK 922        TOTAL FREE ENERGY PREDICTED BY IDOCK:   -3.24 KCAL/MOL
REMARK 923 INTER-LIGAND FREE ENERGY PREDICTED BY IDOCK:   -2.96 KCAL/MOL
REMARK 924 INTRA-LIGAND FREE ENERGY PREDICTED BY IDOCK:   -0.29 KCAL/MOL
REMARK 927      BINDING AFFINITY PREDICTED BY RF-SCORE:    0.00 PKD
ROOT
HETATM    1 CA   UNL     1      -7.555  15.899  66.057  1.00  0.00    -0.217 Ca 
HETATM    2  O   UNL     2      -6.275  17.316  67.036  1.00  0.00    -0.136 OA 
HETATM    3  C   UNL     2      -6.811  17.439  68.389  1.00  0.00    -0.194 C  
HETATM    4  H   UNL     2      -5.503  16.761  67.013  1.00  0.00     0.000 HD 
ENDROOT
BRANCH   3   5
HETATM    5  C   UNL     2      -8.065  18.339  68.426  1.00  0.00    -0.307 C  
BRANCH   5   6
HETATM    6  C   UNL     2      -7.773  19.832  68.347  1.00  0.00    -0.301 C  
HETATM    7  H   UNL     2      -8.078  21.331  67.054  1.00  0.00     0.000 HD 
HETATM    8  O   UNL     2      -8.261  20.401  67.103  1.00  0.00    -0.328 OA 
ENDBRANCH   5   6
BRANCH   5   9
HETATM    9  O   UNL     2      -8.926  18.046  67.348  1.00  0.00    -0.243 OA 
HETATM   10  O   UNL     2     -10.269  17.754  69.131  1.00  0.00    -0.346 OA 
HETATM   11  P   UNL     2     -10.297  17.067  67.740  1.00  0.00    -0.349 P  
HETATM   12  O   UNL     2      -9.313  15.908  67.441  1.00  0.00    -0.208 OA 
HETATM   13  O   UNL     2     -11.524  16.190  68.092  1.00  0.00    -0.326 OA 
ENDBRANCH   5   9
ENDBRANCH   3   5
TORSDOF 3
ENDMDL
MODEL      155
REMARK 921   NORMALIZED FREE ENERGY PREDICTED BY IDOCK:   -2.34 KCAL/MOL
REMARK 922        TOTAL FREE ENERGY PREDICTED BY IDOCK:   -3.21 KCAL/MOL
REMARK 923 INTER-LIGAND FREE ENERGY PREDICTED BY IDOCK:   -2.90 KCAL/MOL
REMARK 924 INTRA-LIGAND FREE ENERGY PREDICTED BY IDOCK:   -0.31 KCAL/MOL
REMARK 927      BINDING AFFINITY PREDICTED BY RF-SCORE:    0.00 PKD
ROOT
HETATM    1 CA   UNL     1     -12.137  14.415  64.421  1.00  0.00    -0.352 Ca 
HETATM    2  O   UNL     2     -11.256  14.900  66.317  1.00  0.00    -0.340 OA 
HETATM    3  C   UNL     2      -9.930  14.287  66.287  1.00  0.00    -0.306 C  
HETATM    4  H   UNL     2     -11.214  15.835  66.153  1.00  0.00     0.000 HD 
ENDROOT
BRANCH   3   5
HETATM    5  C   UNL     2      -9.999  12.767  66.552  1.00  0.00    -0.253 C  
BRANCH   5   6
HETATM    6  C   UNL     2     -10.826  11.986  65.539  1.00  0.00    -0.292 C  
HETATM    7  H   UNL     2     -12.738  11.893  64.950  1.00  0.00     0.000 HD 
HETATM    8  O   UNL     2     -12.223  12.380  65.582  1.00  0.00    -0.599 OA 
ENDBRANCH   5   6
BRANCH   5   9
HETATM    9  O   UNL     2      -8.710  12.196  66.539  1.00  0.00    -0.189 OA 
HETATM   10  O   UNL     2      -9.657  11.207  68.326  1.00  0.00    -0.171 OA 
HETATM   11  P   UNL     2      -8.170  11.551  68.051  1.00  0.00    -0.159 P  
HETATM   12  O   UNL     2      -7.668  13.001  68.269  1.00  0.00    -0.125 OA 
HETATM   13  O   UNL     2      -7.686  10.975  69.404  1.00  0.00    -0.114 OA 
ENDBRANCH   5   9
ENDBRANCH   3   5
TORSDOF 3
ENDMDL
MODEL      156
REMARK 921   NORMALIZED FREE ENERGY PREDICTED BY IDOCK:   -2.33 KCAL/MOL
REMARK 922        TOTAL FREE ENERGY PREDICTED BY IDOCK:   -3.20 KCAL/MOL
REMARK 923 INTER-LIGAND FREE ENERGY PREDICTED BY IDOCK:   -2.96 KCAL/MOL
REMARK 924 INTRA-LIGAND FREE ENERGY PREDICTED BY IDOCK:   -0.24 KCAL/MOL
REMARK 927      BINDING AFFINITY PREDICTED BY RF-SCORE:    0.00 PKD
ROOT
HETATM    1 CA   UNL     1      -9.409  15.640  65.231  1.00  0.00    -0.275 Ca 
HETATM    2  O   UNL     2      -9.519  17.715  65.764  1.00  0.00    -0.516 OA 
HETATM    3  C   UNL     2      -8.464  17.908  66.756  1.00  0.00    -0.249 C  
HETATM    4  H   UNL     2      -9.259  18.037  64.908  1.00  0.00     0.000 HD 
ENDROOT
BRANCH   3   5
HETATM    5  C   UNL     2      -8.887  17.386  68.147  1.00  0.00    -0.253 C  
BRANCH   5   6
HETATM    6  C   UNL     2      -9.975  18.208  68.825  1.00  0.00    -0.375 C  
HETATM    7  H   UNL     2     -10.350  20.141  69.196  1.00  0.00     0.000 HD 
HETATM    8  O   UNL     2      -9.672  19.628  68.773  1.00  0.00    -0.403 OA 
ENDBRANCH   5   6
BRANCH   5   9
HETATM    9  O   UNL     2      -9.381  16.068  68.059  1.00  0.00    -0.200 OA 
HETATM   10  O   UNL     2      -7.731  15.865  69.577  1.00  0.00    -0.223 OA 
HETATM   11  P   UNL     2      -8.282  14.830  68.562  1.00  0.00    -0.164 P  
HETATM   12  O   UNL     2      -7.831  14.899  67.081  1.00  0.00    -0.200 OA 
HETATM   13  O   UNL     2      -7.297  13.722  69.011  1.00  0.00    -0.105 OA 
ENDBRANCH   5   9
ENDBRANCH   3   5
TORSDOF 3
ENDMDL
MODEL      157
REMARK 921   NORMALIZED FREE ENERGY PREDICTED BY IDOCK:   -2.32 KCAL/MOL
REMARK 922        TOTAL FREE ENERGY PREDICTED BY IDOCK:   -3.19 KCAL/MOL
REMARK 923 INTER-LIGAND FREE ENERGY PREDICTED BY IDOCK:   -2.78 KCAL/MOL
REMARK 924 INTRA-LIGAND FREE ENERGY PREDICTED BY IDOCK:   -0.41 KCAL/MOL
REMARK 927      BINDING AFFINITY PREDICTED BY RF-SCORE:    0.00 PKD
ROOT
HETATM    1 CA   UNL     1     -12.157   8.922  69.356  1.00  0.00    -0.400 Ca 
HETATM    2  O   UNL     2     -12.065  10.612  68.037  1.00  0.00    -0.755 OA 
HETATM    3  C   UNL     2     -10.753  10.524  67.399  1.00  0.00    -0.281 C  
HETATM    4  H   UNL     2     -12.756  10.307  67.461  1.00  0.00     0.000 HD 
ENDROOT
BRANCH   3   5
HETATM    5  C   UNL     2      -9.630  11.020  68.336  1.00  0.00    -0.181 C  
BRANCH   5   6
HETATM    6  C   UNL     2      -9.459  12.533  68.371  1.00  0.00    -0.167 C  
HETATM    7  H   UNL     2     -10.278  14.132  67.486  1.00  0.00     0.000 HD 
HETATM    8  O   UNL     2     -10.384  13.189  67.464  1.00  0.00    -0.222 OA 
ENDBRANCH   5   6
BRANCH   5   9
HETATM    9  O   UNL     2      -9.870  10.616  69.666  1.00  0.00    -0.158 OA 
HETATM   10  O   UNL     2      -7.776   9.872  69.306  1.00  0.00    -0.089 OA 
HETATM   11  P   UNL     2      -8.886   9.311  70.232  1.00  0.00    -0.249 P  
HETATM   12  O   UNL     2     -10.021   8.447  69.626  1.00  0.00    -0.185 OA 
HETATM   13  O   UNL     2      -8.005   8.142  70.739  1.00  0.00    -0.090 OA 
ENDBRANCH   5   9
ENDBRANCH   3   5
TORSDOF 3
ENDMDL
MODEL      158
REMARK 921   NORMALIZED FREE ENERGY PREDICTED BY IDOCK:   -2.32 KCAL/MOL
REMARK 922        TOTAL FREE ENERGY PREDICTED BY IDOCK:   -3.19 KCAL/MOL
REMARK 923 INTER-LIGAND FREE ENERGY PREDICTED BY IDOCK:   -3.44 KCAL/MOL
REMARK 924 INTRA-LIGAND FREE ENERGY PREDICTED BY IDOCK:    0.25 KCAL/MOL
REMARK 927      BINDING AFFINITY PREDICTED BY RF-SCORE:    0.00 PKD
ROOT
HETATM    1 CA   UNL     1      -8.724  12.671  65.807  1.00  0.00    -0.378 Ca 
HETATM    2  O   UNL     2     -10.608  12.562  66.827  1.00  0.00    -0.231 OA 
HETATM    3  C   UNL     2     -11.150  13.918  66.768  1.00  0.00    -0.303 C  
HETATM    4  H   UNL     2     -11.019  11.992  66.187  1.00  0.00     0.000 HD 
ENDROOT
BRANCH   3   5
HETATM    5  C   UNL     2     -10.483  14.844  67.810  1.00  0.00    -0.255 C  
BRANCH   5   6
HETATM    6  C   UNL     2      -9.473  15.824  67.227  1.00  0.00    -0.212 C  
HETATM    7  H   UNL     2      -9.078  16.655  65.448  1.00  0.00     0.000 HD 
HETATM    8  O   UNL     2      -9.708  16.044  65.811  1.00  0.00    -0.320 OA 
ENDBRANCH   5   6
BRANCH   5   9
HETATM    9  O   UNL     2     -11.448  15.620  68.482  1.00  0.00    -0.344 OA 
HETATM   10  O   UNL     2      -9.859  15.358  70.055  1.00  0.00    -0.259 OA 
HETATM   11  P   UNL     2     -11.391  15.539  70.210  1.00  0.00    -0.402 P  
HETATM   12  O   UNL     2     -12.329  14.326  69.991  1.00  0.00    -0.331 OA 
HETATM   13  O   UNL     2     -11.341  15.466  71.755  1.00  0.00    -0.401 OA 
ENDBRANCH   5   9
ENDBRANCH   3   5
TORSDOF 3
ENDMDL
MODEL      159
REMARK 921   NORMALIZED FREE ENERGY PREDICTED BY IDOCK:   -2.32 KCAL/MOL
REMARK 922        TOTAL FREE ENERGY PREDICTED BY IDOCK:   -3.19 KCAL/MOL
REMARK 923 INTER-LIGAND FREE ENERGY PREDICTED BY IDOCK:   -3.04 KCAL/MOL
REMARK 924 INTRA-LIGAND FREE ENERGY PREDICTED BY IDOCK:   -0.15 KCAL/MOL
REMARK 927      BINDING AFFINITY PREDICTED BY RF-SCORE:    0.00 PKD
ROOT
HETATM    1 CA   UNL     1      -7.159  14.409  68.118  1.00  0.00    -0.083 Ca 
HETATM    2  O   UNL     2      -8.524  15.683  67.061  1.00  0.00    -0.187 OA 
HETATM    3  C   UNL     2      -9.521  16.076  68.054  1.00  0.00    -0.207 C  
HETATM    4  H   UNL     2      -7.891  16.376  66.907  1.00  0.00     0.000 HD 
ENDROOT
BRANCH   3   5
HETATM    5  C   UNL     2     -10.550  14.950  68.304  1.00  0.00    -0.240 C  
BRANCH   5   6
HETATM    6  C   UNL     2     -11.064  14.873  69.736  1.00  0.00    -0.274 C  
HETATM    7  H   UNL     2     -11.388  16.133  71.259  1.00  0.00     0.000 HD 
HETATM    8  O   UNL     2     -11.067  16.182  70.367  1.00  0.00    -0.353 OA 
ENDBRANCH   5   6
BRANCH   5   9
HETATM    9  O   UNL     2     -11.684  15.115  67.483  1.00  0.00    -0.322 OA 
HETATM   10  O   UNL     2     -11.076  12.991  67.047  1.00  0.00    -0.267 OA 
HETATM   11  P   UNL     2     -11.789  14.028  66.141  1.00  0.00    -0.443 P  
HETATM   12  O   UNL     2     -10.956  15.126  65.434  1.00  0.00    -0.336 OA 
HETATM   13  O   UNL     2     -11.884  13.055  64.940  1.00  0.00    -0.328 OA 
ENDBRANCH   5   9
ENDBRANCH   3   5
TORSDOF 3
ENDMDL
MODEL      160
REMARK 921   NORMALIZED FREE ENERGY PREDICTED BY IDOCK:   -2.32 KCAL/MOL
REMARK 922        TOTAL FREE ENERGY PREDICTED BY IDOCK:   -3.18 KCAL/MOL
REMARK 923 INTER-LIGAND FREE ENERGY PREDICTED BY IDOCK:   -3.15 KCAL/MOL
REMARK 924 INTRA-LIGAND FREE ENERGY PREDICTED BY IDOCK:   -0.03 KCAL/MOL
REMARK 927      BINDING AFFINITY PREDICTED BY RF-SCORE:    0.00 PKD
ROOT
HETATM    1 CA   UNL     1     -13.005  12.194  70.689  1.00  0.00    -0.276 Ca 
HETATM    2  O   UNL     2     -13.290  10.072  70.545  1.00  0.00    -0.605 OA 
HETATM    3  C   UNL     2     -12.381   9.500  71.536  1.00  0.00    -0.380 C  
HETATM    4  H   UNL     2     -14.187  10.086  70.859  1.00  0.00     0.000 HD 
ENDROOT
BRANCH   3   5
HETATM    5  C   UNL     2     -10.923   9.478  71.026  1.00  0.00    -0.353 C  
BRANCH   5   6
HETATM    6  C   UNL     2      -9.962   8.681  71.898  1.00  0.00    -0.322 C  
HETATM    7  H   UNL     2      -9.587   6.756  72.306  1.00  0.00     0.000 HD 
HETATM    8  O   UNL     2     -10.186   7.253  71.762  1.00  0.00    -0.194 OA 
ENDBRANCH   5   6
BRANCH   5   9
HETATM    9  O   UNL     2     -10.851   8.912  69.736  1.00  0.00    -0.235 OA 
HETATM   10  O   UNL     2      -9.221  10.463  69.674  1.00  0.00    -0.169 OA 
HETATM   11  P   UNL     2     -10.110   9.908  68.531  1.00  0.00    -0.185 P  
HETATM   12  O   UNL     2     -11.554  10.441  68.359  1.00  0.00    -0.277 OA 
HETATM   13  O   UNL     2      -9.446  10.799  67.453  1.00  0.00    -0.154 OA 
ENDBRANCH   5   9
ENDBRANCH   3   5
TORSDOF 3
ENDMDL
MODEL      161
REMARK 921   NORMALIZED FREE ENERGY PREDICTED BY IDOCK:   -2.32 KCAL/MOL
REMARK 922        TOTAL FREE ENERGY PREDICTED BY IDOCK:   -3.18 KCAL/MOL
REMARK 923 INTER-LIGAND FREE ENERGY PREDICTED BY IDOCK:   -2.75 KCAL/MOL
REMARK 924 INTRA-LIGAND FREE ENERGY PREDICTED BY IDOCK:   -0.43 KCAL/MOL
REMARK 927      BINDING AFFINITY PREDICTED BY RF-SCORE:    0.00 PKD
ROOT
HETATM    1 CA   UNL     1     -12.185   6.644  67.432  1.00  0.00    -0.636 Ca 
HETATM    2  O   UNL     2     -11.713   6.528  69.522  1.00  0.00    -0.640 OA 
HETATM    3  C   UNL     2     -10.707   7.565  69.741  1.00  0.00    -0.242 C  
HETATM    4  H   UNL     2     -12.572   6.805  69.818  1.00  0.00     0.000 HD 
ENDROOT
BRANCH   3   5
HETATM    5  C   UNL     2      -9.310   7.114  69.259  1.00  0.00    -0.146 C  
BRANCH   5   6
HETATM    6  C   UNL     2      -8.674   6.018  70.105  1.00  0.00    -0.139 C  
HETATM    7  H   UNL     2      -8.991   4.078  70.489  1.00  0.00     0.000 HD 
HETATM    8  O   UNL     2      -9.387   4.761  69.962  1.00  0.00    -0.122 OA 
ENDBRANCH   5   6
BRANCH   5   9
HETATM    9  O   UNL     2      -9.370   6.616  67.942  1.00  0.00    -0.113 OA 
HETATM   10  O   UNL     2      -7.879   8.292  67.756  1.00  0.00    -0.110 OA 
HETATM   11  P   UNL     2      -8.870   7.721  66.708  1.00  0.00    -0.153 P  
HETATM   12  O   UNL     2     -10.359   8.145  66.755  1.00  0.00    -0.311 OA 
HETATM   13  O   UNL     2      -8.423   8.710  65.604  1.00  0.00    -0.138 OA 
ENDBRANCH   5   9
ENDBRANCH   3   5
TORSDOF 3
ENDMDL
MODEL      162
REMARK 921   NORMALIZED FREE ENERGY PREDICTED BY IDOCK:   -2.31 KCAL/MOL
REMARK 922        TOTAL FREE ENERGY PREDICTED BY IDOCK:   -3.18 KCAL/MOL
REMARK 923 INTER-LIGAND FREE ENERGY PREDICTED BY IDOCK:   -2.90 KCAL/MOL
REMARK 924 INTRA-LIGAND FREE ENERGY PREDICTED BY IDOCK:   -0.27 KCAL/MOL
REMARK 927      BINDING AFFINITY PREDICTED BY RF-SCORE:    0.00 PKD
ROOT
HETATM    1 CA   UNL     1     -12.069   6.784  67.117  1.00  0.00    -0.694 Ca 
HETATM    2  O   UNL     2     -11.150   8.645  67.662  1.00  0.00    -0.474 OA 
HETATM    3  C   UNL     2      -9.749   8.316  67.914  1.00  0.00    -0.161 C  
HETATM    4  H   UNL     2     -11.267   9.050  66.810  1.00  0.00     0.000 HD 
ENDROOT
BRANCH   3   5
HETATM    5  C   UNL     2      -9.559   7.658  69.299  1.00  0.00    -0.159 C  
BRANCH   5   6
HETATM    6  C   UNL     2     -10.195   6.281  69.436  1.00  0.00    -0.193 C  
HETATM    7  H   UNL     2     -12.028   5.522  69.713  1.00  0.00     0.000 HD 
HETATM    8  O   UNL     2     -11.632   6.381  69.628  1.00  0.00    -0.417 OA 
ENDBRANCH   5   6
BRANCH   5   9
HETATM    9  O   UNL     2      -8.189   7.494  69.593  1.00  0.00    -0.125 OA 
HETATM   10  O   UNL     2      -8.879   8.855  71.248  1.00  0.00    -0.206 OA 
HETATM   11  P   UNL     2      -7.488   8.737  70.572  1.00  0.00    -0.100 P  
HETATM   12  O   UNL     2      -7.247   9.414  69.199  1.00  0.00    -0.064 OA 
HETATM   13  O   UNL     2      -6.861   9.849  71.447  1.00  0.00    -0.310 OA 
ENDBRANCH   5   9
ENDBRANCH   3   5
TORSDOF 3
ENDMDL
MODEL      163
REMARK 921   NORMALIZED FREE ENERGY PREDICTED BY IDOCK:   -2.29 KCAL/MOL
REMARK 922        TOTAL FREE ENERGY PREDICTED BY IDOCK:   -3.15 KCAL/MOL
REMARK 923 INTER-LIGAND FREE ENERGY PREDICTED BY IDOCK:   -2.87 KCAL/MOL
REMARK 924 INTRA-LIGAND FREE ENERGY PREDICTED BY IDOCK:   -0.27 KCAL/MOL
REMARK 927      BINDING AFFINITY PREDICTED BY RF-SCORE:    0.00 PKD
ROOT
HETATM    1 CA   UNL     1      -6.820  14.695  68.882  1.00  0.00    -0.083 Ca 
HETATM    2  O   UNL     2      -8.816  15.293  69.394  1.00  0.00    -0.245 OA 
HETATM    3  C   UNL     2      -9.303  16.024  68.226  1.00  0.00    -0.199 C  
HETATM    4  H   UNL     2      -9.164  14.409  69.424  1.00  0.00     0.000 HD 
ENDROOT
BRANCH   3   5
HETATM    5  C   UNL     2      -8.738  17.461  68.177  1.00  0.00    -0.256 C  
BRANCH   5   6
HETATM    6  C   UNL     2      -7.392  17.634  68.870  1.00  0.00    -0.239 C  
HETATM    7  H   UNL     2      -5.515  16.976  68.634  1.00  0.00     0.000 HD 
HETATM    8  O   UNL     2      -6.354  16.868  68.202  1.00  0.00    -0.135 OA 
ENDBRANCH   5   6
BRANCH   5   9
HETATM    9  O   UNL     2      -8.557  17.884  66.844  1.00  0.00    -0.231 OA 
HETATM   10  O   UNL     2      -9.917  19.474  67.674  1.00  0.00    -0.339 OA 
HETATM   11  P   UNL     2      -9.785  18.933  66.226  1.00  0.00    -0.230 P  
HETATM   12  O   UNL     2     -10.467  17.595  65.847  1.00  0.00    -0.476 OA 
HETATM   13  O   UNL     2     -10.885  19.872  65.674  1.00  0.00    -0.437 OA 
ENDBRANCH   5   9
ENDBRANCH   3   5
TORSDOF 3
ENDMDL
MODEL      164
REMARK 921   NORMALIZED FREE ENERGY PREDICTED BY IDOCK:   -2.28 KCAL/MOL
REMARK 922        TOTAL FREE ENERGY PREDICTED BY IDOCK:   -3.13 KCAL/MOL
REMARK 923 INTER-LIGAND FREE ENERGY PREDICTED BY IDOCK:   -2.86 KCAL/MOL
REMARK 924 INTRA-LIGAND FREE ENERGY PREDICTED BY IDOCK:   -0.28 KCAL/MOL
REMARK 927      BINDING AFFINITY PREDICTED BY RF-SCORE:    0.00 PKD
ROOT
HETATM    1 CA   UNL     1     -10.627  18.678  66.663  1.00  0.00    -0.315 Ca 
HETATM    2  O   UNL     2      -9.506  17.297  65.464  1.00  0.00    -0.422 OA 
HETATM    3  C   UNL     2      -8.590  16.643  66.395  1.00  0.00    -0.310 C  
HETATM    4  H   UNL     2     -10.250  16.742  65.256  1.00  0.00     0.000 HD 
ENDROOT
BRANCH   3   5
HETATM    5  C   UNL     2      -7.381  17.543  66.732  1.00  0.00    -0.215 C  
BRANCH   5   6
HETATM    6  C   UNL     2      -7.202  18.735  65.800  1.00  0.00    -0.199 C  
HETATM    7  H   UNL     2      -8.172  20.435  65.373  1.00  0.00     0.000 HD 
HETATM    8  O   UNL     2      -8.284  19.692  65.954  1.00  0.00    -0.380 OA 
ENDBRANCH   5   6
BRANCH   5   9
HETATM    9  O   UNL     2      -7.496  18.072  68.034  1.00  0.00    -0.226 OA 
HETATM   10  O   UNL     2      -5.365  17.348  67.994  1.00  0.00    -0.128 OA 
HETATM   11  P   UNL     2      -6.354  17.465  69.183  1.00  0.00    -0.245 P  
HETATM   12  O   UNL     2      -7.433  16.373  69.390  1.00  0.00    -0.231 OA 
HETATM   13  O   UNL     2      -5.332  16.922  70.212  1.00  0.00    -0.186 OA 
ENDBRANCH   5   9
ENDBRANCH   3   5
TORSDOF 3
ENDMDL
MODEL      165
REMARK 921   NORMALIZED FREE ENERGY PREDICTED BY IDOCK:   -2.27 KCAL/MOL
REMARK 922        TOTAL FREE ENERGY PREDICTED BY IDOCK:   -3.13 KCAL/MOL
REMARK 923 INTER-LIGAND FREE ENERGY PREDICTED BY IDOCK:   -2.72 KCAL/MOL
REMARK 924 INTRA-LIGAND FREE ENERGY PREDICTED BY IDOCK:   -0.41 KCAL/MOL
REMARK 927      BINDING AFFINITY PREDICTED BY RF-SCORE:    0.00 PKD
ROOT
HETATM    1 CA   UNL     1      -8.315  18.366  67.251  1.00  0.00    -0.227 Ca 
HETATM    2  O   UNL     2     -10.385  17.897  66.938  1.00  0.00    -0.341 OA 
HETATM    3  C   UNL     2     -10.619  16.679  67.711  1.00  0.00    -0.342 C  
HETATM    4  H   UNL     2     -10.715  18.666  67.387  1.00  0.00     0.000 HD 
ENDROOT
BRANCH   3   5
HETATM    5  C   UNL     2     -10.082  15.428  66.980  1.00  0.00    -0.249 C  
BRANCH   5   6
HETATM    6  C   UNL     2     -10.884  15.024  65.750  1.00  0.00    -0.350 C  
HETATM    7  H   UNL     2     -11.744  15.931  64.184  1.00  0.00     0.000 HD 
HETATM    8  O   UNL     2     -11.244  16.183  64.951  1.00  0.00    -0.376 OA 
ENDBRANCH   5   6
BRANCH   5   9
HETATM    9  O   UNL     2      -8.758  15.632  66.543  1.00  0.00    -0.260 OA 
HETATM   10  O   UNL     2      -8.562  13.800  67.837  1.00  0.00    -0.160 OA 
HETATM   11  P   UNL     2      -7.532  14.920  67.535  1.00  0.00    -0.180 P  
HETATM   12  O   UNL     2      -7.630  16.270  68.289  1.00  0.00    -0.144 OA 
HETATM   13  O   UNL     2      -6.436  14.283  68.423  1.00  0.00    -0.090 OA 
ENDBRANCH   5   9
ENDBRANCH   3   5
TORSDOF 3
ENDMDL
MODEL      166
REMARK 921   NORMALIZED FREE ENERGY PREDICTED BY IDOCK:   -2.26 KCAL/MOL
REMARK 922        TOTAL FREE ENERGY PREDICTED BY IDOCK:   -3.11 KCAL/MOL
REMARK 923 INTER-LIGAND FREE ENERGY PREDICTED BY IDOCK:   -2.81 KCAL/MOL
REMARK 924 INTRA-LIGAND FREE ENERGY PREDICTED BY IDOCK:   -0.30 KCAL/MOL
REMARK 927      BINDING AFFINITY PREDICTED BY RF-SCORE:    0.00 PKD
ROOT
HETATM    1 CA   UNL     1     -11.848   5.510  65.468  1.00  0.00    -0.695 Ca 
HETATM    2  O   UNL     2     -11.615   6.543  67.333  1.00  0.00    -0.719 OA 
HETATM    3  C   UNL     2     -10.762   7.689  67.028  1.00  0.00    -0.270 C  
HETATM    4  H   UNL     2     -12.529   6.795  67.405  1.00  0.00     0.000 HD 
ENDROOT
BRANCH   3   5
HETATM    5  C   UNL     2      -9.277   7.280  66.912  1.00  0.00    -0.152 C  
BRANCH   5   6
HETATM    6  C   UNL     2      -9.009   5.801  67.161  1.00  0.00    -0.113 C  
HETATM    7  H   UNL     2      -9.368   4.060  66.238  1.00  0.00     0.000 HD 
HETATM    8  O   UNL     2      -9.535   4.982  66.083  1.00  0.00    -0.144 OA 
ENDBRANCH   5   6
BRANCH   5   9
HETATM    9  O   UNL     2      -8.778   7.563  65.624  1.00  0.00    -0.144 OA 
HETATM   10  O   UNL     2      -7.457   8.823  66.942  1.00  0.00    -0.088 OA 
HETATM   11  P   UNL     2      -7.912   9.054  65.477  1.00  0.00    -0.116 P  
HETATM   12  O   UNL     2      -9.325   9.624  65.198  1.00  0.00    -0.233 OA 
HETATM   13  O   UNL     2      -7.137  10.388  65.346  1.00  0.00    -0.139 OA 
ENDBRANCH   5   9
ENDBRANCH   3   5
TORSDOF 3
ENDMDL
MODEL      167
REMARK 921   NORMALIZED FREE ENERGY PREDICTED BY IDOCK:   -2.25 KCAL/MOL
REMARK 922        TOTAL FREE ENERGY PREDICTED BY IDOCK:   -3.11 KCAL/MOL
REMARK 923 INTER-LIGAND FREE ENERGY PREDICTED BY IDOCK:   -2.82 KCAL/MOL
REMARK 924 INTRA-LIGAND FREE ENERGY PREDICTED BY IDOCK:   -0.28 KCAL/MOL
REMARK 927      BINDING AFFINITY PREDICTED BY RF-SCORE:    0.00 PKD
ROOT
HETATM    1 CA   UNL     1     -12.225   6.704  68.545  1.00  0.00    -0.544 Ca 
HETATM    2  O   UNL     2     -10.170   6.089  68.580  1.00  0.00    -0.153 OA 
HETATM    3  C   UNL     2     -10.154   4.869  69.384  1.00  0.00    -0.200 C  
HETATM    4  H   UNL     2     -10.124   5.896  67.650  1.00  0.00     0.000 HD 
ENDROOT
BRANCH   3   5
HETATM    5  C   UNL     2     -10.229   5.181  70.895  1.00  0.00    -0.229 C  
BRANCH   5   6
HETATM    6  C   UNL     2      -9.352   4.292  71.767  1.00  0.00    -0.137 C  
HETATM    7  H   UNL     2      -9.366   2.404  72.435  1.00  0.00     0.000 HD 
HETATM    8  O   UNL     2      -9.912   2.958  71.891  1.00  0.00    -0.170 OA 
ENDBRANCH   5   6
BRANCH   5   9
HETATM    9  O   UNL     2      -9.831   6.509  71.153  1.00  0.00    -0.181 OA 
HETATM   10  O   UNL     2     -11.459   6.188  72.675  1.00  0.00    -0.276 OA 
HETATM   11  P   UNL     2     -11.004   7.489  71.964  1.00  0.00    -0.272 P  
HETATM   12  O   UNL     2     -11.480   7.775  70.518  1.00  0.00    -0.271 OA 
HETATM   13  O   UNL     2     -12.054   8.366  72.688  1.00  0.00    -0.390 OA 
ENDBRANCH   5   9
ENDBRANCH   3   5
TORSDOF 3
ENDMDL
MODEL      168
REMARK 921   NORMALIZED FREE ENERGY PREDICTED BY IDOCK:   -2.25 KCAL/MOL
REMARK 922        TOTAL FREE ENERGY PREDICTED BY IDOCK:   -3.10 KCAL/MOL
REMARK 923 INTER-LIGAND FREE ENERGY PREDICTED BY IDOCK:   -2.75 KCAL/MOL
REMARK 924 INTRA-LIGAND FREE ENERGY PREDICTED BY IDOCK:   -0.35 KCAL/MOL
REMARK 927      BINDING AFFINITY PREDICTED BY RF-SCORE:    0.00 PKD
ROOT
HETATM    1 CA   UNL     1     -10.834  13.867  67.910  1.00  0.00    -0.223 Ca 
HETATM    2  O   UNL     2      -9.227  12.707  68.730  1.00  0.00    -0.397 OA 
HETATM    3  C   UNL     2      -9.541  11.324  68.378  1.00  0.00    -0.195 C  
HETATM    4  H   UNL     2      -8.560  13.071  68.159  1.00  0.00     0.000 HD 
ENDROOT
BRANCH   3   5
HETATM    5  C   UNL     2     -10.625  10.732  69.305  1.00  0.00    -0.229 C  
BRANCH   5   6
HETATM    6  C   UNL     2     -11.979  11.423  69.214  1.00  0.00    -0.332 C  
HETATM    7  H   UNL     2     -12.786  13.171  69.766  1.00  0.00     0.000 HD 
HETATM    8  O   UNL     2     -11.941  12.741  69.823  1.00  0.00    -0.314 OA 
ENDBRANCH   5   6
BRANCH   5   9
HETATM    9  O   UNL     2     -10.851   9.372  69.009  1.00  0.00    -0.211 OA 
HETATM   10  O   UNL     2     -10.618   9.345  71.248  1.00  0.00    -0.313 OA 
HETATM   11  P   UNL     2     -10.288   8.251  70.200  1.00  0.00    -0.219 P  
HETATM   12  O   UNL     2      -8.973   8.345  69.386  1.00  0.00    -0.150 OA 
HETATM   13  O   UNL     2      -9.783   7.247  71.265  1.00  0.00    -0.167 OA 
ENDBRANCH   5   9
ENDBRANCH   3   5
TORSDOF 3
ENDMDL
MODEL      169
REMARK 921   NORMALIZED FREE ENERGY PREDICTED BY IDOCK:   -2.25 KCAL/MOL
REMARK 922        TOTAL FREE ENERGY PREDICTED BY IDOCK:   -3.10 KCAL/MOL
REMARK 923 INTER-LIGAND FREE ENERGY PREDICTED BY IDOCK:   -2.81 KCAL/MOL
REMARK 924 INTRA-LIGAND FREE ENERGY PREDICTED BY IDOCK:   -0.29 KCAL/MOL
REMARK 927      BINDING AFFINITY PREDICTED BY RF-SCORE:    0.00 PKD
ROOT
HETATM    1 CA   UNL     1      -6.866  10.680  64.792  1.00  0.00    -0.125 Ca 
HETATM    2  O   UNL     2      -7.438  12.053  66.338  1.00  0.00    -0.367 OA 
HETATM    3  C   UNL     2      -8.709  11.542  66.847  1.00  0.00    -0.181 C  
HETATM    4  H   UNL     2      -6.716  11.835  66.916  1.00  0.00     0.000 HD 
ENDROOT
BRANCH   3   5
HETATM    5  C   UNL     2      -9.883  11.895  65.908  1.00  0.00    -0.237 C  
BRANCH   5   6
HETATM    6  C   UNL     2     -10.187  10.839  64.853  1.00  0.00    -0.320 C  
HETATM    7  H   UNL     2      -9.158   9.669  63.595  1.00  0.00     0.000 HD 
HETATM    8  O   UNL     2      -8.968  10.327  64.252  1.00  0.00    -0.195 OA 
ENDBRANCH   5   6
BRANCH   5   9
HETATM    9  O   UNL     2     -11.073  12.081  66.640  1.00  0.00    -0.278 OA 
HETATM   10  O   UNL     2     -10.947  13.978  65.434  1.00  0.00    -0.302 OA 
HETATM   11  P   UNL     2     -11.577  13.725  66.829  1.00  0.00    -0.416 P  
HETATM   12  O   UNL     2     -10.664  13.659  68.078  1.00  0.00    -0.238 OA 
HETATM   13  O   UNL     2     -12.028  15.197  66.998  1.00  0.00    -0.147 OA 
ENDBRANCH   5   9
ENDBRANCH   3   5
TORSDOF 3
ENDMDL
MODEL      170
REMARK 921   NORMALIZED FREE ENERGY PREDICTED BY IDOCK:   -2.23 KCAL/MOL
REMARK 922        TOTAL FREE ENERGY PREDICTED BY IDOCK:   -3.08 KCAL/MOL
REMARK 923 INTER-LIGAND FREE ENERGY PREDICTED BY IDOCK:   -2.77 KCAL/MOL
REMARK 924 INTRA-LIGAND FREE ENERGY PREDICTED BY IDOCK:   -0.31 KCAL/MOL
REMARK 927      BINDING AFFINITY PREDICTED BY RF-SCORE:    0.00 PKD
ROOT
HETATM    1 CA   UNL     1      -9.884  17.226  69.624  1.00  0.00    -0.230 Ca 
HETATM    2  O   UNL     2      -9.263  15.240  70.143  1.00  0.00    -0.368 OA 
HETATM    3  C   UNL     2      -9.118  14.542  68.867  1.00  0.00    -0.111 C  
HETATM    4  H   UNL     2      -8.420  15.504  70.496  1.00  0.00     0.000 HD 
ENDROOT
BRANCH   3   5
HETATM    5  C   UNL     2     -10.487  14.113  68.295  1.00  0.00    -0.249 C  
BRANCH   5   6
HETATM    6  C   UNL     2     -11.198  15.189  67.485  1.00  0.00    -0.330 C  
HETATM    7  H   UNL     2     -10.947  17.133  67.071  1.00  0.00     0.000 HD 
HETATM    8  O   UNL     2     -10.504  16.462  67.576  1.00  0.00    -0.293 OA 
ENDBRANCH   5   6
BRANCH   5   9
HETATM    9  O   UNL     2     -10.347  13.000  67.440  1.00  0.00    -0.232 OA 
HETATM   10  O   UNL     2     -11.920  12.300  68.891  1.00  0.00    -0.308 OA 
HETATM   11  P   UNL     2     -10.858  11.487  68.105  1.00  0.00    -0.255 P  
HETATM   12  O   UNL     2      -9.397  11.441  68.620  1.00  0.00    -0.185 OA 
HETATM   13  O   UNL     2     -11.314  10.132  68.701  1.00  0.00    -0.206 OA 
ENDBRANCH   5   9
ENDBRANCH   3   5
TORSDOF 3
ENDMDL
MODEL      171
REMARK 921   NORMALIZED FREE ENERGY PREDICTED BY IDOCK:   -2.23 KCAL/MOL
REMARK 922        TOTAL FREE ENERGY PREDICTED BY IDOCK:   -3.08 KCAL/MOL
REMARK 923 INTER-LIGAND FREE ENERGY PREDICTED BY IDOCK:   -3.12 KCAL/MOL
REMARK 924 INTRA-LIGAND FREE ENERGY PREDICTED BY IDOCK:    0.05 KCAL/MOL
REMARK 927      BINDING AFFINITY PREDICTED BY RF-SCORE:    0.00 PKD
ROOT
HETATM    1 CA   UNL     1     -12.153  10.254  68.384  1.00  0.00    -0.466 Ca 
HETATM    2  O   UNL     2     -11.027   8.670  67.475  1.00  0.00    -0.488 OA 
HETATM    3  C   UNL     2      -9.629   9.073  67.612  1.00  0.00    -0.150 C  
HETATM    4  H   UNL     2     -11.268   8.014  68.119  1.00  0.00     0.000 HD 
ENDROOT
BRANCH   3   5
HETATM    5  C   UNL     2      -9.238  10.138  66.564  1.00  0.00    -0.153 C  
BRANCH   5   6
HETATM    6  C   UNL     2      -8.073   9.743  65.666  1.00  0.00    -0.120 C  
HETATM    7  H   UNL     2      -7.614   9.830  63.718  1.00  0.00     0.000 HD 
HETATM    8  O   UNL     2      -8.340  10.077  64.278  1.00  0.00    -0.151 OA 
ENDBRANCH   5   6
BRANCH   5   9
HETATM    9  O   UNL     2     -10.321  10.422  65.708  1.00  0.00    -0.248 OA 
HETATM   10  O   UNL     2      -9.401  12.454  66.011  1.00  0.00    -0.209 OA 
HETATM   11  P   UNL     2     -10.875  12.061  65.733  1.00  0.00    -0.305 P  
HETATM   12  O   UNL     2     -11.759  11.542  66.894  1.00  0.00    -0.533 OA 
HETATM   13  O   UNL     2     -11.371  13.528  65.756  1.00  0.00    -0.302 OA 
ENDBRANCH   5   9
ENDBRANCH   3   5
TORSDOF 3
ENDMDL
MODEL      172
REMARK 921   NORMALIZED FREE ENERGY PREDICTED BY IDOCK:   -2.22 KCAL/MOL
REMARK 922        TOTAL FREE ENERGY PREDICTED BY IDOCK:   -3.07 KCAL/MOL
REMARK 923 INTER-LIGAND FREE ENERGY PREDICTED BY IDOCK:   -3.14 KCAL/MOL
REMARK 924 INTRA-LIGAND FREE ENERGY PREDICTED BY IDOCK:    0.07 KCAL/MOL
REMARK 927      BINDING AFFINITY PREDICTED BY RF-SCORE:    0.00 PKD
ROOT
HETATM    1 CA   UNL     1      -6.898   9.710  68.738  1.00  0.00    -0.048 Ca 
HETATM    2  O   UNL     2      -7.887  10.086  70.604  1.00  0.00    -0.412 OA 
HETATM    3  C   UNL     2      -9.142   9.341  70.525  1.00  0.00    -0.259 C  
HETATM    4  H   UNL     2      -7.243   9.632  71.135  1.00  0.00     0.000 HD 
ENDROOT
BRANCH   3   5
HETATM    5  C   UNL     2     -10.190  10.079  69.662  1.00  0.00    -0.239 C  
BRANCH   5   6
HETATM    6  C   UNL     2      -9.923  10.028  68.163  1.00  0.00    -0.153 C  
HETATM    7  H   UNL     2     -10.979  10.188  66.469  1.00  0.00     0.000 HD 
HETATM    8  O   UNL     2     -11.146  10.221  67.403  1.00  0.00    -0.291 OA 
ENDBRANCH   5   6
BRANCH   5   9
HETATM    9  O   UNL     2     -11.475   9.533  69.857  1.00  0.00    -0.184 OA 
HETATM   10  O   UNL     2     -11.754  11.668  70.514  1.00  0.00    -0.292 OA 
HETATM   11  P   UNL     2     -12.476  10.379  70.986  1.00  0.00    -0.452 P  
HETATM   12  O   UNL     2     -11.781   9.444  72.007  1.00  0.00    -0.355 OA 
HETATM   13  O   UNL     2     -13.372  11.136  71.997  1.00  0.00    -0.454 OA 
ENDBRANCH   5   9
ENDBRANCH   3   5
TORSDOF 3
ENDMDL
MODEL      173
REMARK 921   NORMALIZED FREE ENERGY PREDICTED BY IDOCK:   -2.21 KCAL/MOL
REMARK 922        TOTAL FREE ENERGY PREDICTED BY IDOCK:   -3.05 KCAL/MOL
REMARK 923 INTER-LIGAND FREE ENERGY PREDICTED BY IDOCK:   -2.76 KCAL/MOL
REMARK 924 INTRA-LIGAND FREE ENERGY PREDICTED BY IDOCK:   -0.29 KCAL/MOL
REMARK 927      BINDING AFFINITY PREDICTED BY RF-SCORE:    0.00 PKD
ROOT
HETATM    1 CA   UNL     1     -10.247   4.822  67.483  1.00  0.00    -0.155 Ca 
HETATM    2  O   UNL     2     -11.523   6.518  67.166  1.00  0.00    -0.768 OA 
HETATM    3  C   UNL     2     -10.629   7.674  67.193  1.00  0.00    -0.340 C  
HETATM    4  H   UNL     2     -11.761   6.280  66.278  1.00  0.00     0.000 HD 
ENDROOT
BRANCH   3   5
HETATM    5  C   UNL     2     -10.241   8.062  68.637  1.00  0.00    -0.206 C  
BRANCH   5   6
HETATM    6  C   UNL     2     -10.111   9.561  68.875  1.00  0.00    -0.188 C  
HETATM    7  H   UNL     2      -8.669  10.948  68.799  1.00  0.00     0.000 HD 
HETATM    8  O   UNL     2      -8.749  10.014  68.651  1.00  0.00    -0.119 OA 
ENDBRANCH   5   6
BRANCH   5   9
HETATM    9  O   UNL     2     -11.201   7.595  69.557  1.00  0.00    -0.089 OA 
HETATM   10  O   UNL     2      -9.279   7.364  70.707  1.00  0.00    -0.158 OA 
HETATM   11  P   UNL     2     -10.595   6.546  70.793  1.00  0.00    -0.256 P  
HETATM   12  O   UNL     2     -10.883   5.451  69.736  1.00  0.00    -0.297 OA 
HETATM   13  O   UNL     2     -10.052   5.608  71.898  1.00  0.00    -0.179 OA 
ENDBRANCH   5   9
ENDBRANCH   3   5
TORSDOF 3
ENDMDL
MODEL      174
REMARK 921   NORMALIZED FREE ENERGY PREDICTED BY IDOCK:   -2.20 KCAL/MOL
REMARK 922        TOTAL FREE ENERGY PREDICTED BY IDOCK:   -3.04 KCAL/MOL
REMARK 923 INTER-LIGAND FREE ENERGY PREDICTED BY IDOCK:   -2.61 KCAL/MOL
REMARK 924 INTRA-LIGAND FREE ENERGY PREDICTED BY IDOCK:   -0.43 KCAL/MOL
REMARK 927      BINDING AFFINITY PREDICTED BY RF-SCORE:    0.00 PKD
ROOT
HETATM    1 CA   UNL     1      -7.627  16.438  65.772  1.00  0.00    -0.251 Ca 
HETATM    2  O   UNL     2      -5.723  17.425  65.736  1.00  0.00    -0.200 OA 
HETATM    3  C   UNL     2      -5.521  17.906  67.101  1.00  0.00    -0.138 C  
HETATM    4  H   UNL     2      -5.222  16.636  65.565  1.00  0.00     0.000 HD 
ENDROOT
BRANCH   3   5
HETATM    5  C   UNL     2      -6.335  19.189  67.379  1.00  0.00    -0.184 C  
BRANCH   5   6
HETATM    6  C   UNL     2      -5.711  20.465  66.829  1.00  0.00    -0.171 C  
HETATM    7  H   UNL     2      -5.402  21.304  65.037  1.00  0.00     0.000 HD 
HETATM    8  O   UNL     2      -5.791  20.509  65.380  1.00  0.00    -0.188 OA 
ENDBRANCH   5   6
BRANCH   5   9
HETATM    9  O   UNL     2      -7.622  19.100  66.811  1.00  0.00    -0.227 OA 
HETATM   10  O   UNL     2      -8.078  19.567  68.965  1.00  0.00    -0.348 OA 
HETATM   11  P   UNL     2      -8.903  18.765  67.925  1.00  0.00    -0.312 P  
HETATM   12  O   UNL     2      -8.523  17.294  67.621  1.00  0.00    -0.205 OA 
HETATM   13  O   UNL     2     -10.048  18.464  68.923  1.00  0.00    -0.388 OA 
ENDBRANCH   5   9
ENDBRANCH   3   5
TORSDOF 3
ENDMDL
MODEL      175
REMARK 921   NORMALIZED FREE ENERGY PREDICTED BY IDOCK:   -2.17 KCAL/MOL
REMARK 922        TOTAL FREE ENERGY PREDICTED BY IDOCK:   -3.01 KCAL/MOL
REMARK 923 INTER-LIGAND FREE ENERGY PREDICTED BY IDOCK:   -2.87 KCAL/MOL
REMARK 924 INTRA-LIGAND FREE ENERGY PREDICTED BY IDOCK:   -0.14 KCAL/MOL
REMARK 927      BINDING AFFINITY PREDICTED BY RF-SCORE:    0.00 PKD
ROOT
HETATM    1 CA   UNL     1     -12.005  16.137  69.343  1.00  0.00    -0.287 Ca 
HETATM    2  O   UNL     2     -10.360  14.781  69.584  1.00  0.00    -0.378 OA 
HETATM    3  C   UNL     2      -9.203  15.488  69.038  1.00  0.00    -0.238 C  
HETATM    4  H   UNL     2     -10.369  14.804  70.534  1.00  0.00     0.000 HD 
ENDROOT
BRANCH   3   5
HETATM    5  C   UNL     2      -9.188  15.449  67.494  1.00  0.00    -0.199 C  
BRANCH   5   6
HETATM    6  C   UNL     2      -8.311  16.512  66.845  1.00  0.00    -0.212 C  
HETATM    7  H   UNL     2      -8.562  18.276  65.930  1.00  0.00     0.000 HD 
HETATM    8  O   UNL     2      -9.109  17.614  66.334  1.00  0.00    -0.290 OA 
ENDBRANCH   5   6
BRANCH   5   9
HETATM    9  O   UNL     2      -8.716  14.205  67.027  1.00  0.00    -0.214 OA 
HETATM   10  O   UNL     2     -10.603  14.485  65.831  1.00  0.00    -0.289 OA 
HETATM   11  P   UNL     2      -9.912  13.181  66.309  1.00  0.00    -0.275 P  
HETATM   12  O   UNL     2     -10.105  12.708  67.772  1.00  0.00    -0.210 OA 
HETATM   13  O   UNL     2     -10.982  12.265  65.667  1.00  0.00    -0.280 OA 
ENDBRANCH   5   9
ENDBRANCH   3   5
TORSDOF 3
ENDMDL
MODEL      176
REMARK 921   NORMALIZED FREE ENERGY PREDICTED BY IDOCK:   -2.17 KCAL/MOL
REMARK 922        TOTAL FREE ENERGY PREDICTED BY IDOCK:   -3.01 KCAL/MOL
REMARK 923 INTER-LIGAND FREE ENERGY PREDICTED BY IDOCK:   -2.85 KCAL/MOL
REMARK 924 INTRA-LIGAND FREE ENERGY PREDICTED BY IDOCK:   -0.16 KCAL/MOL
REMARK 927      BINDING AFFINITY PREDICTED BY RF-SCORE:    0.00 PKD
ROOT
HETATM    1 CA   UNL     1      -7.763   8.409  65.878  1.00  0.00    -0.074 Ca 
HETATM    2  O   UNL     2      -9.784   8.739  65.238  1.00  0.00    -0.399 OA 
HETATM    3  C   UNL     2      -9.921  10.191  65.150  1.00  0.00    -0.309 C  
HETATM    4  H   UNL     2      -9.666   8.346  64.380  1.00  0.00     0.000 HD 
ENDROOT
BRANCH   3   5
HETATM    5  C   UNL     2     -10.112  10.831  66.544  1.00  0.00    -0.228 C  
BRANCH   5   6
HETATM    6  C   UNL     2     -10.903  12.132  66.538  1.00  0.00    -0.270 C  
HETATM    7  H   UNL     2     -12.617  12.822  67.310  1.00  0.00     0.000 HD 
HETATM    8  O   UNL     2     -12.124  12.011  67.314  1.00  0.00    -0.572 OA 
ENDBRANCH   5   6
BRANCH   5   9
HETATM    9  O   UNL     2     -10.797   9.953  67.409  1.00  0.00    -0.280 OA 
HETATM   10  O   UNL     2      -9.414  11.037  68.817  1.00  0.00    -0.189 OA 
HETATM   11  P   UNL     2      -9.988   9.598  68.896  1.00  0.00    -0.198 P  
HETATM   12  O   UNL     2      -9.343   8.471  68.052  1.00  0.00    -0.136 OA 
HETATM   13  O   UNL     2      -9.264   9.279  70.227  1.00  0.00    -0.198 OA 
ENDBRANCH   5   9
ENDBRANCH   3   5
TORSDOF 3
ENDMDL
MODEL      177
REMARK 921   NORMALIZED FREE ENERGY PREDICTED BY IDOCK:   -2.17 KCAL/MOL
REMARK 922        TOTAL FREE ENERGY PREDICTED BY IDOCK:   -3.01 KCAL/MOL
REMARK 923 INTER-LIGAND FREE ENERGY PREDICTED BY IDOCK:   -2.66 KCAL/MOL
REMARK 924 INTRA-LIGAND FREE ENERGY PREDICTED BY IDOCK:   -0.35 KCAL/MOL
REMARK 927      BINDING AFFINITY PREDICTED BY RF-SCORE:    0.00 PKD
ROOT
HETATM    1 CA   UNL     1      -8.369  11.073  67.369  1.00  0.00    -0.114 Ca 
HETATM    2  O   UNL     2     -10.339  10.423  66.821  1.00  0.00    -0.223 OA 
HETATM    3  C   UNL     2     -11.083  10.369  68.078  1.00  0.00    -0.298 C  
HETATM    4  H   UNL     2     -10.550  11.203  66.322  1.00  0.00     0.000 HD 
ENDROOT
BRANCH   3   5
HETATM    5  C   UNL     2     -10.740   9.100  68.889  1.00  0.00    -0.141 C  
BRANCH   5   6
HETATM    6  C   UNL     2      -9.672   8.216  68.257  1.00  0.00    -0.161 C  
HETATM    7  H   UNL     2      -7.693   8.280  67.953  1.00  0.00     0.000 HD 
HETATM    8  O   UNL     2      -8.359   8.831  68.347  1.00  0.00    -0.123 OA 
ENDBRANCH   5   6
BRANCH   5   9
HETATM    9  O   UNL     2     -10.267   9.438  70.174  1.00  0.00    -0.199 OA 
HETATM   10  O   UNL     2     -11.717   7.774  70.616  1.00  0.00    -0.266 OA 
HETATM   11  P   UNL     2     -11.302   8.989  71.486  1.00  0.00    -0.395 P  
HETATM   12  O   UNL     2     -11.933  10.377  71.209  1.00  0.00    -0.358 OA 
HETATM   13  O   UNL     2     -12.229   8.587  72.659  1.00  0.00    -0.379 OA 
ENDBRANCH   5   9
ENDBRANCH   3   5
TORSDOF 3
ENDMDL
MODEL      178
REMARK 921   NORMALIZED FREE ENERGY PREDICTED BY IDOCK:   -2.16 KCAL/MOL
REMARK 922        TOTAL FREE ENERGY PREDICTED BY IDOCK:   -3.00 KCAL/MOL
REMARK 923 INTER-LIGAND FREE ENERGY PREDICTED BY IDOCK:   -2.83 KCAL/MOL
REMARK 924 INTRA-LIGAND FREE ENERGY PREDICTED BY IDOCK:   -0.17 KCAL/MOL
REMARK 927      BINDING AFFINITY PREDICTED BY RF-SCORE:    0.00 PKD
ROOT
HETATM    1 CA   UNL     1      -7.134  16.002  69.031  1.00  0.00    -0.113 Ca 
HETATM    2  O   UNL     2      -9.134  16.428  68.383  1.00  0.00    -0.201 OA 
HETATM    3  C   UNL     2      -9.925  15.277  68.813  1.00  0.00    -0.215 C  
HETATM    4  H   UNL     2      -9.254  17.172  68.963  1.00  0.00     0.000 HD 
ENDROOT
BRANCH   3   5
HETATM    5  C   UNL     2      -9.730  14.069  67.871  1.00  0.00    -0.229 C  
BRANCH   5   6
HETATM    6  C   UNL     2      -8.451  13.278  68.116  1.00  0.00    -0.173 C  
HETATM    7  H   UNL     2      -6.850  13.394  69.313  1.00  0.00     0.000 HD 
HETATM    8  O   UNL     2      -7.647  13.886  69.161  1.00  0.00    -0.062 OA 
ENDBRANCH   5   6
BRANCH   5   9
HETATM    9  O   UNL     2     -10.795  13.153  68.003  1.00  0.00    -0.230 OA 
HETATM   10  O   UNL     2     -10.305  13.011  65.810  1.00  0.00    -0.277 OA 
HETATM   11  P   UNL     2     -11.656  12.804  66.543  1.00  0.00    -0.399 P  
HETATM   12  O   UNL     2     -12.491  14.037  66.969  1.00  0.00    -0.326 OA 
HETATM   13  O   UNL     2     -12.426  12.491  65.237  1.00  0.00    -0.608 OA 
ENDBRANCH   5   9
ENDBRANCH   3   5
TORSDOF 3
ENDMDL
MODEL      179
REMARK 921   NORMALIZED FREE ENERGY PREDICTED BY IDOCK:   -2.15 KCAL/MOL
REMARK 922        TOTAL FREE ENERGY PREDICTED BY IDOCK:   -2.99 KCAL/MOL
REMARK 923 INTER-LIGAND FREE ENERGY PREDICTED BY IDOCK:   -2.73 KCAL/MOL
REMARK 924 INTRA-LIGAND FREE ENERGY PREDICTED BY IDOCK:   -0.26 KCAL/MOL
REMARK 927      BINDING AFFINITY PREDICTED BY RF-SCORE:    0.00 PKD
ROOT
HETATM    1 CA   UNL     1     -11.487   7.989  68.113  1.00  0.00    -0.434 Ca 
HETATM    2  O   UNL     2     -11.578   8.854  70.074  1.00  0.00    -0.461 OA 
HETATM    3  C   UNL     2     -10.384   8.364  70.760  1.00  0.00    -0.195 C  
HETATM    4  H   UNL     2     -11.468   9.750  69.777  1.00  0.00     0.000 HD 
ENDROOT
BRANCH   3   5
HETATM    5  C   UNL     2     -10.562   6.908  71.244  1.00  0.00    -0.220 C  
BRANCH   5   6
HETATM    6  C   UNL     2     -11.450   6.755  72.472  1.00  0.00    -0.231 C  
HETATM    7  H   UNL     2     -11.794   5.376  73.883  1.00  0.00     0.000 HD 
HETATM    8  O   UNL     2     -11.240   5.471  73.118  1.00  0.00    -0.286 OA 
ENDBRANCH   5   6
BRANCH   5   9
HETATM    9  O   UNL     2     -11.140   6.111  70.235  1.00  0.00    -0.317 OA 
HETATM   10  O   UNL     2      -9.198   5.045  70.639  1.00  0.00    -0.137 OA 
HETATM   11  P   UNL     2     -10.029   5.138  69.333  1.00  0.00    -0.218 P  
HETATM   12  O   UNL     2      -9.929   6.410  68.454  1.00  0.00    -0.133 OA 
HETATM   13  O   UNL     2      -9.035   4.268  68.526  1.00  0.00    -0.101 OA 
ENDBRANCH   5   9
ENDBRANCH   3   5
TORSDOF 3
ENDMDL
MODEL      180
REMARK 921   NORMALIZED FREE ENERGY PREDICTED BY IDOCK:   -2.15 KCAL/MOL
REMARK 922        TOTAL FREE ENERGY PREDICTED BY IDOCK:   -2.98 KCAL/MOL
REMARK 923 INTER-LIGAND FREE ENERGY PREDICTED BY IDOCK:   -3.07 KCAL/MOL
REMARK 924 INTRA-LIGAND FREE ENERGY PREDICTED BY IDOCK:    0.09 KCAL/MOL
REMARK 927      BINDING AFFINITY PREDICTED BY RF-SCORE:    0.00 PKD
ROOT
HETATM    1 CA   UNL     1      -8.201  12.792  67.954  1.00  0.00    -0.112 Ca 
HETATM    2  O   UNL     2      -9.076  14.632  67.281  1.00  0.00    -0.188 OA 
HETATM    3  C   UNL     2      -9.545  15.295  68.495  1.00  0.00    -0.211 C  
HETATM    4  H   UNL     2      -8.259  15.006  66.970  1.00  0.00     0.000 HD 
ENDROOT
BRANCH   3   5
HETATM    5  C   UNL     2     -10.873  14.688  69.000  1.00  0.00    -0.245 C  
BRANCH   5   6
HETATM    6  C   UNL     2     -11.829  15.694  69.627  1.00  0.00    -0.362 C  
HETATM    7  H   UNL     2     -13.344  15.673  70.937  1.00  0.00     0.000 HD 
HETATM    8  O   UNL     2     -12.748  15.046  70.546  1.00  0.00    -0.353 OA 
ENDBRANCH   5   6
BRANCH   5   9
HETATM    9  O   UNL     2     -11.577  14.074  67.944  1.00  0.00    -0.303 OA 
HETATM   10  O   UNL     2     -11.759  12.552  69.593  1.00  0.00    -0.300 OA 
HETATM   11  P   UNL     2     -11.729  12.354  68.055  1.00  0.00    -0.248 P  
HETATM   12  O   UNL     2     -10.371  12.380  67.309  1.00  0.00    -0.214 OA 
HETATM   13  O   UNL     2     -11.863  10.815  68.154  1.00  0.00    -0.533 OA 
ENDBRANCH   5   9
ENDBRANCH   3   5
TORSDOF 3
ENDMDL
MODEL      181
REMARK 921   NORMALIZED FREE ENERGY PREDICTED BY IDOCK:   -2.15 KCAL/MOL
REMARK 922        TOTAL FREE ENERGY PREDICTED BY IDOCK:   -2.98 KCAL/MOL
REMARK 923 INTER-LIGAND FREE ENERGY PREDICTED BY IDOCK:   -2.52 KCAL/MOL
REMARK 924 INTRA-LIGAND FREE ENERGY PREDICTED BY IDOCK:   -0.46 KCAL/MOL
REMARK 927      BINDING AFFINITY PREDICTED BY RF-SCORE:    0.00 PKD
ROOT
HETATM    1 CA   UNL     1      -8.952   6.793  73.963  1.00  0.00    -0.126 Ca 
HETATM    2  O   UNL     2      -8.125   5.801  72.251  1.00  0.00    -0.106 OA 
HETATM    3  C   UNL     2      -8.505   6.632  71.111  1.00  0.00    -0.126 C  
HETATM    4  H   UNL     2      -7.219   5.942  72.501  1.00  0.00     0.000 HD 
ENDROOT
BRANCH   3   5
HETATM    5  C   UNL     2      -9.978   6.403  70.704  1.00  0.00    -0.185 C  
BRANCH   5   6
HETATM    6  C   UNL     2     -10.224   5.120  69.921  1.00  0.00    -0.291 C  
HETATM    7  H   UNL     2     -10.071   3.147  70.234  1.00  0.00     0.000 HD 
HETATM    8  O   UNL     2      -9.918   3.947  70.722  1.00  0.00    -0.179 OA 
ENDBRANCH   5   6
BRANCH   5   9
HETATM    9  O   UNL     2     -10.808   6.340  71.842  1.00  0.00    -0.225 OA 
HETATM   10  O   UNL     2     -11.827   7.907  70.586  1.00  0.00    -0.226 OA 
HETATM   11  P   UNL     2     -11.780   7.743  72.128  1.00  0.00    -0.340 P  
HETATM   12  O   UNL     2     -10.527   8.215  72.907  1.00  0.00    -0.340 OA 
HETATM   13  O   UNL     2     -12.649   8.999  72.384  1.00  0.00    -0.376 OA 
ENDBRANCH   5   9
ENDBRANCH   3   5
TORSDOF 3
ENDMDL
MODEL      182
REMARK 921   NORMALIZED FREE ENERGY PREDICTED BY IDOCK:   -2.13 KCAL/MOL
REMARK 922        TOTAL FREE ENERGY PREDICTED BY IDOCK:   -2.96 KCAL/MOL
REMARK 923 INTER-LIGAND FREE ENERGY PREDICTED BY IDOCK:   -2.79 KCAL/MOL
REMARK 924 INTRA-LIGAND FREE ENERGY PREDICTED BY IDOCK:   -0.17 KCAL/MOL
REMARK 927      BINDING AFFINITY PREDICTED BY RF-SCORE:    0.00 PKD
ROOT
HETATM    1 CA   UNL     1     -11.794   7.840  67.071  1.00  0.00    -0.364 Ca 
HETATM    2  O   UNL     2      -9.919   8.797  66.660  1.00  0.00    -0.239 OA 
HETATM    3  C   UNL     2      -9.911   9.992  67.501  1.00  0.00    -0.190 C  
HETATM    4  H   UNL     2      -9.386   8.104  67.032  1.00  0.00     0.000 HD 
ENDROOT
BRANCH   3   5
HETATM    5  C   UNL     2     -10.777  11.120  66.897  1.00  0.00    -0.274 C  
BRANCH   5   6
HETATM    6  C   UNL     2     -11.516  11.967  67.924  1.00  0.00    -0.330 C  
HETATM    7  H   UNL     2     -12.075  13.880  68.134  1.00  0.00     0.000 HD 
HETATM    8  O   UNL     2     -11.615  13.351  67.493  1.00  0.00    -0.304 OA 
ENDBRANCH   5   6
BRANCH   5   9
HETATM    9  O   UNL     2      -9.986  12.010  66.142  1.00  0.00    -0.220 OA 
HETATM   10  O   UNL     2     -11.684  11.559  64.733  1.00  0.00    -0.117 OA 
HETATM   11  P   UNL     2     -10.208  11.926  64.428  1.00  0.00    -0.309 P  
HETATM   12  O   UNL     2      -9.112  10.836  64.534  1.00  0.00    -0.199 OA 
HETATM   13  O   UNL     2     -10.406  11.851  62.894  1.00  0.00    -0.247 OA 
ENDBRANCH   5   9
ENDBRANCH   3   5
TORSDOF 3
ENDMDL
MODEL      183
REMARK 921   NORMALIZED FREE ENERGY PREDICTED BY IDOCK:   -2.11 KCAL/MOL
REMARK 922        TOTAL FREE ENERGY PREDICTED BY IDOCK:   -2.94 KCAL/MOL
REMARK 923 INTER-LIGAND FREE ENERGY PREDICTED BY IDOCK:   -2.73 KCAL/MOL
REMARK 924 INTRA-LIGAND FREE ENERGY PREDICTED BY IDOCK:   -0.21 KCAL/MOL
REMARK 927      BINDING AFFINITY PREDICTED BY RF-SCORE:    0.00 PKD
ROOT
HETATM    1 CA   UNL     1      -9.064   7.311  71.813  1.00  0.00    -0.127 Ca 
HETATM    2  O   UNL     2      -8.494   8.234  69.963  1.00  0.00    -0.119 OA 
HETATM    3  C   UNL     2      -9.026   9.593  70.038  1.00  0.00    -0.237 C  
HETATM    4  H   UNL     2      -7.561   8.213  70.142  1.00  0.00     0.000 HD 
ENDROOT
BRANCH   3   5
HETATM    5  C   UNL     2     -10.543   9.627  69.747  1.00  0.00    -0.242 C  
BRANCH   5   6
HETATM    6  C   UNL     2     -10.900   9.727  68.269  1.00  0.00    -0.210 C  
HETATM    7  H   UNL     2     -10.721   8.594  66.627  1.00  0.00     0.000 HD 
HETATM    8  O   UNL     2     -10.499   8.532  67.548  1.00  0.00    -0.249 OA 
ENDBRANCH   5   6
BRANCH   5   9
HETATM    9  O   UNL     2     -11.173   8.463  70.230  1.00  0.00    -0.245 OA 
HETATM   10  O   UNL     2     -12.366  10.100  71.213  1.00  0.00    -0.336 OA 
HETATM   11  P   UNL     2     -12.064   8.659  71.701  1.00  0.00    -0.372 P  
HETATM   12  O   UNL     2     -10.693   8.343  72.347  1.00  0.00    -0.318 OA 
HETATM   13  O   UNL     2     -12.861   8.835  73.016  1.00  0.00    -0.272 OA 
ENDBRANCH   5   9
ENDBRANCH   3   5
TORSDOF 3
ENDMDL
MODEL      184
REMARK 921   NORMALIZED FREE ENERGY PREDICTED BY IDOCK:   -2.11 KCAL/MOL
REMARK 922        TOTAL FREE ENERGY PREDICTED BY IDOCK:   -2.93 KCAL/MOL
REMARK 923 INTER-LIGAND FREE ENERGY PREDICTED BY IDOCK:   -3.01 KCAL/MOL
REMARK 924 INTRA-LIGAND FREE ENERGY PREDICTED BY IDOCK:    0.08 KCAL/MOL
REMARK 927      BINDING AFFINITY PREDICTED BY RF-SCORE:    0.00 PKD
ROOT
HETATM    1 CA   UNL     1     -11.508  16.973  68.242  1.00  0.00    -0.341 Ca 
HETATM    2  O   UNL     2     -10.503  18.460  69.419  1.00  0.00    -0.385 OA 
HETATM    3  C   UNL     2      -9.676  19.200  68.468  1.00  0.00    -0.406 C  
HETATM    4  H   UNL     2     -11.293  18.939  69.643  1.00  0.00     0.000 HD 
ENDROOT
BRANCH   3   5
HETATM    5  C   UNL     2      -8.392  18.422  68.104  1.00  0.00    -0.284 C  
BRANCH   5   6
HETATM    6  C   UNL     2      -8.333  17.006  68.661  1.00  0.00    -0.264 C  
HETATM    7  H   UNL     2      -7.097  15.919  69.803  1.00  0.00     0.000 HD 
HETATM    8  O   UNL     2      -7.134  16.802  69.456  1.00  0.00    -0.207 OA 
ENDBRANCH   5   6
BRANCH   5   9
HETATM    9  O   UNL     2      -8.256  18.305  66.705  1.00  0.00    -0.237 OA 
HETATM   10  O   UNL     2      -6.384  19.415  67.281  1.00  0.00    -0.190 OA 
HETATM   11  P   UNL     2      -7.203  19.460  65.964  1.00  0.00    -0.285 P  
HETATM   12  O   UNL     2      -8.497  20.310  65.899  1.00  0.00    -0.184 OA 
HETATM   13  O   UNL     2      -6.261  20.495  65.301  1.00  0.00    -0.229 OA 
ENDBRANCH   5   9
ENDBRANCH   3   5
TORSDOF 3
ENDMDL
MODEL      185
REMARK 921   NORMALIZED FREE ENERGY PREDICTED BY IDOCK:   -2.10 KCAL/MOL
REMARK 922        TOTAL FREE ENERGY PREDICTED BY IDOCK:   -2.93 KCAL/MOL
REMARK 923 INTER-LIGAND FREE ENERGY PREDICTED BY IDOCK:   -2.95 KCAL/MOL
REMARK 924 INTRA-LIGAND FREE ENERGY PREDICTED BY IDOCK:    0.02 KCAL/MOL
REMARK 927      BINDING AFFINITY PREDICTED BY RF-SCORE:    0.00 PKD
ROOT
HETATM    1 CA   UNL     1      -7.656   6.048  70.243  1.00  0.00    -0.073 Ca 
HETATM    2  O   UNL     2      -8.877   7.774  69.877  1.00  0.00    -0.141 OA 
HETATM    3  C   UNL     2      -9.185   8.308  71.201  1.00  0.00    -0.162 C  
HETATM    4  H   UNL     2      -8.191   8.273  69.448  1.00  0.00     0.000 HD 
ENDROOT
BRANCH   3   5
HETATM    5  C   UNL     2     -10.300   7.497  71.897  1.00  0.00    -0.193 C  
BRANCH   5   6
HETATM    6  C   UNL     2      -9.796   6.395  72.821  1.00  0.00    -0.169 C  
HETATM    7  H   UNL     2     -10.059   5.829  74.724  1.00  0.00     0.000 HD 
HETATM    8  O   UNL     2     -10.373   6.515  74.149  1.00  0.00    -0.341 OA 
ENDBRANCH   5   6
BRANCH   5   9
HETATM    9  O   UNL     2     -11.113   8.336  72.686  1.00  0.00    -0.367 OA 
HETATM   10  O   UNL     2     -12.626   7.239  71.430  1.00  0.00    -0.355 OA 
HETATM   11  P   UNL     2     -12.685   8.664  72.040  1.00  0.00    -0.412 P  
HETATM   12  O   UNL     2     -11.941   9.827  71.337  1.00  0.00    -0.356 OA 
HETATM   13  O   UNL     2     -14.091   8.958  71.462  1.00  0.00    -0.380 OA 
ENDBRANCH   5   9
ENDBRANCH   3   5
TORSDOF 3
ENDMDL
MODEL      186
REMARK 921   NORMALIZED FREE ENERGY PREDICTED BY IDOCK:   -2.10 KCAL/MOL
REMARK 922        TOTAL FREE ENERGY PREDICTED BY IDOCK:   -2.92 KCAL/MOL
REMARK 923 INTER-LIGAND FREE ENERGY PREDICTED BY IDOCK:   -2.66 KCAL/MOL
REMARK 924 INTRA-LIGAND FREE ENERGY PREDICTED BY IDOCK:   -0.26 KCAL/MOL
REMARK 927      BINDING AFFINITY PREDICTED BY RF-SCORE:    0.00 PKD
ROOT
HETATM    1 CA   UNL     1      -7.338  16.992  65.781  1.00  0.00    -0.238 Ca 
HETATM    2  O   UNL     2      -7.101  15.818  67.562  1.00  0.00    -0.150 OA 
HETATM    3  C   UNL     2      -8.164  14.817  67.500  1.00  0.00    -0.185 C  
HETATM    4  H   UNL     2      -6.260  15.453  67.311  1.00  0.00     0.000 HD 
ENDROOT
BRANCH   3   5
HETATM    5  C   UNL     2      -9.530  15.411  67.907  1.00  0.00    -0.197 C  
BRANCH   5   6
HETATM    6  C   UNL     2     -10.384  14.493  68.772  1.00  0.00    -0.243 C  
HETATM    7  H   UNL     2     -10.875  12.552  68.828  1.00  0.00     0.000 HD 
HETATM    8  O   UNL     2     -10.343  13.124  68.289  1.00  0.00    -0.240 OA 
ENDBRANCH   5   6
BRANCH   5   9
HETATM    9  O   UNL     2      -9.361  16.604  68.640  1.00  0.00    -0.230 OA 
HETATM   10  O   UNL     2     -11.225  17.028  67.451  1.00  0.00    -0.038 OA 
HETATM   11  P   UNL     2     -10.134  18.000  67.971  1.00  0.00    -0.402 P  
HETATM   12  O   UNL     2      -8.797  18.130  67.198  1.00  0.00    -0.250 OA 
HETATM   13  O   UNL     2     -10.825  19.249  67.372  1.00  0.00    -0.486 OA 
ENDBRANCH   5   9
ENDBRANCH   3   5
TORSDOF 3
ENDMDL
MODEL      187
REMARK 921   NORMALIZED FREE ENERGY PREDICTED BY IDOCK:   -2.08 KCAL/MOL
REMARK 922        TOTAL FREE ENERGY PREDICTED BY IDOCK:   -2.90 KCAL/MOL
REMARK 923 INTER-LIGAND FREE ENERGY PREDICTED BY IDOCK:   -2.77 KCAL/MOL
REMARK 924 INTRA-LIGAND FREE ENERGY PREDICTED BY IDOCK:   -0.13 KCAL/MOL
REMARK 927      BINDING AFFINITY PREDICTED BY RF-SCORE:    0.00 PKD
ROOT
HETATM    1 CA   UNL     1     -11.691   5.551  65.368  1.00  0.00    -0.675 Ca 
HETATM    2  O   UNL     2     -11.597   6.649  67.208  1.00  0.00    -0.747 OA 
HETATM    3  C   UNL     2     -10.504   7.601  67.026  1.00  0.00    -0.349 C  
HETATM    4  H   UNL     2     -12.445   7.065  67.102  1.00  0.00     0.000 HD 
ENDROOT
BRANCH   3   5
HETATM    5  C   UNL     2      -9.125   6.925  67.199  1.00  0.00    -0.131 C  
BRANCH   5   6
HETATM    6  C   UNL     2      -7.968   7.682  66.559  1.00  0.00    -0.106 C  
HETATM    7  H   UNL     2      -7.722   9.121  65.188  1.00  0.00     0.000 HD 
HETATM    8  O   UNL     2      -8.443   8.650  65.586  1.00  0.00    -0.138 OA 
ENDBRANCH   5   6
BRANCH   5   9
HETATM    9  O   UNL     2      -8.802   6.784  68.564  1.00  0.00    -0.124 OA 
HETATM   10  O   UNL     2      -8.357   4.734  67.748  1.00  0.00    -0.103 OA 
HETATM   11  P   UNL     2      -8.820   5.162  69.165  1.00  0.00    -0.094 P  
HETATM   12  O   UNL     2     -10.316   5.477  69.416  1.00  0.00    -0.231 OA 
HETATM   13  O   UNL     2      -8.836   3.711  69.703  1.00  0.00    -0.074 OA 
ENDBRANCH   5   9
ENDBRANCH   3   5
TORSDOF 3
ENDMDL
MODEL      188
REMARK 921   NORMALIZED FREE ENERGY PREDICTED BY IDOCK:   -2.08 KCAL/MOL
REMARK 922        TOTAL FREE ENERGY PREDICTED BY IDOCK:   -2.90 KCAL/MOL
REMARK 923 INTER-LIGAND FREE ENERGY PREDICTED BY IDOCK:   -2.53 KCAL/MOL
REMARK 924 INTRA-LIGAND FREE ENERGY PREDICTED BY IDOCK:   -0.36 KCAL/MOL
REMARK 927      BINDING AFFINITY PREDICTED BY RF-SCORE:    0.00 PKD
ROOT
HETATM    1 CA   UNL     1      -9.230   6.547  67.844  1.00  0.00    -0.117 Ca 
HETATM    2  O   UNL     2     -10.252   5.419  69.356  1.00  0.00    -0.220 OA 
HETATM    3  C   UNL     2     -11.392   6.247  69.742  1.00  0.00    -0.436 C  
HETATM    4  H   UNL     2     -10.512   4.713  68.775  1.00  0.00     0.000 HD 
ENDROOT
BRANCH   3   5
HETATM    5  C   UNL     2     -10.969   7.394  70.687  1.00  0.00    -0.256 C  
BRANCH   5   6
HETATM    6  C   UNL     2     -10.439   6.934  72.039  1.00  0.00    -0.205 C  
HETATM    7  H   UNL     2     -10.482   5.270  73.153  1.00  0.00     0.000 HD 
HETATM    8  O   UNL     2     -10.812   5.556  72.311  1.00  0.00    -0.226 OA 
ENDBRANCH   5   6
BRANCH   5   9
HETATM    9  O   UNL     2      -9.950   8.174  70.105  1.00  0.00    -0.184 OA 
HETATM   10  O   UNL     2     -11.608   9.672  70.379  1.00  0.00    -0.258 OA 
HETATM   11  P   UNL     2     -10.483   9.617  69.313  1.00  0.00    -0.233 P  
HETATM   12  O   UNL     2     -10.628   8.666  68.099  1.00  0.00    -0.204 OA 
HETATM   13  O   UNL     2     -10.960  10.908  68.603  1.00  0.00    -0.193 OA 
ENDBRANCH   5   9
ENDBRANCH   3   5
TORSDOF 3
ENDMDL
MODEL      189
REMARK 921   NORMALIZED FREE ENERGY PREDICTED BY IDOCK:   -2.06 KCAL/MOL
REMARK 922        TOTAL FREE ENERGY PREDICTED BY IDOCK:   -2.88 KCAL/MOL
REMARK 923 INTER-LIGAND FREE ENERGY PREDICTED BY IDOCK:   -2.54 KCAL/MOL
REMARK 924 INTRA-LIGAND FREE ENERGY PREDICTED BY IDOCK:   -0.34 KCAL/MOL
REMARK 927      BINDING AFFINITY PREDICTED BY RF-SCORE:    0.00 PKD
ROOT
HETATM    1 CA   UNL     1      -9.415   7.471  64.936  1.00  0.00    -0.364 Ca 
HETATM    2  O   UNL     2     -10.268   5.953  66.190  1.00  0.00    -0.392 OA 
HETATM    3  C   UNL     2     -11.208   6.662  67.056  1.00  0.00    -0.194 C  
HETATM    4  H   UNL     2     -10.715   5.501  65.484  1.00  0.00     0.000 HD 
ENDROOT
BRANCH   3   5
HETATM    5  C   UNL     2     -10.483   7.397  68.204  1.00  0.00    -0.193 C  
BRANCH   5   6
HETATM    6  C   UNL     2      -9.868   6.478  69.253  1.00  0.00    -0.148 C  
HETATM    7  H   UNL     2     -10.148   4.613  69.927  1.00  0.00     0.000 HD 
HETATM    8  O   UNL     2     -10.530   5.185  69.274  1.00  0.00    -0.219 OA 
ENDBRANCH   5   6
BRANCH   5   9
HETATM    9  O   UNL     2      -9.430   8.191  67.706  1.00  0.00    -0.139 OA 
HETATM   10  O   UNL     2     -10.836   9.731  68.553  1.00  0.00    -0.222 OA 
HETATM   11  P   UNL     2      -9.839   9.838  67.370  1.00  0.00    -0.195 P  
HETATM   12  O   UNL     2     -10.230   9.257  65.988  1.00  0.00    -0.269 OA 
HETATM   13  O   UNL     2     -10.206  11.312  67.068  1.00  0.00    -0.204 OA 
ENDBRANCH   5   9
ENDBRANCH   3   5
TORSDOF 3
ENDMDL
MODEL      190
REMARK 921   NORMALIZED FREE ENERGY PREDICTED BY IDOCK:   -2.05 KCAL/MOL
REMARK 922        TOTAL FREE ENERGY PREDICTED BY IDOCK:   -2.87 KCAL/MOL
REMARK 923 INTER-LIGAND FREE ENERGY PREDICTED BY IDOCK:   -2.61 KCAL/MOL
REMARK 924 INTRA-LIGAND FREE ENERGY PREDICTED BY IDOCK:   -0.26 KCAL/MOL
REMARK 927      BINDING AFFINITY PREDICTED BY RF-SCORE:    0.00 PKD
ROOT
HETATM    1 CA   UNL     1     -11.737   5.156  65.430  1.00  0.00    -0.654 Ca 
HETATM    2  O   UNL     2     -11.623   6.440  67.145  1.00  0.00    -0.708 OA 
HETATM    3  C   UNL     2     -10.203   6.755  67.288  1.00  0.00    -0.210 C  
HETATM    4  H   UNL     2     -12.103   7.157  66.746  1.00  0.00     0.000 HD 
ENDROOT
BRANCH   3   5
HETATM    5  C   UNL     2      -9.423   5.590  67.936  1.00  0.00    -0.116 C  
BRANCH   5   6
HETATM    6  C   UNL     2      -9.605   5.471  69.444  1.00  0.00    -0.147 C  
HETATM    7  H   UNL     2      -9.337   6.624  71.060  1.00  0.00     0.000 HD 
HETATM    8  O   UNL     2      -9.223   6.698  70.120  1.00  0.00    -0.154 OA 
ENDBRANCH   5   6
BRANCH   5   9
HETATM    9  O   UNL     2      -9.821   4.354  67.389  1.00  0.00    -0.185 OA 
HETATM   10  O   UNL     2      -7.578   4.258  67.219  1.00  0.00    -0.076 OA 
HETATM   11  P   UNL     2      -8.672   3.608  66.331  1.00  0.00    -0.136 P  
HETATM   12  O   UNL     2      -9.393   4.464  65.260  1.00  0.00    -0.148 OA 
HETATM   13  O   UNL     2      -7.644   2.941  65.385  1.00  0.00    -0.074 OA 
ENDBRANCH   5   9
ENDBRANCH   3   5
TORSDOF 3
ENDMDL
MODEL      191
REMARK 921   NORMALIZED FREE ENERGY PREDICTED BY IDOCK:   -2.04 KCAL/MOL
REMARK 922        TOTAL FREE ENERGY PREDICTED BY IDOCK:   -2.86 KCAL/MOL
REMARK 923 INTER-LIGAND FREE ENERGY PREDICTED BY IDOCK:   -2.80 KCAL/MOL
REMARK 924 INTRA-LIGAND FREE ENERGY PREDICTED BY IDOCK:   -0.06 KCAL/MOL
REMARK 927      BINDING AFFINITY PREDICTED BY RF-SCORE:    0.00 PKD
ROOT
HETATM    1 CA   UNL     1     -12.506  15.999  64.678  1.00  0.00    -0.139 Ca 
HETATM    2  O   UNL     2     -12.769  14.765  66.414  1.00  0.00    -0.207 OA 
HETATM    3  C   UNL     2     -11.442  14.673  67.018  1.00  0.00    -0.368 C  
HETATM    4  H   UNL     2     -13.322  15.386  66.875  1.00  0.00     0.000 HD 
ENDROOT
BRANCH   3   5
HETATM    5  C   UNL     2     -10.543  13.666  66.268  1.00  0.00    -0.289 C  
BRANCH   5   6
HETATM    6  C   UNL     2      -9.299  13.237  67.036  1.00  0.00    -0.242 C  
HETATM    7  H   UNL     2      -7.465  13.956  67.397  1.00  0.00     0.000 HD 
HETATM    8  O   UNL     2      -8.240  14.224  66.918  1.00  0.00    -0.145 OA 
ENDBRANCH   5   6
BRANCH   5   9
HETATM    9  O   UNL     2     -11.253  12.485  65.971  1.00  0.00    -0.288 OA 
HETATM   10  O   UNL     2      -9.990  12.766  64.128  1.00  0.00    -0.293 OA 
HETATM   11  P   UNL     2     -11.384  12.103  64.288  1.00  0.00    -0.402 P  
HETATM   12  O   UNL     2     -12.647  12.995  64.382  1.00  0.00    -0.607 OA 
HETATM   13  O   UNL     2     -11.500  11.762  62.782  1.00  0.00     0.185 OA 
ENDBRANCH   5   9
ENDBRANCH   3   5
TORSDOF 3
ENDMDL
MODEL      192
REMARK 921   NORMALIZED FREE ENERGY PREDICTED BY IDOCK:   -2.02 KCAL/MOL
REMARK 922        TOTAL FREE ENERGY PREDICTED BY IDOCK:   -2.84 KCAL/MOL
REMARK 923 INTER-LIGAND FREE ENERGY PREDICTED BY IDOCK:   -3.04 KCAL/MOL
REMARK 924 INTRA-LIGAND FREE ENERGY PREDICTED BY IDOCK:    0.20 KCAL/MOL
REMARK 927      BINDING AFFINITY PREDICTED BY RF-SCORE:    0.00 PKD
ROOT
HETATM    1 CA   UNL     1     -13.104  14.853  64.311  1.00  0.00    -0.596 Ca 
HETATM    2  O   UNL     2     -13.194  12.730  64.608  1.00  0.00    -0.776 OA 
HETATM    3  C   UNL     2     -12.642  12.511  65.943  1.00  0.00     0.400 C  
HETATM    4  H   UNL     2     -14.143  12.685  64.610  1.00  0.00     0.000 HD 
ENDROOT
BRANCH   3   5
HETATM    5  C   UNL     2     -11.099  12.583  65.941  1.00  0.00    -0.299 C  
BRANCH   5   6
HETATM    6  C   UNL     2     -10.533  13.970  65.664  1.00  0.00    -0.318 C  
HETATM    7  H   UNL     2      -8.868  14.998  66.091  1.00  0.00     0.000 HD 
HETATM    8  O   UNL     2      -9.221  14.134  66.264  1.00  0.00    -0.227 OA 
ENDBRANCH   5   6
BRANCH   5   9
HETATM    9  O   UNL     2     -10.576  12.182  67.187  1.00  0.00    -0.219 OA 
HETATM   10  O   UNL     2      -9.918  10.513  65.828  1.00  0.00    -0.231 OA 
HETATM   11  P   UNL     2     -10.249  10.491  67.344  1.00  0.00    -0.238 P  
HETATM   12  O   UNL     2     -11.728  10.444  67.802  1.00  0.00    -0.353 OA 
HETATM   13  O   UNL     2      -9.956   8.977  67.483  1.00  0.00    -0.180 OA 
ENDBRANCH   5   9
ENDBRANCH   3   5
TORSDOF 3
ENDMDL
MODEL      193
REMARK 921   NORMALIZED FREE ENERGY PREDICTED BY IDOCK:   -1.99 KCAL/MOL
REMARK 922        TOTAL FREE ENERGY PREDICTED BY IDOCK:   -2.79 KCAL/MOL
REMARK 923 INTER-LIGAND FREE ENERGY PREDICTED BY IDOCK:   -2.52 KCAL/MOL
REMARK 924 INTRA-LIGAND FREE ENERGY PREDICTED BY IDOCK:   -0.27 KCAL/MOL
REMARK 927      BINDING AFFINITY PREDICTED BY RF-SCORE:    0.00 PKD
ROOT
HETATM    1 CA   UNL     1     -10.618   3.241  71.865  1.00  0.00    -0.169 Ca 
HETATM    2  O   UNL     2     -10.486   5.052  73.008  1.00  0.00    -0.177 OA 
HETATM    3  C   UNL     2     -11.731   5.765  72.732  1.00  0.00    -0.162 C  
HETATM    4  H   UNL     2     -10.510   4.620  73.854  1.00  0.00     0.000 HD 
ENDROOT
BRANCH   3   5
HETATM    5  C   UNL     2     -11.693   6.467  71.357  1.00  0.00    -0.324 C  
BRANCH   5   6
HETATM    6  C   UNL     2     -12.354   7.840  71.330  1.00  0.00    -0.323 C  
HETATM    7  H   UNL     2     -11.864   9.724  71.801  1.00  0.00     0.000 HD 
HETATM    8  O   UNL     2     -11.452   8.869  71.818  1.00  0.00    -0.307 OA 
ENDBRANCH   5   6
BRANCH   5   9
HETATM    9  O   UNL     2     -10.364   6.658  70.927  1.00  0.00    -0.204 OA 
HETATM   10  O   UNL     2     -11.389   5.986  69.039  1.00  0.00    -0.340 OA 
HETATM   11  P   UNL     2      -9.918   5.798  69.494  1.00  0.00    -0.232 P  
HETATM   12  O   UNL     2      -9.569   4.679  70.506  1.00  0.00    -0.163 OA 
HETATM   13  O   UNL     2      -9.519   5.028  68.211  1.00  0.00    -0.121 OA 
ENDBRANCH   5   9
ENDBRANCH   3   5
TORSDOF 3
ENDMDL
MODEL      194
REMARK 921   NORMALIZED FREE ENERGY PREDICTED BY IDOCK:   -1.98 KCAL/MOL
REMARK 922        TOTAL FREE ENERGY PREDICTED BY IDOCK:   -2.79 KCAL/MOL
REMARK 923 INTER-LIGAND FREE ENERGY PREDICTED BY IDOCK:   -2.69 KCAL/MOL
REMARK 924 INTRA-LIGAND FREE ENERGY PREDICTED BY IDOCK:   -0.09 KCAL/MOL
REMARK 927      BINDING AFFINITY PREDICTED BY RF-SCORE:    0.00 PKD
ROOT
HETATM    1 CA   UNL     1      -8.878   4.049  72.770  1.00  0.00    -0.092 Ca 
HETATM    2  O   UNL     2     -10.407   4.963  73.965  1.00  0.00    -0.205 OA 
HETATM    3  C   UNL     2     -11.481   5.282  73.027  1.00  0.00    -0.269 C  
HETATM    4  H   UNL     2     -10.602   4.179  74.467  1.00  0.00     0.000 HD 
ENDROOT
BRANCH   3   5
HETATM    5  C   UNL     2     -11.165   6.555  72.211  1.00  0.00    -0.273 C  
BRANCH   5   6
HETATM    6  C   UNL     2     -12.357   7.136  71.462  1.00  0.00    -0.370 C  
HETATM    7  H   UNL     2     -13.620   8.678  71.663  1.00  0.00     0.000 HD 
HETATM    8  O   UNL     2     -12.877   8.316  72.131  1.00  0.00    -0.331 OA 
ENDBRANCH   5   6
BRANCH   5   9
HETATM    9  O   UNL     2     -10.684   7.582  73.049  1.00  0.00    -0.317 OA 
HETATM   10  O   UNL     2      -9.448   7.859  71.188  1.00  0.00    -0.156 OA 
HETATM   11  P   UNL     2      -9.102   8.168  72.667  1.00  0.00    -0.267 P  
HETATM   12  O   UNL     2      -8.659   7.017  73.605  1.00  0.00    -0.126 OA 
HETATM   13  O   UNL     2      -7.686   8.693  72.326  1.00  0.00    -0.287 OA 
ENDBRANCH   5   9
ENDBRANCH   3   5
TORSDOF 3
ENDMDL
MODEL      195
REMARK 921   NORMALIZED FREE ENERGY PREDICTED BY IDOCK:   -1.98 KCAL/MOL
REMARK 922        TOTAL FREE ENERGY PREDICTED BY IDOCK:   -2.79 KCAL/MOL
REMARK 923 INTER-LIGAND FREE ENERGY PREDICTED BY IDOCK:   -2.56 KCAL/MOL
REMARK 924 INTRA-LIGAND FREE ENERGY PREDICTED BY IDOCK:   -0.23 KCAL/MOL
REMARK 927      BINDING AFFINITY PREDICTED BY RF-SCORE:    0.00 PKD
ROOT
HETATM    1 CA   UNL     1      -9.229   6.565  67.848  1.00  0.00    -0.117 Ca 
HETATM    2  O   UNL     2     -10.317   5.562  69.401  1.00  0.00    -0.231 OA 
HETATM    3  C   UNL     2     -11.434   6.451  69.715  1.00  0.00    -0.399 C  
HETATM    4  H   UNL     2     -10.591   4.834  68.855  1.00  0.00     0.000 HD 
ENDROOT
BRANCH   3   5
HETATM    5  C   UNL     2     -10.989   7.634  70.601  1.00  0.00    -0.249 C  
BRANCH   5   6
HETATM    6  C   UNL     2     -11.863   7.869  71.827  1.00  0.00    -0.293 C  
HETATM    7  H   UNL     2     -13.698   7.363  72.450  1.00  0.00     0.000 HD 
HETATM    8  O   UNL     2     -13.153   7.216  71.686  1.00  0.00    -0.372 OA 
ENDBRANCH   5   6
BRANCH   5   9
HETATM    9  O   UNL     2      -9.678   7.438  71.080  1.00  0.00    -0.164 OA 
HETATM   10  O   UNL     2      -9.749   9.667  70.772  1.00  0.00    -0.250 OA 
HETATM   11  P   UNL     2      -8.549   8.688  70.684  1.00  0.00    -0.200 P  
HETATM   12  O   UNL     2      -8.350   7.836  69.405  1.00  0.00    -0.129 OA 
HETATM   13  O   UNL     2      -7.539   9.806  70.330  1.00  0.00    -0.153 OA 
ENDBRANCH   5   9
ENDBRANCH   3   5
TORSDOF 3
ENDMDL
MODEL      196
REMARK 921   NORMALIZED FREE ENERGY PREDICTED BY IDOCK:   -1.97 KCAL/MOL
REMARK 922        TOTAL FREE ENERGY PREDICTED BY IDOCK:   -2.77 KCAL/MOL
REMARK 923 INTER-LIGAND FREE ENERGY PREDICTED BY IDOCK:   -2.41 KCAL/MOL
REMARK 924 INTRA-LIGAND FREE ENERGY PREDICTED BY IDOCK:   -0.36 KCAL/MOL
REMARK 927      BINDING AFFINITY PREDICTED BY RF-SCORE:    0.00 PKD
ROOT
HETATM    1 CA   UNL     1     -10.253  10.694  65.421  1.00  0.00    -0.209 Ca 
HETATM    2  O   UNL     2      -9.476   8.752  65.895  1.00  0.00    -0.284 OA 
HETATM    3  C   UNL     2     -10.369   8.228  66.926  1.00  0.00    -0.320 C  
HETATM    4  H   UNL     2      -9.664   8.375  65.043  1.00  0.00     0.000 HD 
ENDROOT
BRANCH   3   5
HETATM    5  C   UNL     2     -10.063   8.840  68.311  1.00  0.00    -0.188 C  
BRANCH   5   6
HETATM    6  C   UNL     2      -9.013   8.086  69.116  1.00  0.00    -0.145 C  
HETATM    7  H   UNL     2      -7.051   7.699  68.989  1.00  0.00     0.000 HD 
HETATM    8  O   UNL     2      -7.706   8.169  68.487  1.00  0.00    -0.108 OA 
ENDBRANCH   5   6
BRANCH   5   9
HETATM    9  O   UNL     2      -9.591  10.163  68.181  1.00  0.00    -0.138 OA 
HETATM   10  O   UNL     2     -11.106  10.351  69.836  1.00  0.00    -0.263 OA 
HETATM   11  P   UNL     2     -10.654  11.390  68.777  1.00  0.00    -0.189 P  
HETATM   12  O   UNL     2     -11.231  11.316  67.341  1.00  0.00    -0.284 OA 
HETATM   13  O   UNL     2     -11.607  12.489  69.309  1.00  0.00    -0.284 OA 
ENDBRANCH   5   9
ENDBRANCH   3   5
TORSDOF 3
ENDMDL
MODEL      197
REMARK 921   NORMALIZED FREE ENERGY PREDICTED BY IDOCK:   -1.96 KCAL/MOL
REMARK 922        TOTAL FREE ENERGY PREDICTED BY IDOCK:   -2.76 KCAL/MOL
REMARK 923 INTER-LIGAND FREE ENERGY PREDICTED BY IDOCK:   -2.57 KCAL/MOL
REMARK 924 INTRA-LIGAND FREE ENERGY PREDICTED BY IDOCK:   -0.19 KCAL/MOL
REMARK 927      BINDING AFFINITY PREDICTED BY RF-SCORE:    0.00 PKD
ROOT
HETATM    1 CA   UNL     1     -11.433  12.195  63.790  1.00  0.00    -0.296 Ca 
HETATM    2  O   UNL     2      -9.430  11.499  64.118  1.00  0.00    -0.378 OA 
HETATM    3  C   UNL     2      -9.495  10.728  65.357  1.00  0.00    -0.214 C  
HETATM    4  H   UNL     2      -9.411  10.934  63.354  1.00  0.00     0.000 HD 
ENDROOT
BRANCH   3   5
HETATM    5  C   UNL     2      -9.527  11.645  66.599  1.00  0.00    -0.201 C  
BRANCH   5   6
HETATM    6  C   UNL     2     -10.682  12.638  66.621  1.00  0.00    -0.253 C  
HETATM    7  H   UNL     2     -12.656  12.614  66.282  1.00  0.00     0.000 HD 
HETATM    8  O   UNL     2     -11.937  11.995  66.269  1.00  0.00    -0.596 OA 
ENDBRANCH   5   6
BRANCH   5   9
HETATM    9  O   UNL     2      -9.634  10.886  67.782  1.00  0.00    -0.161 OA 
HETATM   10  O   UNL     2      -7.895  12.242  68.235  1.00  0.00    -0.138 OA 
HETATM   11  P   UNL     2      -8.198  10.809  68.745  1.00  0.00    -0.138 P  
HETATM   12  O   UNL     2      -7.886   9.594  67.837  1.00  0.00    -0.087 OA 
HETATM   13  O   UNL     2      -6.914  10.741  69.606  1.00  0.00    -0.112 OA 
ENDBRANCH   5   9
ENDBRANCH   3   5
TORSDOF 3
ENDMDL
MODEL      198
REMARK 921   NORMALIZED FREE ENERGY PREDICTED BY IDOCK:   -1.96 KCAL/MOL
REMARK 922        TOTAL FREE ENERGY PREDICTED BY IDOCK:   -2.76 KCAL/MOL
REMARK 923 INTER-LIGAND FREE ENERGY PREDICTED BY IDOCK:   -2.40 KCAL/MOL
REMARK 924 INTRA-LIGAND FREE ENERGY PREDICTED BY IDOCK:   -0.36 KCAL/MOL
REMARK 927      BINDING AFFINITY PREDICTED BY RF-SCORE:    0.00 PKD
ROOT
HETATM    1 CA   UNL     1      -9.033   4.014  72.743  1.00  0.00    -0.096 Ca 
HETATM    2  O   UNL     2     -10.817   4.487  73.836  1.00  0.00    -0.257 OA 
HETATM    3  C   UNL     2     -11.519   5.467  73.010  1.00  0.00    -0.259 C  
HETATM    4  H   UNL     2     -11.200   3.621  73.753  1.00  0.00     0.000 HD 
ENDROOT
BRANCH   3   5
HETATM    5  C   UNL     2     -10.898   6.875  73.145  1.00  0.00    -0.296 C  
BRANCH   5   6
HETATM    6  C   UNL     2      -9.690   6.946  74.071  1.00  0.00    -0.292 C  
HETATM    7  H   UNL     2      -7.788   6.319  74.067  1.00  0.00     0.000 HD 
HETATM    8  O   UNL     2      -8.540   6.275  73.490  1.00  0.00    -0.124 OA 
ENDBRANCH   5   6
BRANCH   5   9
HETATM    9  O   UNL     2     -10.466   7.356  71.891  1.00  0.00    -0.199 OA 
HETATM   10  O   UNL     2     -11.706   9.068  72.664  1.00  0.00    -0.093 OA 
HETATM   11  P   UNL     2     -11.438   8.613  71.206  1.00  0.00    -0.320 P  
HETATM   12  O   UNL     2     -12.230   7.417  70.622  1.00  0.00    -0.212 OA 
HETATM   13  O   UNL     2     -12.307   9.738  70.593  1.00  0.00    -0.253 OA 
ENDBRANCH   5   9
ENDBRANCH   3   5
TORSDOF 3
ENDMDL
MODEL      199
REMARK 921   NORMALIZED FREE ENERGY PREDICTED BY IDOCK:   -1.95 KCAL/MOL
REMARK 922        TOTAL FREE ENERGY PREDICTED BY IDOCK:   -2.75 KCAL/MOL
REMARK 923 INTER-LIGAND FREE ENERGY PREDICTED BY IDOCK:   -2.80 KCAL/MOL
REMARK 924 INTRA-LIGAND FREE ENERGY PREDICTED BY IDOCK:    0.04 KCAL/MOL
REMARK 927      BINDING AFFINITY PREDICTED BY RF-SCORE:    0.00 PKD
ROOT
HETATM    1 CA   UNL     1      -8.801  12.235  64.995  1.00  0.00    -0.405 Ca 
HETATM    2  O   UNL     2     -10.316  12.935  66.343  1.00  0.00    -0.259 OA 
HETATM    3  C   UNL     2     -10.511  14.341  65.997  1.00  0.00    -0.301 C  
HETATM    4  H   UNL     2     -11.007  12.388  65.987  1.00  0.00     0.000 HD 
ENDROOT
BRANCH   3   5
HETATM    5  C   UNL     2      -9.389  15.231  66.576  1.00  0.00    -0.281 C  
BRANCH   5   6
HETATM    6  C   UNL     2      -9.711  16.720  66.594  1.00  0.00    -0.269 C  
HETATM    7  H   UNL     2     -10.334  18.112  65.295  1.00  0.00     0.000 HD 
HETATM    8  O   UNL     2     -10.134  17.184  65.284  1.00  0.00    -0.507 OA 
ENDBRANCH   5   6
BRANCH   5   9
HETATM    9  O   UNL     2      -9.100  14.871  67.909  1.00  0.00    -0.177 OA 
HETATM   10  O   UNL     2      -7.050  15.230  67.050  1.00  0.00    -0.203 OA 
HETATM   11  P   UNL     2      -7.501  14.271  68.183  1.00  0.00    -0.171 P  
HETATM   12  O   UNL     2      -8.156  12.915  67.820  1.00  0.00    -0.140 OA 
HETATM   13  O   UNL     2      -6.070  13.734  68.429  1.00  0.00    -0.085 OA 
ENDBRANCH   5   9
ENDBRANCH   3   5
TORSDOF 3
ENDMDL
MODEL      200
REMARK 921   NORMALIZED FREE ENERGY PREDICTED BY IDOCK:   -1.95 KCAL/MOL
REMARK 922        TOTAL FREE ENERGY PREDICTED BY IDOCK:   -2.75 KCAL/MOL
REMARK 923 INTER-LIGAND FREE ENERGY PREDICTED BY IDOCK:   -2.42 KCAL/MOL
REMARK 924 INTRA-LIGAND FREE ENERGY PREDICTED BY IDOCK:   -0.33 KCAL/MOL
REMARK 927      BINDING AFFINITY PREDICTED BY RF-SCORE:    0.00 PKD
ROOT
HETATM    1 CA   UNL     1      -9.305  12.595  64.618  1.00  0.00    -0.427 Ca 
HETATM    2  O   UNL     2     -10.989  11.436  65.268  1.00  0.00    -0.262 OA 
HETATM    3  C   UNL     2     -11.464  12.104  66.478  1.00  0.00    -0.369 C  
HETATM    4  H   UNL     2     -11.531  11.645  64.516  1.00  0.00     0.000 HD 
ENDROOT
BRANCH   3   5
HETATM    5  C   UNL     2     -10.583  11.764  67.700  1.00  0.00    -0.205 C  
BRANCH   5   6
HETATM    6  C   UNL     2     -11.354  11.574  69.000  1.00  0.00    -0.276 C  
HETATM    7  H   UNL     2     -11.969  10.048  70.143  1.00  0.00     0.000 HD 
HETATM    8  O   UNL     2     -11.489  10.166  69.332  1.00  0.00    -0.218 OA 
ENDBRANCH   5   6
BRANCH   5   9
HETATM    9  O   UNL     2      -9.865  10.570  67.486  1.00  0.00    -0.163 OA 
HETATM   10  O   UNL     2      -8.360  11.850  68.565  1.00  0.00    -0.156 OA 
HETATM   11  P   UNL     2      -8.143  10.725  67.519  1.00  0.00    -0.114 P  
HETATM   12  O   UNL     2      -8.334  11.035  66.013  1.00  0.00    -0.168 OA 
HETATM   13  O   UNL     2      -6.601  10.865  67.549  1.00  0.00    -0.060 OA 
ENDBRANCH   5   9
ENDBRANCH   3   5
TORSDOF 3
ENDMDL
MODEL      201
REMARK 921   NORMALIZED FREE ENERGY PREDICTED BY IDOCK:   -1.93 KCAL/MOL
REMARK 922        TOTAL FREE ENERGY PREDICTED BY IDOCK:   -2.72 KCAL/MOL
REMARK 923 INTER-LIGAND FREE ENERGY PREDICTED BY IDOCK:   -2.65 KCAL/MOL
REMARK 924 INTRA-LIGAND FREE ENERGY PREDICTED BY IDOCK:   -0.07 KCAL/MOL
REMARK 927      BINDING AFFINITY PREDICTED BY RF-SCORE:    0.00 PKD
ROOT
HETATM    1 CA   UNL     1      -8.388  13.339  67.149  1.00  0.00    -0.137 Ca 
HETATM    2  O   UNL     2     -10.265  12.919  66.198  1.00  0.00    -0.266 OA 
HETATM    3  C   UNL     2     -11.241  12.886  67.285  1.00  0.00    -0.288 C  
HETATM    4  H   UNL     2     -10.302  13.739  65.718  1.00  0.00     0.000 HD 
ENDROOT
BRANCH   3   5
HETATM    5  C   UNL     2     -11.181  11.554  68.065  1.00  0.00    -0.269 C  
BRANCH   5   6
HETATM    6  C   UNL     2     -12.018  11.530  69.338  1.00  0.00    -0.325 C  
HETATM    7  H   UNL     2     -12.540  12.811  70.786  1.00  0.00     0.000 HD 
HETATM    8  O   UNL     2     -12.018  12.826  69.993  1.00  0.00    -0.332 OA 
ENDBRANCH   5   6
BRANCH   5   9
HETATM    9  O   UNL     2     -11.639  10.485  67.268  1.00  0.00    -0.327 OA 
HETATM   10  O   UNL     2      -9.829   9.598  68.271  1.00  0.00    -0.145 OA 
HETATM   11  P   UNL     2     -10.453   9.285  66.886  1.00  0.00    -0.106 P  
HETATM   12  O   UNL     2     -10.166  10.226  65.690  1.00  0.00    -0.273 OA 
HETATM   13  O   UNL     2      -9.390   8.211  66.544  1.00  0.00    -0.179 OA 
ENDBRANCH   5   9
ENDBRANCH   3   5
TORSDOF 3
ENDMDL
MODEL      202
REMARK 921   NORMALIZED FREE ENERGY PREDICTED BY IDOCK:   -1.93 KCAL/MOL
REMARK 922        TOTAL FREE ENERGY PREDICTED BY IDOCK:   -2.72 KCAL/MOL
REMARK 923 INTER-LIGAND FREE ENERGY PREDICTED BY IDOCK:   -2.63 KCAL/MOL
REMARK 924 INTRA-LIGAND FREE ENERGY PREDICTED BY IDOCK:   -0.09 KCAL/MOL
REMARK 927      BINDING AFFINITY PREDICTED BY RF-SCORE:    0.00 PKD
ROOT
HETATM    1 CA   UNL     1      -7.484   9.397  70.759  1.00  0.00    -0.063 Ca 
HETATM    2  O   UNL     2      -8.620   7.898  69.728  1.00  0.00    -0.130 OA 
HETATM    3  C   UNL     2      -9.373   8.626  68.710  1.00  0.00    -0.142 C  
HETATM    4  H   UNL     2      -7.863   7.459  69.356  1.00  0.00     0.000 HD 
ENDROOT
BRANCH   3   5
HETATM    5  C   UNL     2     -10.604   9.340  69.313  1.00  0.00    -0.222 C  
BRANCH   5   6
HETATM    6  C   UNL     2     -11.129   8.713  70.598  1.00  0.00    -0.249 C  
HETATM    7  H   UNL     2     -11.499   6.873  71.300  1.00  0.00     0.000 HD 
HETATM    8  O   UNL     2     -11.171   7.264  70.499  1.00  0.00    -0.267 OA 
ENDBRANCH   5   6
BRANCH   5   9
HETATM    9  O   UNL     2     -10.305  10.683  69.619  1.00  0.00    -0.216 OA 
HETATM   10  O   UNL     2     -12.283  10.858  68.559  1.00  0.00    -0.535 OA 
HETATM   11  P   UNL     2     -11.103  11.862  68.636  1.00  0.00    -0.290 P  
HETATM   12  O   UNL     2      -9.866  11.657  67.726  1.00  0.00    -0.173 OA 
HETATM   13  O   UNL     2     -11.817  12.916  67.755  1.00  0.00    -0.349 OA 
ENDBRANCH   5   9
ENDBRANCH   3   5
TORSDOF 3
ENDMDL
MODEL      203
REMARK 921   NORMALIZED FREE ENERGY PREDICTED BY IDOCK:   -1.90 KCAL/MOL
REMARK 922        TOTAL FREE ENERGY PREDICTED BY IDOCK:   -2.69 KCAL/MOL
REMARK 923 INTER-LIGAND FREE ENERGY PREDICTED BY IDOCK:   -2.43 KCAL/MOL
REMARK 924 INTRA-LIGAND FREE ENERGY PREDICTED BY IDOCK:   -0.26 KCAL/MOL
REMARK 927      BINDING AFFINITY PREDICTED BY RF-SCORE:    0.00 PKD
ROOT
HETATM    1 CA   UNL     1      -7.727  10.120  63.514  1.00  0.00    -0.122 Ca 
HETATM    2  O   UNL     2      -7.305  10.324  65.608  1.00  0.00    -0.137 OA 
HETATM    3  C   UNL     2      -8.568  10.022  66.280  1.00  0.00    -0.129 C  
HETATM    4  H   UNL     2      -6.704   9.589  65.646  1.00  0.00     0.000 HD 
ENDROOT
BRANCH   3   5
HETATM    5  C   UNL     2      -9.546  11.216  66.219  1.00  0.00    -0.206 C  
BRANCH   5   6
HETATM    6  C   UNL     2      -9.311  12.278  67.285  1.00  0.00    -0.185 C  
HETATM    7  H   UNL     2      -9.094  14.268  67.365  1.00  0.00     0.000 HD 
HETATM    8  O   UNL     2      -9.241  13.606  66.700  1.00  0.00    -0.249 OA 
ENDBRANCH   5   6
BRANCH   5   9
HETATM    9  O   UNL     2      -9.457  11.874  64.976  1.00  0.00    -0.149 OA 
HETATM   10  O   UNL     2     -11.682  11.755  65.302  1.00  0.00    -0.226 OA 
HETATM   11  P   UNL     2     -10.869  11.771  63.981  1.00  0.00    -0.456 P  
HETATM   12  O   UNL     2     -10.189  10.469  63.487  1.00  0.00    -0.234 OA 
HETATM   13  O   UNL     2     -12.132  11.677  63.090  1.00  0.00    -0.334 OA 
ENDBRANCH   5   9
ENDBRANCH   3   5
TORSDOF 3
ENDMDL
MODEL      204
REMARK 921   NORMALIZED FREE ENERGY PREDICTED BY IDOCK:   -1.89 KCAL/MOL
REMARK 922        TOTAL FREE ENERGY PREDICTED BY IDOCK:   -2.68 KCAL/MOL
REMARK 923 INTER-LIGAND FREE ENERGY PREDICTED BY IDOCK:   -2.62 KCAL/MOL
REMARK 924 INTRA-LIGAND FREE ENERGY PREDICTED BY IDOCK:   -0.07 KCAL/MOL
REMARK 927      BINDING AFFINITY PREDICTED BY RF-SCORE:    0.00 PKD
ROOT
HETATM    1 CA   UNL     1      -7.948  12.380  65.754  1.00  0.00    -0.347 Ca 
HETATM    2  O   UNL     2      -8.384  10.866  64.299  1.00  0.00    -0.368 OA 
HETATM    3  C   UNL     2      -9.663  10.296  64.716  1.00  0.00    -0.332 C  
HETATM    4  H   UNL     2      -8.489  11.472  63.574  1.00  0.00     0.000 HD 
ENDROOT
BRANCH   3   5
HETATM    5  C   UNL     2      -9.491   9.311  65.893  1.00  0.00    -0.259 C  
BRANCH   5   6
HETATM    6  C   UNL     2      -8.391   8.276  65.694  1.00  0.00    -0.148 C  
HETATM    7  H   UNL     2      -7.364   7.488  64.166  1.00  0.00     0.000 HD 
HETATM    8  O   UNL     2      -8.050   8.133  64.290  1.00  0.00    -0.149 OA 
ENDBRANCH   5   6
BRANCH   5   9
HETATM    9  O   UNL     2      -9.179  10.000  67.083  1.00  0.00    -0.140 OA 
HETATM   10  O   UNL     2     -10.631   8.435  67.798  1.00  0.00    -0.229 OA 
HETATM   11  P   UNL     2     -10.348   9.857  68.350  1.00  0.00    -0.220 P  
HETATM   12  O   UNL     2     -10.975  11.087  67.648  1.00  0.00    -0.235 OA 
HETATM   13  O   UNL     2     -11.395   9.729  69.484  1.00  0.00    -0.190 OA 
ENDBRANCH   5   9
ENDBRANCH   3   5
TORSDOF 3
ENDMDL
MODEL      205
REMARK 921   NORMALIZED FREE ENERGY PREDICTED BY IDOCK:   -1.89 KCAL/MOL
REMARK 922        TOTAL FREE ENERGY PREDICTED BY IDOCK:   -2.68 KCAL/MOL
REMARK 923 INTER-LIGAND FREE ENERGY PREDICTED BY IDOCK:   -2.52 KCAL/MOL
REMARK 924 INTRA-LIGAND FREE ENERGY PREDICTED BY IDOCK:   -0.16 KCAL/MOL
REMARK 927      BINDING AFFINITY PREDICTED BY RF-SCORE:    0.00 PKD
ROOT
HETATM    1 CA   UNL     1      -7.749  11.567  64.921  1.00  0.00    -0.336 Ca 
HETATM    2  O   UNL     2      -9.853  11.890  64.653  1.00  0.00    -0.321 OA 
HETATM    3  C   UNL     2     -10.036  13.332  64.801  1.00  0.00    -0.227 C  
HETATM    4  H   UNL     2      -9.863  11.628  63.740  1.00  0.00     0.000 HD 
ENDROOT
BRANCH   3   5
HETATM    5  C   UNL     2     -10.019  13.759  66.285  1.00  0.00    -0.305 C  
BRANCH   5   6
HETATM    6  C   UNL     2     -10.966  14.904  66.623  1.00  0.00    -0.325 C  
HETATM    7  H   UNL     2     -12.173  15.425  68.134  1.00  0.00     0.000 HD 
HETATM    8  O   UNL     2     -11.583  14.711  67.924  1.00  0.00    -0.319 OA 
ENDBRANCH   5   6
BRANCH   5   9
HETATM    9  O   UNL     2     -10.382  12.684  67.121  1.00  0.00    -0.230 OA 
HETATM   10  O   UNL     2      -8.658  13.603  68.239  1.00  0.00    -0.164 OA 
HETATM   11  P   UNL     2      -9.144  12.130  68.196  1.00  0.00    -0.170 P  
HETATM   12  O   UNL     2      -8.765  11.236  66.989  1.00  0.00    -0.144 OA 
HETATM   13  O   UNL     2      -8.036  11.635  69.158  1.00  0.00     0.020 OA 
ENDBRANCH   5   9
ENDBRANCH   3   5
TORSDOF 3
ENDMDL
MODEL      206
REMARK 921   NORMALIZED FREE ENERGY PREDICTED BY IDOCK:   -1.88 KCAL/MOL
REMARK 922        TOTAL FREE ENERGY PREDICTED BY IDOCK:   -2.67 KCAL/MOL
REMARK 923 INTER-LIGAND FREE ENERGY PREDICTED BY IDOCK:   -2.37 KCAL/MOL
REMARK 924 INTRA-LIGAND FREE ENERGY PREDICTED BY IDOCK:   -0.30 KCAL/MOL
REMARK 927      BINDING AFFINITY PREDICTED BY RF-SCORE:    0.00 PKD
ROOT
HETATM    1 CA   UNL     1      -6.905   8.863  68.836  1.00  0.00    -0.051 Ca 
HETATM    2  O   UNL     2      -7.839  10.079  70.337  1.00  0.00    -0.316 OA 
HETATM    3  C   UNL     2      -8.940   9.268  70.851  1.00  0.00    -0.209 C  
HETATM    4  H   UNL     2      -7.094  10.073  70.927  1.00  0.00     0.000 HD 
ENDROOT
BRANCH   3   5
HETATM    5  C   UNL     2     -10.152   9.279  69.892  1.00  0.00    -0.209 C  
BRANCH   5   6
HETATM    6  C   UNL     2     -11.505   9.361  70.586  1.00  0.00    -0.284 C  
HETATM    7  H   UNL     2     -12.766   8.113  71.516  1.00  0.00     0.000 HD 
HETATM    8  O   UNL     2     -11.922   8.061  71.084  1.00  0.00    -0.293 OA 
ENDBRANCH   5   6
BRANCH   5   9
HETATM    9  O   UNL     2     -10.087  10.381  69.014  1.00  0.00    -0.192 OA 
HETATM   10  O   UNL     2     -10.895   8.752  67.686  1.00  0.00    -0.190 OA 
HETATM   11  P   UNL     2     -10.022   9.984  67.332  1.00  0.00    -0.222 P  
HETATM   12  O   UNL     2      -8.496   9.941  67.599  1.00  0.00    -0.115 OA 
HETATM   13  O   UNL     2      -9.962   9.629  65.826  1.00  0.00    -0.293 OA 
ENDBRANCH   5   9
ENDBRANCH   3   5
TORSDOF 3
ENDMDL
MODEL      207
REMARK 921   NORMALIZED FREE ENERGY PREDICTED BY IDOCK:   -1.87 KCAL/MOL
REMARK 922        TOTAL FREE ENERGY PREDICTED BY IDOCK:   -2.65 KCAL/MOL
REMARK 923 INTER-LIGAND FREE ENERGY PREDICTED BY IDOCK:   -2.30 KCAL/MOL
REMARK 924 INTRA-LIGAND FREE ENERGY PREDICTED BY IDOCK:   -0.36 KCAL/MOL
REMARK 927      BINDING AFFINITY PREDICTED BY RF-SCORE:    0.00 PKD
ROOT
HETATM    1 CA   UNL     1      -9.828   9.651  66.806  1.00  0.00    -0.149 Ca 
HETATM    2  O   UNL     2     -11.415   9.621  68.249  1.00  0.00    -0.502 OA 
HETATM    3  C   UNL     2     -10.751   9.442  69.539  1.00  0.00    -0.222 C  
HETATM    4  H   UNL     2     -11.673  10.525  68.110  1.00  0.00     0.000 HD 
ENDROOT
BRANCH   3   5
HETATM    5  C   UNL     2     -10.332   7.973  69.765  1.00  0.00    -0.219 C  
BRANCH   5   6
HETATM    6  C   UNL     2     -10.691   7.031  68.623  1.00  0.00    -0.189 C  
HETATM    7  H   UNL     2     -10.100   6.706  66.737  1.00  0.00     0.000 HD 
HETATM    8  O   UNL     2      -9.876   7.293  67.449  1.00  0.00    -0.140 OA 
ENDBRANCH   5   6
BRANCH   5   9
HETATM    9  O   UNL     2      -8.937   7.870  69.942  1.00  0.00    -0.144 OA 
HETATM   10  O   UNL     2      -9.733   6.676  71.677  1.00  0.00    -0.164 OA 
HETATM   11  P   UNL     2      -8.420   7.493  71.549  1.00  0.00    -0.119 P  
HETATM   12  O   UNL     2      -8.460   9.033  71.716  1.00  0.00    -0.351 OA 
HETATM   13  O   UNL     2      -7.958   7.156  72.988  1.00  0.00    -0.099 OA 
ENDBRANCH   5   9
ENDBRANCH   3   5
TORSDOF 3
ENDMDL
MODEL      208
REMARK 921   NORMALIZED FREE ENERGY PREDICTED BY IDOCK:   -1.87 KCAL/MOL
REMARK 922        TOTAL FREE ENERGY PREDICTED BY IDOCK:   -2.65 KCAL/MOL
REMARK 923 INTER-LIGAND FREE ENERGY PREDICTED BY IDOCK:   -2.31 KCAL/MOL
REMARK 924 INTRA-LIGAND FREE ENERGY PREDICTED BY IDOCK:   -0.34 KCAL/MOL
REMARK 927      BINDING AFFINITY PREDICTED BY RF-SCORE:    0.00 PKD
ROOT
HETATM    1 CA   UNL     1      -7.801   6.612  67.186  1.00  0.00    -0.089 Ca 
HETATM    2  O   UNL     2      -7.752   8.109  68.723  1.00  0.00    -0.103 OA 
HETATM    3  C   UNL     2      -8.824   7.741  69.644  1.00  0.00    -0.139 C  
HETATM    4  H   UNL     2      -6.899   7.857  69.058  1.00  0.00     0.000 HD 
ENDROOT
BRANCH   3   5
HETATM    5  C   UNL     2     -10.210   8.149  69.099  1.00  0.00    -0.214 C  
BRANCH   5   6
HETATM    6  C   UNL     2     -10.707   7.298  67.937  1.00  0.00    -0.172 C  
HETATM    7  H   UNL     2     -10.187   6.948  66.035  1.00  0.00     0.000 HD 
HETATM    8  O   UNL     2      -9.877   7.478  66.759  1.00  0.00    -0.201 OA 
ENDBRANCH   5   6
BRANCH   5   9
HETATM    9  O   UNL     2     -11.193   8.060  70.106  1.00  0.00    -0.238 OA 
HETATM   10  O   UNL     2     -11.526  10.131  69.290  1.00  0.00    -0.197 OA 
HETATM   11  P   UNL     2     -11.768   9.573  70.717  1.00  0.00    -0.276 P  
HETATM   12  O   UNL     2     -10.571   9.416  71.687  1.00  0.00    -0.340 OA 
HETATM   13  O   UNL     2     -12.282  10.928  71.263  1.00  0.00    -0.341 OA 
ENDBRANCH   5   9
ENDBRANCH   3   5
TORSDOF 3
ENDMDL
MODEL      209
REMARK 921   NORMALIZED FREE ENERGY PREDICTED BY IDOCK:   -1.87 KCAL/MOL
REMARK 922        TOTAL FREE ENERGY PREDICTED BY IDOCK:   -2.65 KCAL/MOL
REMARK 923 INTER-LIGAND FREE ENERGY PREDICTED BY IDOCK:   -2.39 KCAL/MOL
REMARK 924 INTRA-LIGAND FREE ENERGY PREDICTED BY IDOCK:   -0.26 KCAL/MOL
REMARK 927      BINDING AFFINITY PREDICTED BY RF-SCORE:    0.00 PKD
ROOT
HETATM    1 CA   UNL     1      -9.670   9.699  66.667  1.00  0.00    -0.148 Ca 
HETATM    2  O   UNL     2     -11.307   9.720  68.053  1.00  0.00    -0.524 OA 
HETATM    3  C   UNL     2     -10.711   9.401  69.348  1.00  0.00    -0.217 C  
HETATM    4  H   UNL     2     -11.480  10.650  67.966  1.00  0.00     0.000 HD 
ENDROOT
BRANCH   3   5
HETATM    5  C   UNL     2     -10.430   7.889  69.490  1.00  0.00    -0.226 C  
BRANCH   5   6
HETATM    6  C   UNL     2     -10.577   7.350  70.907  1.00  0.00    -0.223 C  
HETATM    7  H   UNL     2     -11.931   7.421  72.381  1.00  0.00     0.000 HD 
HETATM    8  O   UNL     2     -11.840   7.756  71.498  1.00  0.00    -0.276 OA 
ENDBRANCH   5   6
BRANCH   5   9
HETATM    9  O   UNL     2     -11.311   7.137  68.685  1.00  0.00     0.078 OA 
HETATM   10  O   UNL     2      -9.357   6.057  68.400  1.00  0.00    -0.120 OA 
HETATM   11  P   UNL     2     -10.561   6.207  67.434  1.00  0.00    -0.342 P  
HETATM   12  O   UNL     2     -10.731   7.517  66.625  1.00  0.00    -0.239 OA 
HETATM   13  O   UNL     2      -9.889   5.376  66.314  1.00  0.00    -0.158 OA 
ENDBRANCH   5   9
ENDBRANCH   3   5
TORSDOF 3
ENDMDL
MODEL      210
REMARK 921   NORMALIZED FREE ENERGY PREDICTED BY IDOCK:   -1.85 KCAL/MOL
REMARK 922        TOTAL FREE ENERGY PREDICTED BY IDOCK:   -2.63 KCAL/MOL
REMARK 923 INTER-LIGAND FREE ENERGY PREDICTED BY IDOCK:   -2.51 KCAL/MOL
REMARK 924 INTRA-LIGAND FREE ENERGY PREDICTED BY IDOCK:   -0.12 KCAL/MOL
REMARK 927      BINDING AFFINITY PREDICTED BY RF-SCORE:    0.00 PKD
ROOT
HETATM    1 CA   UNL     1     -10.279   4.735  67.430  1.00  0.00    -0.152 Ca 
HETATM    2  O   UNL     2     -11.595   6.421  67.256  1.00  0.00    -0.695 OA 
HETATM    3  C   UNL     2     -10.713   7.585  67.198  1.00  0.00    -0.309 C  
HETATM    4  H   UNL     2     -11.922   6.185  66.395  1.00  0.00     0.000 HD 
ENDROOT
BRANCH   3   5
HETATM    5  C   UNL     2     -10.183   7.968  68.596  1.00  0.00    -0.206 C  
BRANCH   5   6
HETATM    6  C   UNL     2     -10.502   6.959  69.692  1.00  0.00    -0.218 C  
HETATM    7  H   UNL     2     -12.015   6.571  70.946  1.00  0.00     0.000 HD 
HETATM    8  O   UNL     2     -11.816   7.200  70.263  1.00  0.00    -0.233 OA 
ENDBRANCH   5   6
BRANCH   5   9
HETATM    9  O   UNL     2      -8.779   8.106  68.580  1.00  0.00    -0.133 OA 
HETATM   10  O   UNL     2      -9.443  10.041  69.521  1.00  0.00    -0.204 OA 
HETATM   11  P   UNL     2      -8.194   9.733  68.655  1.00  0.00    -0.114 P  
HETATM   12  O   UNL     2      -8.335   9.649  67.115  1.00  0.00    -0.119 OA 
HETATM   13  O   UNL     2      -7.670  11.188  68.722  1.00  0.00    -0.121 OA 
ENDBRANCH   5   9
ENDBRANCH   3   5
TORSDOF 3
ENDMDL
MODEL      211
REMARK 921   NORMALIZED FREE ENERGY PREDICTED BY IDOCK:   -1.84 KCAL/MOL
REMARK 922        TOTAL FREE ENERGY PREDICTED BY IDOCK:   -2.63 KCAL/MOL
REMARK 923 INTER-LIGAND FREE ENERGY PREDICTED BY IDOCK:   -2.50 KCAL/MOL
REMARK 924 INTRA-LIGAND FREE ENERGY PREDICTED BY IDOCK:   -0.13 KCAL/MOL
REMARK 927      BINDING AFFINITY PREDICTED BY RF-SCORE:    0.00 PKD
ROOT
HETATM    1 CA   UNL     1      -9.511   7.897  64.899  1.00  0.00    -0.385 Ca 
HETATM    2  O   UNL     2     -10.273   6.260  66.057  1.00  0.00    -0.400 OA 
HETATM    3  C   UNL     2     -10.790   6.869  67.281  1.00  0.00    -0.356 C  
HETATM    4  H   UNL     2     -10.972   6.044  65.450  1.00  0.00     0.000 HD 
ENDROOT
BRANCH   3   5
HETATM    5  C   UNL     2      -9.655   7.219  68.267  1.00  0.00    -0.148 C  
BRANCH   5   6
HETATM    6  C   UNL     2      -8.381   7.733  67.608  1.00  0.00    -0.121 C  
HETATM    7  H   UNL     2      -6.787   6.960  66.673  1.00  0.00     0.000 HD 
HETATM    8  O   UNL     2      -7.581   6.640  67.084  1.00  0.00    -0.092 OA 
ENDBRANCH   5   6
BRANCH   5   9
HETATM    9  O   UNL     2     -10.066   8.220  69.171  1.00  0.00    -0.192 OA 
HETATM   10  O   UNL     2      -8.954   6.790  70.508  1.00  0.00    -0.150 OA 
HETATM   11  P   UNL     2     -10.142   7.734  70.830  1.00  0.00    -0.186 P  
HETATM   12  O   UNL     2     -11.580   7.312  70.440  1.00  0.00    -0.279 OA 
HETATM   13  O   UNL     2     -10.210   7.299  72.314  1.00  0.00    -0.189 OA 
ENDBRANCH   5   9
ENDBRANCH   3   5
TORSDOF 3
ENDMDL
MODEL      212
REMARK 921   NORMALIZED FREE ENERGY PREDICTED BY IDOCK:   -1.84 KCAL/MOL
REMARK 922        TOTAL FREE ENERGY PREDICTED BY IDOCK:   -2.63 KCAL/MOL
REMARK 923 INTER-LIGAND FREE ENERGY PREDICTED BY IDOCK:   -3.15 KCAL/MOL
REMARK 924 INTRA-LIGAND FREE ENERGY PREDICTED BY IDOCK:    0.53 KCAL/MOL
REMARK 927      BINDING AFFINITY PREDICTED BY RF-SCORE:    0.00 PKD
ROOT
HETATM    1 CA   UNL     1     -10.380  18.794  65.605  1.00  0.00    -0.333 Ca 
HETATM    2  O   UNL     2      -8.906  17.244  65.764  1.00  0.00    -0.530 OA 
HETATM    3  C   UNL     2      -9.670  16.001  65.851  1.00  0.00    -0.343 C  
HETATM    4  H   UNL     2      -8.549  17.376  64.893  1.00  0.00     0.000 HD 
ENDROOT
BRANCH   3   5
HETATM    5  C   UNL     2     -10.249  15.786  67.267  1.00  0.00    -0.268 C  
BRANCH   5   6
HETATM    6  C   UNL     2     -11.457  14.859  67.321  1.00  0.00    -0.340 C  
HETATM    7  H   UNL     2     -12.108  13.348  68.462  1.00  0.00     0.000 HD 
HETATM    8  O   UNL     2     -11.355  13.925  68.429  1.00  0.00    -0.254 OA 
ENDBRANCH   5   6
BRANCH   5   9
HETATM    9  O   UNL     2      -9.280  15.228  68.126  1.00  0.00    -0.179 OA 
HETATM   10  O   UNL     2      -9.208  17.410  68.672  1.00  0.00    -0.270 OA 
HETATM   11  P   UNL     2      -8.092  16.335  68.721  1.00  0.00    -0.241 P  
HETATM   12  O   UNL     2      -7.353  15.942  67.418  1.00  0.00    -0.155 OA 
HETATM   13  O   UNL     2      -7.028  17.326  69.254  1.00  0.00    -0.239 OA 
ENDBRANCH   5   9
ENDBRANCH   3   5
TORSDOF 3
ENDMDL
MODEL      213
REMARK 921   NORMALIZED FREE ENERGY PREDICTED BY IDOCK:   -1.84 KCAL/MOL
REMARK 922        TOTAL FREE ENERGY PREDICTED BY IDOCK:   -2.62 KCAL/MOL
REMARK 923 INTER-LIGAND FREE ENERGY PREDICTED BY IDOCK:   -2.47 KCAL/MOL
REMARK 924 INTRA-LIGAND FREE ENERGY PREDICTED BY IDOCK:   -0.15 KCAL/MOL
REMARK 927      BINDING AFFINITY PREDICTED BY RF-SCORE:    0.00 PKD
ROOT
HETATM    1 CA   UNL     1      -7.404  12.559  66.176  1.00  0.00    -0.352 Ca 
HETATM    2  O   UNL     2      -8.462  11.054  65.074  1.00  0.00    -0.363 OA 
HETATM    3  C   UNL     2      -9.865  11.232  65.441  1.00  0.00    -0.237 C  
HETATM    4  H   UNL     2      -8.273  11.426  64.220  1.00  0.00     0.000 HD 
ENDROOT
BRANCH   3   5
HETATM    5  C   UNL     2     -10.173  10.627  66.829  1.00  0.00    -0.233 C  
BRANCH   5   6
HETATM    6  C   UNL     2     -11.333  11.288  67.562  1.00  0.00    -0.288 C  
HETATM    7  H   UNL     2     -11.706  13.038  68.461  1.00  0.00     0.000 HD 
HETATM    8  O   UNL     2     -10.983  12.627  68.004  1.00  0.00    -0.218 OA 
ENDBRANCH   5   6
BRANCH   5   9
HETATM    9  O   UNL     2     -10.498   9.260  66.719  1.00  0.00    -0.244 OA 
HETATM   10  O   UNL     2      -9.027   9.271  68.423  1.00  0.00    -0.129 OA 
HETATM   11  P   UNL     2      -9.331   8.166  67.378  1.00  0.00    -0.153 P  
HETATM   12  O   UNL     2      -8.719   8.268  65.959  1.00  0.00    -0.138 OA 
HETATM   13  O   UNL     2      -8.286   7.187  67.968  1.00  0.00    -0.118 OA 
ENDBRANCH   5   9
ENDBRANCH   3   5
TORSDOF 3
ENDMDL
MODEL      214
REMARK 921   NORMALIZED FREE ENERGY PREDICTED BY IDOCK:   -1.84 KCAL/MOL
REMARK 922        TOTAL FREE ENERGY PREDICTED BY IDOCK:   -2.62 KCAL/MOL
REMARK 923 INTER-LIGAND FREE ENERGY PREDICTED BY IDOCK:   -2.68 KCAL/MOL
REMARK 924 INTRA-LIGAND FREE ENERGY PREDICTED BY IDOCK:    0.06 KCAL/MOL
REMARK 927      BINDING AFFINITY PREDICTED BY RF-SCORE:    0.00 PKD
ROOT
HETATM    1 CA   UNL     1     -10.217  18.306  69.461  1.00  0.00    -0.340 Ca 
HETATM    2  O   UNL     2     -10.596  18.447  67.354  1.00  0.00    -0.406 OA 
HETATM    3  C   UNL     2     -11.081  17.125  66.966  1.00  0.00     0.235 C  
HETATM    4  H   UNL     2     -11.307  19.072  67.438  1.00  0.00     0.000 HD 
ENDROOT
BRANCH   3   5
HETATM    5  C   UNL     2      -9.925  16.110  66.830  1.00  0.00    -0.258 C  
BRANCH   5   6
HETATM    6  C   UNL     2      -8.571  16.630  67.298  1.00  0.00    -0.191 C  
HETATM    7  H   UNL     2      -7.074  16.002  68.470  1.00  0.00     0.000 HD 
HETATM    8  O   UNL     2      -7.917  15.678  68.179  1.00  0.00    -0.126 OA 
ENDBRANCH   5   6
BRANCH   5   9
HETATM    9  O   UNL     2     -10.186  14.947  67.583  1.00  0.00    -0.234 OA 
HETATM   10  O   UNL     2      -9.938  14.129  65.500  1.00  0.00    -0.327 OA 
HETATM   11  P   UNL     2     -10.796  13.602  66.681  1.00  0.00    -0.287 P  
HETATM   12  O   UNL     2     -12.162  14.265  66.986  1.00  0.00    -0.424 OA 
HETATM   13  O   UNL     2     -11.341  12.399  65.873  1.00  0.00    -0.322 OA 
ENDBRANCH   5   9
ENDBRANCH   3   5
TORSDOF 3
ENDMDL
MODEL      215
REMARK 921   NORMALIZED FREE ENERGY PREDICTED BY IDOCK:   -1.84 KCAL/MOL
REMARK 922        TOTAL FREE ENERGY PREDICTED BY IDOCK:   -2.62 KCAL/MOL
REMARK 923 INTER-LIGAND FREE ENERGY PREDICTED BY IDOCK:   -2.34 KCAL/MOL
REMARK 924 INTRA-LIGAND FREE ENERGY PREDICTED BY IDOCK:   -0.28 KCAL/MOL
REMARK 927      BINDING AFFINITY PREDICTED BY RF-SCORE:    0.00 PKD
ROOT
HETATM    1 CA   UNL     1      -7.758   6.440  68.545  1.00  0.00    -0.084 Ca 
HETATM    2  O   UNL     2      -8.580   5.937  70.462  1.00  0.00    -0.132 OA 
HETATM    3  C   UNL     2     -10.018   6.158  70.327  1.00  0.00    -0.183 C  
HETATM    4  H   UNL     2      -8.360   5.014  70.409  1.00  0.00     0.000 HD 
ENDROOT
BRANCH   3   5
HETATM    5  C   UNL     2     -10.374   7.659  70.414  1.00  0.00    -0.214 C  
BRANCH   5   6
HETATM    6  C   UNL     2      -9.637   8.541  69.415  1.00  0.00    -0.170 C  
HETATM    7  H   UNL     2      -7.782   9.255  69.163  1.00  0.00     0.000 HD 
HETATM    8  O   UNL     2      -8.241   8.705  69.786  1.00  0.00    -0.114 OA 
ENDBRANCH   5   6
BRANCH   5   9
HETATM    9  O   UNL     2     -11.750   7.862  70.184  1.00  0.00    -0.037 OA 
HETATM   10  O   UNL     2     -11.337   9.259  71.900  1.00  0.00    -0.374 OA 
HETATM   11  P   UNL     2     -12.638   8.505  71.522  1.00  0.00    -0.277 P  
HETATM   12  O   UNL     2     -12.787   7.008  71.893  1.00  0.00    -0.324 OA 
HETATM   13  O   UNL     2     -13.433   9.079  72.721  1.00  0.00    -0.428 OA 
ENDBRANCH   5   9
ENDBRANCH   3   5
TORSDOF 3
ENDMDL
MODEL      216
REMARK 921   NORMALIZED FREE ENERGY PREDICTED BY IDOCK:   -1.84 KCAL/MOL
REMARK 922        TOTAL FREE ENERGY PREDICTED BY IDOCK:   -2.62 KCAL/MOL
REMARK 923 INTER-LIGAND FREE ENERGY PREDICTED BY IDOCK:   -2.35 KCAL/MOL
REMARK 924 INTRA-LIGAND FREE ENERGY PREDICTED BY IDOCK:   -0.27 KCAL/MOL
REMARK 927      BINDING AFFINITY PREDICTED BY RF-SCORE:    0.00 PKD
ROOT
HETATM    1 CA   UNL     1      -9.772   5.406  72.101  1.00  0.00    -0.148 Ca 
HETATM    2  O   UNL     2     -10.941   7.063  71.400  1.00  0.00    -0.235 OA 
HETATM    3  C   UNL     2     -11.591   6.581  70.183  1.00  0.00    -0.402 C  
HETATM    4  H   UNL     2     -11.538   7.064  72.139  1.00  0.00     0.000 HD 
ENDROOT
BRANCH   3   5
HETATM    5  C   UNL     2     -10.620   6.579  68.981  1.00  0.00    -0.245 C  
BRANCH   5   6
HETATM    6  C   UNL     2     -10.282   7.963  68.441  1.00  0.00    -0.202 C  
HETATM    7  H   UNL     2     -10.417   8.942  66.699  1.00  0.00     0.000 HD 
HETATM    8  O   UNL     2     -10.628   8.079  67.035  1.00  0.00    -0.335 OA 
ENDBRANCH   5   6
BRANCH   5   9
HETATM    9  O   UNL     2      -9.394   5.977  69.327  1.00  0.00    -0.132 OA 
HETATM   10  O   UNL     2     -10.031   4.776  67.533  1.00  0.00    -0.174 OA 
HETATM   11  P   UNL     2      -9.177   4.357  68.758  1.00  0.00    -0.158 P  
HETATM   12  O   UNL     2      -9.879   4.000  70.092  1.00  0.00    -0.210 OA 
HETATM   13  O   UNL     2      -8.983   2.908  68.248  1.00  0.00    -0.111 OA 
ENDBRANCH   5   9
ENDBRANCH   3   5
TORSDOF 3
ENDMDL
MODEL      217
REMARK 921   NORMALIZED FREE ENERGY PREDICTED BY IDOCK:   -1.82 KCAL/MOL
REMARK 922        TOTAL FREE ENERGY PREDICTED BY IDOCK:   -2.60 KCAL/MOL
REMARK 923 INTER-LIGAND FREE ENERGY PREDICTED BY IDOCK:   -2.45 KCAL/MOL
REMARK 924 INTRA-LIGAND FREE ENERGY PREDICTED BY IDOCK:   -0.15 KCAL/MOL
REMARK 927      BINDING AFFINITY PREDICTED BY RF-SCORE:    0.00 PKD
ROOT
HETATM    1 CA   UNL     1     -12.029   6.868  67.998  1.00  0.00    -0.519 Ca 
HETATM    2  O   UNL     2     -11.529   7.132  70.068  1.00  0.00    -0.434 OA 
HETATM    3  C   UNL     2     -11.731   8.555  70.328  1.00  0.00     0.093 C  
HETATM    4  H   UNL     2     -12.252   6.609  70.397  1.00  0.00     0.000 HD 
ENDROOT
BRANCH   3   5
HETATM    5  C   UNL     2     -10.557   9.405  69.793  1.00  0.00    -0.231 C  
BRANCH   5   6
HETATM    6  C   UNL     2     -10.963  10.762  69.234  1.00  0.00    -0.241 C  
HETATM    7  H   UNL     2     -12.299  11.479  67.925  1.00  0.00     0.000 HD 
HETATM    8  O   UNL     2     -12.046  10.633  68.274  1.00  0.00    -0.423 OA 
ENDBRANCH   5   6
BRANCH   5   9
HETATM    9  O   UNL     2      -9.618   9.660  70.813  1.00  0.00    -0.235 OA 
HETATM   10  O   UNL     2      -8.341   8.747  69.200  1.00  0.00    -0.121 OA 
HETATM   11  P   UNL     2      -8.170   8.716  70.741  1.00  0.00    -0.175 P  
HETATM   12  O   UNL     2      -9.008   7.720  71.582  1.00  0.00    -0.124 OA 
HETATM   13  O   UNL     2      -6.875   7.870  70.676  1.00  0.00    -0.041 OA 
ENDBRANCH   5   9
ENDBRANCH   3   5
TORSDOF 3
ENDMDL
MODEL      218
REMARK 921   NORMALIZED FREE ENERGY PREDICTED BY IDOCK:   -1.79 KCAL/MOL
REMARK 922        TOTAL FREE ENERGY PREDICTED BY IDOCK:   -2.56 KCAL/MOL
REMARK 923 INTER-LIGAND FREE ENERGY PREDICTED BY IDOCK:   -2.49 KCAL/MOL
REMARK 924 INTRA-LIGAND FREE ENERGY PREDICTED BY IDOCK:   -0.07 KCAL/MOL
REMARK 927      BINDING AFFINITY PREDICTED BY RF-SCORE:    0.00 PKD
ROOT
HETATM    1 CA   UNL     1     -11.857  13.407  66.420  1.00  0.00    -0.294 Ca 
HETATM    2  O   UNL     2     -10.246  12.785  67.693  1.00  0.00    -0.213 OA 
HETATM    3  C   UNL     2     -10.558  13.353  69.003  1.00  0.00    -0.077 C  
HETATM    4  H   UNL     2     -10.459  11.860  67.652  1.00  0.00     0.000 HD 
ENDROOT
BRANCH   3   5
HETATM    5  C   UNL     2     -10.212  14.857  69.069  1.00  0.00    -0.243 C  
BRANCH   5   6
HETATM    6  C   UNL     2     -10.832  15.596  70.248  1.00  0.00    -0.350 C  
HETATM    7  H   UNL     2     -12.670  15.998  70.937  1.00  0.00     0.000 HD 
HETATM    8  O   UNL     2     -12.283  15.537  70.202  1.00  0.00    -0.357 OA 
ENDBRANCH   5   6
BRANCH   5   9
HETATM    9  O   UNL     2      -8.819  15.048  69.169  1.00  0.00    -0.201 OA 
HETATM   10  O   UNL     2      -9.444  16.746  67.830  1.00  0.00    -0.225 OA 
HETATM   11  P   UNL     2      -8.104  15.968  67.889  1.00  0.00    -0.148 P  
HETATM   12  O   UNL     2      -7.997  14.579  67.211  1.00  0.00    -0.193 OA 
HETATM   13  O   UNL     2      -7.464  16.791  66.744  1.00  0.00    -0.191 OA 
ENDBRANCH   5   9
ENDBRANCH   3   5
TORSDOF 3
ENDMDL
MODEL      219
REMARK 921   NORMALIZED FREE ENERGY PREDICTED BY IDOCK:   -1.77 KCAL/MOL
REMARK 922        TOTAL FREE ENERGY PREDICTED BY IDOCK:   -2.54 KCAL/MOL
REMARK 923 INTER-LIGAND FREE ENERGY PREDICTED BY IDOCK:   -2.28 KCAL/MOL
REMARK 924 INTRA-LIGAND FREE ENERGY PREDICTED BY IDOCK:   -0.26 KCAL/MOL
REMARK 927      BINDING AFFINITY PREDICTED BY RF-SCORE:    0.00 PKD
ROOT
HETATM    1 CA   UNL     1      -9.561   7.596  68.788  1.00  0.00    -0.146 Ca 
HETATM    2  O   UNL     2      -8.054   6.538  69.887  1.00  0.00    -0.117 OA 
HETATM    3  C   UNL     2      -8.778   5.505  70.624  1.00  0.00    -0.129 C  
HETATM    4  H   UNL     2      -7.622   6.182  69.118  1.00  0.00     0.000 HD 
ENDROOT
BRANCH   3   5
HETATM    5  C   UNL     2      -9.479   6.082  71.874  1.00  0.00    -0.150 C  
BRANCH   5   6
HETATM    6  C   UNL     2      -8.540   6.422  73.024  1.00  0.00    -0.119 C  
HETATM    7  H   UNL     2      -7.030   5.546  74.007  1.00  0.00     0.000 HD 
HETATM    8  O   UNL     2      -7.615   5.333  73.290  1.00  0.00    -0.094 OA 
ENDBRANCH   5   6
BRANCH   5   9
HETATM    9  O   UNL     2     -10.168   7.270  71.558  1.00  0.00    -0.194 OA 
HETATM   10  O   UNL     2     -11.763   6.040  72.565  1.00  0.00    -0.292 OA 
HETATM   11  P   UNL     2     -11.890   7.125  71.464  1.00  0.00    -0.355 P  
HETATM   12  O   UNL     2     -11.584   6.756  69.991  1.00  0.00    -0.343 OA 
HETATM   13  O   UNL     2     -13.430   6.995  71.379  1.00  0.00    -0.345 OA 
ENDBRANCH   5   9
ENDBRANCH   3   5
TORSDOF 3
ENDMDL
MODEL      220
REMARK 921   NORMALIZED FREE ENERGY PREDICTED BY IDOCK:   -1.77 KCAL/MOL
REMARK 922        TOTAL FREE ENERGY PREDICTED BY IDOCK:   -2.54 KCAL/MOL
REMARK 923 INTER-LIGAND FREE ENERGY PREDICTED BY IDOCK:   -2.26 KCAL/MOL
REMARK 924 INTRA-LIGAND FREE ENERGY PREDICTED BY IDOCK:   -0.28 KCAL/MOL
REMARK 927      BINDING AFFINITY PREDICTED BY RF-SCORE:    0.00 PKD
ROOT
HETATM    1 CA   UNL     1     -10.404   7.362  65.887  1.00  0.00    -0.441 Ca 
HETATM    2  O   UNL     2     -11.246   5.389  65.840  1.00  0.00    -0.779 OA 
HETATM    3  C   UNL     2     -10.156   4.502  66.242  1.00  0.00    -0.254 C  
HETATM    4  H   UNL     2     -11.856   5.540  66.552  1.00  0.00     0.000 HD 
ENDROOT
BRANCH   3   5
HETATM    5  C   UNL     2      -9.164   4.257  65.083  1.00  0.00    -0.151 C  
BRANCH   5   6
HETATM    6  C   UNL     2      -9.718   3.404  63.949  1.00  0.00    -0.153 C  
HETATM    7  H   UNL     2      -9.990   3.573  61.972  1.00  0.00     0.000 HD 
HETATM    8  O   UNL     2      -9.644   4.104  62.679  1.00  0.00    -0.131 OA 
ENDBRANCH   5   6
BRANCH   5   9
HETATM    9  O   UNL     2      -8.759   5.476  64.503  1.00  0.00    -0.101 OA 
HETATM   10  O   UNL     2      -6.797   4.554  65.109  1.00  0.00    -0.051 OA 
HETATM   11  P   UNL     2      -7.201   6.047  64.991  1.00  0.00    -0.073 P  
HETATM   12  O   UNL     2      -8.014   6.709  66.131  1.00  0.00    -0.102 OA 
HETATM   13  O   UNL     2      -5.806   6.558  65.429  1.00  0.00    -0.025 OA 
ENDBRANCH   5   9
ENDBRANCH   3   5
TORSDOF 3
ENDMDL
MODEL      221
REMARK 921   NORMALIZED FREE ENERGY PREDICTED BY IDOCK:   -1.75 KCAL/MOL
REMARK 922        TOTAL FREE ENERGY PREDICTED BY IDOCK:   -2.51 KCAL/MOL
REMARK 923 INTER-LIGAND FREE ENERGY PREDICTED BY IDOCK:   -2.66 KCAL/MOL
REMARK 924 INTRA-LIGAND FREE ENERGY PREDICTED BY IDOCK:    0.15 KCAL/MOL
REMARK 927      BINDING AFFINITY PREDICTED BY RF-SCORE:    0.00 PKD
ROOT
HETATM    1 CA   UNL     1     -12.279   6.538  67.370  1.00  0.00    -0.631 Ca 
HETATM    2  O   UNL     2     -11.856   6.445  69.472  1.00  0.00    -0.592 OA 
HETATM    3  C   UNL     2     -10.948   7.561  69.725  1.00  0.00    -0.184 C  
HETATM    4  H   UNL     2     -12.744   6.645  69.746  1.00  0.00     0.000 HD 
ENDROOT
BRANCH   3   5
HETATM    5  C   UNL     2      -9.506   7.235  69.280  1.00  0.00    -0.153 C  
BRANCH   5   6
HETATM    6  C   UNL     2      -9.410   6.418  67.998  1.00  0.00    -0.115 C  
HETATM    7  H   UNL     2      -8.105   6.169  66.499  1.00  0.00     0.000 HD 
HETATM    8  O   UNL     2      -8.164   6.679  67.298  1.00  0.00    -0.118 OA 
ENDBRANCH   5   6
BRANCH   5   9
HETATM    9  O   UNL     2      -8.771   8.417  69.053  1.00  0.00    -0.139 OA 
HETATM   10  O   UNL     2      -7.668   7.487  70.782  1.00  0.00    -0.081 OA 
HETATM   11  P   UNL     2      -7.841   8.980  70.399  1.00  0.00    -0.150 P  
HETATM   12  O   UNL     2      -9.159   9.712  70.756  1.00  0.00    -0.183 OA 
HETATM   13  O   UNL     2      -7.009   9.484  71.604  1.00  0.00    -0.313 OA 
ENDBRANCH   5   9
ENDBRANCH   3   5
TORSDOF 3
ENDMDL
MODEL      222
REMARK 921   NORMALIZED FREE ENERGY PREDICTED BY IDOCK:   -1.74 KCAL/MOL
REMARK 922        TOTAL FREE ENERGY PREDICTED BY IDOCK:   -2.50 KCAL/MOL
REMARK 923 INTER-LIGAND FREE ENERGY PREDICTED BY IDOCK:   -2.36 KCAL/MOL
REMARK 924 INTRA-LIGAND FREE ENERGY PREDICTED BY IDOCK:   -0.14 KCAL/MOL
REMARK 927      BINDING AFFINITY PREDICTED BY RF-SCORE:    0.00 PKD
ROOT
HETATM    1 CA   UNL     1     -10.225   8.152  65.476  1.00  0.00    -0.448 Ca 
HETATM    2  O   UNL     2     -10.756   6.179  66.128  1.00  0.00    -0.471 OA 
HETATM    3  C   UNL     2     -11.284   6.355  67.479  1.00  0.00    -0.179 C  
HETATM    4  H   UNL     2     -11.453   6.064  65.492  1.00  0.00     0.000 HD 
ENDROOT
BRANCH   3   5
HETATM    5  C   UNL     2     -10.152   6.541  68.513  1.00  0.00    -0.160 C  
BRANCH   5   6
HETATM    6  C   UNL     2     -10.457   7.556  69.607  1.00  0.00    -0.234 C  
HETATM    7  H   UNL     2     -11.770   7.761  71.106  1.00  0.00     0.000 HD 
HETATM    8  O   UNL     2     -11.579   7.128  70.424  1.00  0.00    -0.295 OA 
ENDBRANCH   5   6
BRANCH   5   9
HETATM    9  O   UNL     2      -9.864   5.325  69.167  1.00  0.00    -0.156 OA 
HETATM   10  O   UNL     2      -7.857   5.910  68.331  1.00  0.00    -0.102 OA 
HETATM   11  P   UNL     2      -8.447   4.503  68.612  1.00  0.00    -0.086 P  
HETATM   12  O   UNL     2      -9.440   3.877  67.602  1.00  0.00    -0.176 OA 
HETATM   13  O   UNL     2      -7.178   3.767  68.115  1.00  0.00    -0.054 OA 
ENDBRANCH   5   9
ENDBRANCH   3   5
TORSDOF 3
ENDMDL
MODEL      223
REMARK 921   NORMALIZED FREE ENERGY PREDICTED BY IDOCK:   -1.73 KCAL/MOL
REMARK 922        TOTAL FREE ENERGY PREDICTED BY IDOCK:   -2.49 KCAL/MOL
REMARK 923 INTER-LIGAND FREE ENERGY PREDICTED BY IDOCK:   -2.19 KCAL/MOL
REMARK 924 INTRA-LIGAND FREE ENERGY PREDICTED BY IDOCK:   -0.30 KCAL/MOL
REMARK 927      BINDING AFFINITY PREDICTED BY RF-SCORE:    0.00 PKD
ROOT
HETATM    1 CA   UNL     1      -8.788  12.517  65.498  1.00  0.00    -0.394 Ca 
HETATM    2  O   UNL     2     -10.070  12.569  67.217  1.00  0.00    -0.211 OA 
HETATM    3  C   UNL     2      -9.216  12.183  68.338  1.00  0.00    -0.154 C  
HETATM    4  H   UNL     2     -10.210  13.508  67.190  1.00  0.00     0.000 HD 
ENDROOT
BRANCH   3   5
HETATM    5  C   UNL     2      -8.989  10.655  68.382  1.00  0.00    -0.149 C  
BRANCH   5   6
HETATM    6  C   UNL     2      -9.062  10.047  69.777  1.00  0.00    -0.193 C  
HETATM    7  H   UNL     2      -7.802   9.653  71.284  1.00  0.00     0.000 HD 
HETATM    8  O   UNL     2      -7.757  10.033  70.415  1.00  0.00    -0.227 OA 
ENDBRANCH   5   6
BRANCH   5   9
HETATM    9  O   UNL     2      -9.952   9.982  67.604  1.00  0.00    -0.163 OA 
HETATM   10  O   UNL     2      -8.078   8.811  67.172  1.00  0.00    -0.099 OA 
HETATM   11  P   UNL     2      -9.323   9.061  66.281  1.00  0.00    -0.263 P  
HETATM   12  O   UNL     2      -9.465  10.408  65.528  1.00  0.00    -0.185 OA 
HETATM   13  O   UNL     2      -8.760   8.238  65.097  1.00  0.00    -0.149 OA 
ENDBRANCH   5   9
ENDBRANCH   3   5
TORSDOF 3
ENDMDL
MODEL      224
REMARK 921   NORMALIZED FREE ENERGY PREDICTED BY IDOCK:   -1.73 KCAL/MOL
REMARK 922        TOTAL FREE ENERGY PREDICTED BY IDOCK:   -2.49 KCAL/MOL
REMARK 923 INTER-LIGAND FREE ENERGY PREDICTED BY IDOCK:   -2.32 KCAL/MOL
REMARK 924 INTRA-LIGAND FREE ENERGY PREDICTED BY IDOCK:   -0.16 KCAL/MOL
REMARK 927      BINDING AFFINITY PREDICTED BY RF-SCORE:    0.00 PKD
ROOT
HETATM    1 CA   UNL     1     -11.317   7.350  66.613  1.00  0.00    -0.355 Ca 
HETATM    2  O   UNL     2      -9.808   8.703  67.317  1.00  0.00    -0.167 OA 
HETATM    3  C   UNL     2     -10.189  10.007  66.781  1.00  0.00    -0.232 C  
HETATM    4  H   UNL     2     -10.041   8.619  68.234  1.00  0.00     0.000 HD 
ENDROOT
BRANCH   3   5
HETATM    5  C   UNL     2      -9.811  10.144  65.290  1.00  0.00    -0.319 C  
BRANCH   5   6
HETATM    6  C   UNL     2     -10.697  11.097  64.499  1.00  0.00    -0.297 C  
HETATM    7  H   UNL     2     -10.635  12.056  62.741  1.00  0.00     0.000 HD 
HETATM    8  O   UNL     2     -10.083  11.462  63.234  1.00  0.00    -0.345 OA 
ENDBRANCH   5   6
BRANCH   5   9
HETATM    9  O   UNL     2      -8.491  10.618  65.148  1.00  0.00    -0.175 OA 
HETATM   10  O   UNL     2      -8.462   8.735  63.914  1.00  0.00    -0.168 OA 
HETATM   11  P   UNL     2      -7.319   9.425  64.703  1.00  0.00    -0.115 P  
HETATM   12  O   UNL     2      -7.223   9.228  66.237  1.00  0.00    -0.086 OA 
HETATM   13  O   UNL     2      -6.271   8.357  64.306  1.00  0.00    -0.065 OA 
ENDBRANCH   5   9
ENDBRANCH   3   5
TORSDOF 3
ENDMDL
MODEL      225
REMARK 921   NORMALIZED FREE ENERGY PREDICTED BY IDOCK:   -1.72 KCAL/MOL
REMARK 922        TOTAL FREE ENERGY PREDICTED BY IDOCK:   -2.48 KCAL/MOL
REMARK 923 INTER-LIGAND FREE ENERGY PREDICTED BY IDOCK:   -2.48 KCAL/MOL
REMARK 924 INTRA-LIGAND FREE ENERGY PREDICTED BY IDOCK:   -0.00 KCAL/MOL
REMARK 927      BINDING AFFINITY PREDICTED BY RF-SCORE:    0.00 PKD
ROOT
HETATM    1 CA   UNL     1     -10.832   6.126  67.309  1.00  0.00    -0.158 Ca 
HETATM    2  O   UNL     2      -9.897   6.968  69.046  1.00  0.00    -0.151 OA 
HETATM    3  C   UNL     2     -10.578   8.242  69.263  1.00  0.00    -0.181 C  
HETATM    4  H   UNL     2     -10.208   6.298  69.643  1.00  0.00     0.000 HD 
ENDROOT
BRANCH   3   5
HETATM    5  C   UNL     2     -10.072   9.332  68.292  1.00  0.00    -0.185 C  
BRANCH   5   6
HETATM    6  C   UNL     2      -9.235   8.806  67.134  1.00  0.00    -0.136 C  
HETATM    7  H   UNL     2      -9.448   8.536  65.160  1.00  0.00     0.000 HD 
HETATM    8  O   UNL     2      -9.970   8.865  65.882  1.00  0.00    -0.245 OA 
ENDBRANCH   5   6
BRANCH   5   9
HETATM    9  O   UNL     2     -11.152  10.032  67.716  1.00  0.00    -0.286 OA 
HETATM   10  O   UNL     2      -9.800  11.701  68.390  1.00  0.00    -0.193 OA 
HETATM   11  P   UNL     2     -11.344  11.667  68.250  1.00  0.00    -0.334 P  
HETATM   12  O   UNL     2     -12.197  11.001  69.359  1.00  0.00    -0.350 OA 
HETATM   13  O   UNL     2     -11.516  13.129  68.728  1.00  0.00    -0.264 OA 
ENDBRANCH   5   9
ENDBRANCH   3   5
TORSDOF 3
ENDMDL
MODEL      226
REMARK 921   NORMALIZED FREE ENERGY PREDICTED BY IDOCK:   -1.70 KCAL/MOL
REMARK 922        TOTAL FREE ENERGY PREDICTED BY IDOCK:   -2.46 KCAL/MOL
REMARK 923 INTER-LIGAND FREE ENERGY PREDICTED BY IDOCK:   -2.17 KCAL/MOL
REMARK 924 INTRA-LIGAND FREE ENERGY PREDICTED BY IDOCK:   -0.30 KCAL/MOL
REMARK 927      BINDING AFFINITY PREDICTED BY RF-SCORE:    0.00 PKD
ROOT
HETATM    1 CA   UNL     1      -8.439  11.971  65.350  1.00  0.00    -0.380 Ca 
HETATM    2  O   UNL     2      -7.473  10.720  66.801  1.00  0.00    -0.115 OA 
HETATM    3  C   UNL     2      -8.312   9.527  66.891  1.00  0.00    -0.116 C  
HETATM    4  H   UNL     2      -6.697  10.563  66.274  1.00  0.00     0.000 HD 
ENDROOT
BRANCH   3   5
HETATM    5  C   UNL     2      -9.573   9.781  67.746  1.00  0.00    -0.135 C  
BRANCH   5   6
HETATM    6  C   UNL     2     -10.607  10.688  67.092  1.00  0.00    -0.260 C  
HETATM    7  H   UNL     2     -11.097  11.273  65.240  1.00  0.00     0.000 HD 
HETATM    8  O   UNL     2     -10.453  10.707  65.648  1.00  0.00    -0.236 OA 
ENDBRANCH   5   6
BRANCH   5   9
HETATM    9  O   UNL     2     -10.234   8.570  68.038  1.00  0.00    -0.195 OA 
HETATM   10  O   UNL     2     -10.015   9.504  70.075  1.00  0.00    -0.205 OA 
HETATM   11  P   UNL     2     -10.065   8.009  69.666  1.00  0.00    -0.206 P  
HETATM   12  O   UNL     2      -8.795   7.330  69.096  1.00  0.00    -0.136 OA 
HETATM   13  O   UNL     2      -9.914   7.506  71.123  1.00  0.00    -0.181 OA 
ENDBRANCH   5   9
ENDBRANCH   3   5
TORSDOF 3
ENDMDL
MODEL      227
REMARK 921   NORMALIZED FREE ENERGY PREDICTED BY IDOCK:   -1.70 KCAL/MOL
REMARK 922        TOTAL FREE ENERGY PREDICTED BY IDOCK:   -2.46 KCAL/MOL
REMARK 923 INTER-LIGAND FREE ENERGY PREDICTED BY IDOCK:   -2.38 KCAL/MOL
REMARK 924 INTRA-LIGAND FREE ENERGY PREDICTED BY IDOCK:   -0.08 KCAL/MOL
REMARK 927      BINDING AFFINITY PREDICTED BY RF-SCORE:    0.00 PKD
ROOT
HETATM    1 CA   UNL     1     -11.228  13.905  67.954  1.00  0.00    -0.233 Ca 
HETATM    2  O   UNL     2     -11.261  11.893  67.212  1.00  0.00    -0.277 OA 
HETATM    3  C   UNL     2     -10.335  11.890  66.082  1.00  0.00    -0.226 C  
HETATM    4  H   UNL     2     -10.868  11.510  67.988  1.00  0.00     0.000 HD 
ENDROOT
BRANCH   3   5
HETATM    5  C   UNL     2     -10.973  12.512  64.820  1.00  0.00    -0.303 C  
BRANCH   5   6
HETATM    6  C   UNL     2     -11.419  11.499  63.774  1.00  0.00    -0.286 C  
HETATM    7  H   UNL     2     -13.143  10.867  62.971  1.00  0.00     0.000 HD 
HETATM    8  O   UNL     2     -12.864  11.499  63.623  1.00  0.00    -0.240 OA 
ENDBRANCH   5   6
BRANCH   5   9
HETATM    9  O   UNL     2     -12.115  13.267  65.156  1.00  0.00    -0.366 OA 
HETATM   10  O   UNL     2     -11.300  14.389  63.382  1.00  0.00     0.867 OA 
HETATM   11  P   UNL     2     -12.110  14.905  64.600  1.00  0.00    -0.193 P  
HETATM   12  O   UNL     2     -11.387  15.157  65.946  1.00  0.00    -0.319 OA 
HETATM   13  O   UNL     2     -12.105  16.372  64.102  1.00  0.00    -0.802 OA 
ENDBRANCH   5   9
ENDBRANCH   3   5
TORSDOF 3
ENDMDL
MODEL      228
REMARK 921   NORMALIZED FREE ENERGY PREDICTED BY IDOCK:   -1.66 KCAL/MOL
REMARK 922        TOTAL FREE ENERGY PREDICTED BY IDOCK:   -2.41 KCAL/MOL
REMARK 923 INTER-LIGAND FREE ENERGY PREDICTED BY IDOCK:   -2.19 KCAL/MOL
REMARK 924 INTRA-LIGAND FREE ENERGY PREDICTED BY IDOCK:   -0.22 KCAL/MOL
REMARK 927      BINDING AFFINITY PREDICTED BY RF-SCORE:    0.00 PKD
ROOT
HETATM    1 CA   UNL     1      -7.562   5.903  68.921  1.00  0.00    -0.073 Ca 
HETATM    2  O   UNL     2      -9.293   5.486  70.117  1.00  0.00    -0.140 OA 
HETATM    3  C   UNL     2     -10.431   5.838  69.271  1.00  0.00    -0.287 C  
HETATM    4  H   UNL     2      -9.154   4.546  70.144  1.00  0.00     0.000 HD 
ENDROOT
BRANCH   3   5
HETATM    5  C   UNL     2     -10.659   7.365  69.228  1.00  0.00    -0.213 C  
BRANCH   5   6
HETATM    6  C   UNL     2     -11.196   7.960  70.523  1.00  0.00    -0.253 C  
HETATM    7  H   UNL     2     -12.668   7.576  71.826  1.00  0.00     0.000 HD 
HETATM    8  O   UNL     2     -12.333   7.205  71.018  1.00  0.00    -0.352 OA 
ENDBRANCH   5   6
BRANCH   5   9
HETATM    9  O   UNL     2      -9.455   8.044  68.947  1.00  0.00    -0.150 OA 
HETATM   10  O   UNL     2     -10.751   8.618  67.198  1.00  0.00    -0.270 OA 
HETATM   11  P   UNL     2      -9.210   8.463  67.286  1.00  0.00    -0.147 P  
HETATM   12  O   UNL     2      -8.581   7.048  67.224  1.00  0.00    -0.120 OA 
HETATM   13  O   UNL     2      -8.992   8.836  65.800  1.00  0.00    -0.184 OA 
ENDBRANCH   5   9
ENDBRANCH   3   5
TORSDOF 3
ENDMDL
MODEL      229
REMARK 921   NORMALIZED FREE ENERGY PREDICTED BY IDOCK:   -1.61 KCAL/MOL
REMARK 922        TOTAL FREE ENERGY PREDICTED BY IDOCK:   -2.35 KCAL/MOL
REMARK 923 INTER-LIGAND FREE ENERGY PREDICTED BY IDOCK:   -3.42 KCAL/MOL
REMARK 924 INTRA-LIGAND FREE ENERGY PREDICTED BY IDOCK:    1.07 KCAL/MOL
REMARK 927      BINDING AFFINITY PREDICTED BY RF-SCORE:    0.00 PKD
ROOT
HETATM    1 CA   UNL     1     -11.118  12.104  62.385  1.00  0.00    -0.580 Ca 
HETATM    2  O   UNL     2     -11.546  13.586  63.876  1.00  0.00    -0.544 OA 
HETATM    3  C   UNL     2     -10.336  13.662  64.692  1.00  0.00    -0.384 C  
HETATM    4  H   UNL     2     -11.601  14.310  63.262  1.00  0.00     0.000 HD 
ENDROOT
BRANCH   3   5
HETATM    5  C   UNL     2     -10.247  12.486  65.689  1.00  0.00    -0.267 C  
BRANCH   5   6
HETATM    6  C   UNL     2      -9.806  11.166  65.070  1.00  0.00    -0.266 C  
HETATM    7  H   UNL     2      -8.273   9.889  65.248  1.00  0.00     0.000 HD 
HETATM    8  O   UNL     2      -8.547  10.712  65.635  1.00  0.00    -0.173 OA 
ENDBRANCH   5   6
BRANCH   5   9
HETATM    9  O   UNL     2      -9.325  12.769  66.718  1.00  0.00    -0.230 OA 
HETATM   10  O   UNL     2     -11.131  13.958  67.346  1.00  0.00    -0.286 OA 
HETATM   11  P   UNL     2      -9.625  14.227  67.599  1.00  0.00    -0.231 P  
HETATM   12  O   UNL     2      -8.762  14.855  66.476  1.00  0.00    -0.254 OA 
HETATM   13  O   UNL     2      -9.893  15.533  68.388  1.00  0.00    -0.205 OA 
ENDBRANCH   5   9
ENDBRANCH   3   5
TORSDOF 3
ENDMDL
MODEL      230
REMARK 921   NORMALIZED FREE ENERGY PREDICTED BY IDOCK:   -1.60 KCAL/MOL
REMARK 922        TOTAL FREE ENERGY PREDICTED BY IDOCK:   -2.34 KCAL/MOL
REMARK 923 INTER-LIGAND FREE ENERGY PREDICTED BY IDOCK:   -2.07 KCAL/MOL
REMARK 924 INTRA-LIGAND FREE ENERGY PREDICTED BY IDOCK:   -0.26 KCAL/MOL
REMARK 927      BINDING AFFINITY PREDICTED BY RF-SCORE:    0.00 PKD
ROOT
HETATM    1 CA   UNL     1      -9.470   7.726  64.920  1.00  0.00    -0.383 Ca 
HETATM    2  O   UNL     2     -10.089   6.471  66.547  1.00  0.00    -0.324 OA 
HETATM    3  C   UNL     2     -10.892   7.336  67.408  1.00  0.00    -0.247 C  
HETATM    4  H   UNL     2     -10.634   5.904  66.014  1.00  0.00     0.000 HD 
ENDROOT
BRANCH   3   5
HETATM    5  C   UNL     2     -10.006   8.259  68.274  1.00  0.00    -0.191 C  
BRANCH   5   6
HETATM    6  C   UNL     2     -10.540   8.508  69.679  1.00  0.00    -0.220 C  
HETATM    7  H   UNL     2     -11.552   9.945  70.641  1.00  0.00     0.000 HD 
HETATM    8  O   UNL     2     -11.220   9.789  69.765  1.00  0.00    -0.238 OA 
ENDBRANCH   5   6
BRANCH   5   9
HETATM    9  O   UNL     2      -8.716   7.713  68.431  1.00  0.00    -0.128 OA 
HETATM   10  O   UNL     2      -8.299   9.924  68.361  1.00  0.00    -0.105 OA 
HETATM   11  P   UNL     2      -7.414   8.731  67.917  1.00  0.00    -0.094 P  
HETATM   12  O   UNL     2      -7.678   8.051  66.550  1.00  0.00    -0.090 OA 
HETATM   13  O   UNL     2      -6.250   9.641  67.457  1.00  0.00    -0.055 OA 
ENDBRANCH   5   9
ENDBRANCH   3   5
TORSDOF 3
ENDMDL
MODEL      231
REMARK 921   NORMALIZED FREE ENERGY PREDICTED BY IDOCK:   -1.56 KCAL/MOL
REMARK 922        TOTAL FREE ENERGY PREDICTED BY IDOCK:   -2.29 KCAL/MOL
REMARK 923 INTER-LIGAND FREE ENERGY PREDICTED BY IDOCK:   -1.96 KCAL/MOL
REMARK 924 INTRA-LIGAND FREE ENERGY PREDICTED BY IDOCK:   -0.34 KCAL/MOL
REMARK 927      BINDING AFFINITY PREDICTED BY RF-SCORE:    0.00 PKD
ROOT
HETATM    1 CA   UNL     1      -9.615   7.903  66.941  1.00  0.00    -0.137 Ca 
HETATM    2  O   UNL     2      -7.881   8.116  68.186  1.00  0.00    -0.117 OA 
HETATM    3  C   UNL     2      -8.110   7.213  69.313  1.00  0.00    -0.120 C  
HETATM    4  H   UNL     2      -7.277   7.742  67.555  1.00  0.00     0.000 HD 
ENDROOT
BRANCH   3   5
HETATM    5  C   UNL     2      -9.092   7.821  70.339  1.00  0.00    -0.155 C  
BRANCH   5   6
HETATM    6  C   UNL     2     -10.477   8.124  69.784  1.00  0.00    -0.227 C  
HETATM    7  H   UNL     2     -11.292   9.381  68.453  1.00  0.00     0.000 HD 
HETATM    8  O   UNL     2     -10.428   9.191  68.799  1.00  0.00    -0.215 OA 
ENDBRANCH   5   6
BRANCH   5   9
HETATM    9  O   UNL     2      -9.283   6.947  71.429  1.00  0.00    -0.155 OA 
HETATM   10  O   UNL     2      -8.908   8.917  72.451  1.00  0.00    -0.396 OA 
HETATM   11  P   UNL     2      -8.603   7.474  72.929  1.00  0.00    -0.160 P  
HETATM   12  O   UNL     2      -7.346   6.743  72.394  1.00  0.00    -0.086 OA 
HETATM   13  O   UNL     2      -7.993   7.946  74.272  1.00  0.00    -0.190 OA 
ENDBRANCH   5   9
ENDBRANCH   3   5
TORSDOF 3
ENDMDL
MODEL      232
REMARK 921   NORMALIZED FREE ENERGY PREDICTED BY IDOCK:   -1.56 KCAL/MOL
REMARK 922        TOTAL FREE ENERGY PREDICTED BY IDOCK:   -2.29 KCAL/MOL
REMARK 923 INTER-LIGAND FREE ENERGY PREDICTED BY IDOCK:   -1.96 KCAL/MOL
REMARK 924 INTRA-LIGAND FREE ENERGY PREDICTED BY IDOCK:   -0.33 KCAL/MOL
REMARK 927      BINDING AFFINITY PREDICTED BY RF-SCORE:    0.00 PKD
ROOT
HETATM    1 CA   UNL     1      -9.023   6.802  74.020  1.00  0.00    -0.126 Ca 
HETATM    2  O   UNL     2      -8.339   5.660  72.337  1.00  0.00    -0.114 OA 
HETATM    3  C   UNL     2      -8.367   6.592  71.211  1.00  0.00    -0.125 C  
HETATM    4  H   UNL     2      -7.457   5.539  72.670  1.00  0.00     0.000 HD 
ENDROOT
BRANCH   3   5
HETATM    5  C   UNL     2      -9.800   6.789  70.670  1.00  0.00    -0.179 C  
BRANCH   5   6
HETATM    6  C   UNL     2     -10.891   6.165  71.530  1.00  0.00    -0.261 C  
HETATM    7  H   UNL     2     -11.781   6.536  73.286  1.00  0.00     0.000 HD 
HETATM    8  O   UNL     2     -11.101   6.925  72.750  1.00  0.00    -0.262 OA 
ENDBRANCH   5   6
BRANCH   5   9
HETATM    9  O   UNL     2     -10.113   8.160  70.565  1.00  0.00    -0.190 OA 
HETATM   10  O   UNL     2     -10.471   7.421  68.469  1.00  0.00    -0.195 OA 
HETATM   11  P   UNL     2     -10.023   8.819  68.968  1.00  0.00    -0.201 P  
HETATM   12  O   UNL     2      -8.541   9.052  69.356  1.00  0.00    -0.129 OA 
HETATM   13  O   UNL     2      -9.942   9.409  67.539  1.00  0.00    -0.176 OA 
ENDBRANCH   5   9
ENDBRANCH   3   5
TORSDOF 3
ENDMDL
MODEL      233
REMARK 921   NORMALIZED FREE ENERGY PREDICTED BY IDOCK:   -1.55 KCAL/MOL
REMARK 922        TOTAL FREE ENERGY PREDICTED BY IDOCK:   -2.28 KCAL/MOL
REMARK 923 INTER-LIGAND FREE ENERGY PREDICTED BY IDOCK:   -2.00 KCAL/MOL
REMARK 924 INTRA-LIGAND FREE ENERGY PREDICTED BY IDOCK:   -0.28 KCAL/MOL
REMARK 927      BINDING AFFINITY PREDICTED BY RF-SCORE:    0.00 PKD
ROOT
HETATM    1 CA   UNL     1     -12.801   6.369  71.387  1.00  0.00    -0.318 Ca 
HETATM    2  O   UNL     2     -11.836   8.284  71.329  1.00  0.00    -0.282 OA 
HETATM    3  C   UNL     2     -11.009   8.254  70.124  1.00  0.00    -0.222 C  
HETATM    4  H   UNL     2     -12.636   8.778  71.192  1.00  0.00     0.000 HD 
ENDROOT
BRANCH   3   5
HETATM    5  C   UNL     2      -9.708   7.451  70.346  1.00  0.00    -0.175 C  
BRANCH   5   6
HETATM    6  C   UNL     2      -8.504   7.975  69.572  1.00  0.00    -0.131 C  
HETATM    7  H   UNL     2      -7.902   8.067  67.664  1.00  0.00     0.000 HD 
HETATM    8  O   UNL     2      -8.652   7.741  68.146  1.00  0.00    -0.123 OA 
ENDBRANCH   5   6
BRANCH   5   9
HETATM    9  O   UNL     2      -9.339   7.458  71.706  1.00  0.00    -0.145 OA 
HETATM   10  O   UNL     2      -8.822   5.359  71.076  1.00  0.00    -0.134 OA 
HETATM   11  P   UNL     2      -9.263   5.903  72.461  1.00  0.00    -0.135 P  
HETATM   12  O   UNL     2     -10.765   6.174  72.730  1.00  0.00    -0.216 OA 
HETATM   13  O   UNL     2      -9.196   4.511  73.135  1.00  0.00    -0.118 OA 
ENDBRANCH   5   9
ENDBRANCH   3   5
TORSDOF 3
ENDMDL
MODEL      234
REMARK 921   NORMALIZED FREE ENERGY PREDICTED BY IDOCK:   -1.55 KCAL/MOL
REMARK 922        TOTAL FREE ENERGY PREDICTED BY IDOCK:   -2.28 KCAL/MOL
REMARK 923 INTER-LIGAND FREE ENERGY PREDICTED BY IDOCK:   -1.97 KCAL/MOL
REMARK 924 INTRA-LIGAND FREE ENERGY PREDICTED BY IDOCK:   -0.31 KCAL/MOL
REMARK 927      BINDING AFFINITY PREDICTED BY RF-SCORE:    0.00 PKD
ROOT
HETATM    1 CA   UNL     1      -6.281   9.460  69.399  1.00  0.00    -0.037 Ca 
HETATM    2  O   UNL     2      -8.154   8.428  69.225  1.00  0.00    -0.111 OA 
HETATM    3  C   UNL     2      -8.583   8.651  67.845  1.00  0.00    -0.137 C  
HETATM    4  H   UNL     2      -7.784   7.561  69.341  1.00  0.00     0.000 HD 
ENDROOT
BRANCH   3   5
HETATM    5  C   UNL     2      -9.184  10.061  67.657  1.00  0.00    -0.137 C  
BRANCH   5   6
HETATM    6  C   UNL     2      -8.956  11.007  68.828  1.00  0.00    -0.149 C  
HETATM    7  H   UNL     2      -7.399  11.870  69.747  1.00  0.00     0.000 HD 
HETATM    8  O   UNL     2      -7.541  11.281  69.016  1.00  0.00    -0.128 OA 
ENDBRANCH   5   6
BRANCH   5   9
HETATM    9  O   UNL     2      -8.636  10.694  66.522  1.00  0.00    -0.135 OA 
HETATM   10  O   UNL     2     -10.825  11.183  66.335  1.00  0.00    -0.270 OA 
HETATM   11  P   UNL     2      -9.749  11.000  65.234  1.00  0.00    -0.272 P  
HETATM   12  O   UNL     2      -9.338   9.571  64.798  1.00  0.00    -0.245 OA 
HETATM   13  O   UNL     2     -10.745  11.273  64.080  1.00  0.00    -0.348 OA 
ENDBRANCH   5   9
ENDBRANCH   3   5
TORSDOF 3
ENDMDL
MODEL      235
REMARK 921   NORMALIZED FREE ENERGY PREDICTED BY IDOCK:   -1.55 KCAL/MOL
REMARK 922        TOTAL FREE ENERGY PREDICTED BY IDOCK:   -2.28 KCAL/MOL
REMARK 923 INTER-LIGAND FREE ENERGY PREDICTED BY IDOCK:   -2.13 KCAL/MOL
REMARK 924 INTRA-LIGAND FREE ENERGY PREDICTED BY IDOCK:   -0.15 KCAL/MOL
REMARK 927      BINDING AFFINITY PREDICTED BY RF-SCORE:    0.00 PKD
ROOT
HETATM    1 CA   UNL     1      -9.322  13.058  64.759  1.00  0.00    -0.454 Ca 
HETATM    2  O   UNL     2      -9.564  11.573  66.289  1.00  0.00    -0.205 OA 
HETATM    3  C   UNL     2      -9.702  12.329  67.532  1.00  0.00    -0.190 C  
HETATM    4  H   UNL     2     -10.404  11.262  65.973  1.00  0.00     0.000 HD 
ENDROOT
BRANCH   3   5
HETATM    5  C   UNL     2      -8.337  12.836  68.046  1.00  0.00    -0.173 C  
BRANCH   5   6
HETATM    6  C   UNL     2      -7.345  11.733  68.393  1.00  0.00    -0.094 C  
HETATM    7  H   UNL     2      -5.502  11.595  69.166  1.00  0.00     0.000 HD 
HETATM    8  O   UNL     2      -6.120  12.282  68.950  1.00  0.00    -0.064 OA 
ENDBRANCH   5   6
BRANCH   5   9
HETATM    9  O   UNL     2      -7.707  13.649  67.081  1.00  0.00    -0.113 OA 
HETATM   10  O   UNL     2      -8.113  15.106  68.749  1.00  0.00    -0.144 OA 
HETATM   11  P   UNL     2      -8.026  15.344  67.219  1.00  0.00    -0.223 P  
HETATM   12  O   UNL     2      -9.239  14.991  66.321  1.00  0.00    -0.289 OA 
HETATM   13  O   UNL     2      -8.312  16.860  67.341  1.00  0.00    -0.181 OA 
ENDBRANCH   5   9
ENDBRANCH   3   5
TORSDOF 3
ENDMDL
MODEL      236
REMARK 921   NORMALIZED FREE ENERGY PREDICTED BY IDOCK:   -1.54 KCAL/MOL
REMARK 922        TOTAL FREE ENERGY PREDICTED BY IDOCK:   -2.27 KCAL/MOL
REMARK 923 INTER-LIGAND FREE ENERGY PREDICTED BY IDOCK:   -2.10 KCAL/MOL
REMARK 924 INTRA-LIGAND FREE ENERGY PREDICTED BY IDOCK:   -0.17 KCAL/MOL
REMARK 927      BINDING AFFINITY PREDICTED BY RF-SCORE:    0.00 PKD
ROOT
HETATM    1 CA   UNL     1     -10.870   8.092  69.285  1.00  0.00    -0.213 Ca 
HETATM    2  O   UNL     2     -10.631   8.641  71.345  1.00  0.00    -0.225 OA 
HETATM    3  C   UNL     2      -9.188   8.635  71.574  1.00  0.00    -0.246 C  
HETATM    4  H   UNL     2     -10.965   9.524  71.237  1.00  0.00     0.000 HD 
ENDROOT
BRANCH   3   5
HETATM    5  C   UNL     2      -8.644   7.200  71.750  1.00  0.00    -0.117 C  
BRANCH   5   6
HETATM    6  C   UNL     2      -7.252   6.978  71.174  1.00  0.00    -0.075 C  
HETATM    7  H   UNL     2      -6.422   5.937  69.677  1.00  0.00     0.000 HD 
HETATM    8  O   UNL     2      -7.290   6.076  70.036  1.00  0.00    -0.071 OA 
ENDBRANCH   5   6
BRANCH   5   9
HETATM    9  O   UNL     2      -8.569   6.856  73.115  1.00  0.00    -0.117 OA 
HETATM   10  O   UNL     2      -9.839   5.201  72.269  1.00  0.00    -0.162 OA 
HETATM   11  P   UNL     2      -9.834   5.824  73.689  1.00  0.00    -0.201 P  
HETATM   12  O   UNL     2     -10.558   7.172  73.934  1.00  0.00    -0.362 OA 
HETATM   13  O   UNL     2     -10.966   4.902  74.203  1.00  0.00    -0.310 OA 
ENDBRANCH   5   9
ENDBRANCH   3   5
TORSDOF 3
ENDMDL
MODEL      237
REMARK 921   NORMALIZED FREE ENERGY PREDICTED BY IDOCK:   -1.53 KCAL/MOL
REMARK 922        TOTAL FREE ENERGY PREDICTED BY IDOCK:   -2.26 KCAL/MOL
REMARK 923 INTER-LIGAND FREE ENERGY PREDICTED BY IDOCK:   -2.34 KCAL/MOL
REMARK 924 INTRA-LIGAND FREE ENERGY PREDICTED BY IDOCK:    0.09 KCAL/MOL
REMARK 927      BINDING AFFINITY PREDICTED BY RF-SCORE:    0.00 PKD
ROOT
HETATM    1 CA   UNL     1      -9.110   4.917  70.308  1.00  0.00    -0.097 Ca 
HETATM    2  O   UNL     2     -10.518   6.517  70.063  1.00  0.00    -0.193 OA 
HETATM    3  C   UNL     2     -11.084   6.323  68.730  1.00  0.00    -0.346 C  
HETATM    4  H   UNL     2     -11.110   6.213  70.742  1.00  0.00     0.000 HD 
ENDROOT
BRANCH   3   5
HETATM    5  C   UNL     2     -10.122   6.816  67.626  1.00  0.00    -0.161 C  
BRANCH   5   6
HETATM    6  C   UNL     2      -9.657   5.730  66.664  1.00  0.00    -0.152 C  
HETATM    7  H   UNL     2     -10.480   4.243  65.605  1.00  0.00     0.000 HD 
HETATM    8  O   UNL     2     -10.771   4.919  66.204  1.00  0.00    -0.317 OA 
ENDBRANCH   5   6
BRANCH   5   9
HETATM    9  O   UNL     2     -10.733   7.811  66.836  1.00  0.00    -0.345 OA 
HETATM   10  O   UNL     2      -8.673   8.656  67.169  1.00  0.00    -0.126 OA 
HETATM   11  P   UNL     2     -10.024   9.385  66.950  1.00  0.00    -0.261 P  
HETATM   12  O   UNL     2     -11.013   9.533  68.134  1.00  0.00    -0.192 OA 
HETATM   13  O   UNL     2      -9.390  10.794  67.052  1.00  0.00    -0.155 OA 
ENDBRANCH   5   9
ENDBRANCH   3   5
TORSDOF 3
ENDMDL
MODEL      238
REMARK 921   NORMALIZED FREE ENERGY PREDICTED BY IDOCK:   -1.50 KCAL/MOL
REMARK 922        TOTAL FREE ENERGY PREDICTED BY IDOCK:   -2.22 KCAL/MOL
REMARK 923 INTER-LIGAND FREE ENERGY PREDICTED BY IDOCK:   -2.27 KCAL/MOL
REMARK 924 INTRA-LIGAND FREE ENERGY PREDICTED BY IDOCK:    0.05 KCAL/MOL
REMARK 927      BINDING AFFINITY PREDICTED BY RF-SCORE:    0.00 PKD
ROOT
HETATM    1 CA   UNL     1      -9.339   6.622  67.149  1.00  0.00    -0.123 Ca 
HETATM    2  O   UNL     2     -11.089   5.882  68.146  1.00  0.00    -0.251 OA 
HETATM    3  C   UNL     2     -11.006   6.417  69.503  1.00  0.00    -0.359 C  
HETATM    4  H   UNL     2     -11.704   6.372  67.612  1.00  0.00     0.000 HD 
ENDROOT
BRANCH   3   5
HETATM    5  C   UNL     2     -10.007   5.619  70.370  1.00  0.00    -0.206 C  
BRANCH   5   6
HETATM    6  C   UNL     2      -8.607   5.510  69.779  1.00  0.00    -0.112 C  
HETATM    7  H   UNL     2      -7.009   6.693  69.540  1.00  0.00     0.000 HD 
HETATM    8  O   UNL     2      -7.881   6.762  69.908  1.00  0.00    -0.110 OA 
ENDBRANCH   5   6
BRANCH   5   9
HETATM    9  O   UNL     2      -9.857   6.214  71.639  1.00  0.00    -0.169 OA 
HETATM   10  O   UNL     2     -10.296   4.069  72.161  1.00  0.00    -0.166 OA 
HETATM   11  P   UNL     2     -10.610   5.368  72.947  1.00  0.00    -0.270 P  
HETATM   12  O   UNL     2     -11.835   6.227  72.544  1.00  0.00    -0.253 OA 
HETATM   13  O   UNL     2     -11.284   4.611  74.117  1.00  0.00    -0.257 OA 
ENDBRANCH   5   9
ENDBRANCH   3   5
TORSDOF 3
ENDMDL
MODEL      239
REMARK 921   NORMALIZED FREE ENERGY PREDICTED BY IDOCK:   -1.49 KCAL/MOL
REMARK 922        TOTAL FREE ENERGY PREDICTED BY IDOCK:   -2.21 KCAL/MOL
REMARK 923 INTER-LIGAND FREE ENERGY PREDICTED BY IDOCK:   -1.99 KCAL/MOL
REMARK 924 INTRA-LIGAND FREE ENERGY PREDICTED BY IDOCK:   -0.22 KCAL/MOL
REMARK 927      BINDING AFFINITY PREDICTED BY RF-SCORE:    0.00 PKD
ROOT
HETATM    1 CA   UNL     1     -11.119   7.358  66.199  1.00  0.00    -0.446 Ca 
HETATM    2  O   UNL     2      -9.269   6.480  65.558  1.00  0.00    -0.376 OA 
HETATM    3  C   UNL     2      -8.285   6.901  66.553  1.00  0.00    -0.117 C  
HETATM    4  H   UNL     2      -9.548   5.583  65.699  1.00  0.00     0.000 HD 
ENDROOT
BRANCH   3   5
HETATM    5  C   UNL     2      -7.832   8.360  66.324  1.00  0.00    -0.098 C  
BRANCH   5   6
HETATM    6  C   UNL     2      -6.789   8.532  65.227  1.00  0.00    -0.067 C  
HETATM    7  H   UNL     2      -5.231   7.506  64.497  1.00  0.00     0.000 HD 
HETATM    8  O   UNL     2      -5.881   7.399  65.181  1.00  0.00    -0.036 OA 
ENDBRANCH   5   6
BRANCH   5   9
HETATM    9  O   UNL     2      -8.925   9.175  65.965  1.00  0.00    -0.157 OA 
HETATM   10  O   UNL     2      -8.105  10.236  67.773  1.00  0.00    -0.102 OA 
HETATM   11  P   UNL     2      -9.558  10.166  67.234  1.00  0.00    -0.168 P  
HETATM   12  O   UNL     2     -10.419   8.912  67.521  1.00  0.00    -0.252 OA 
HETATM   13  O   UNL     2     -10.124  11.053  68.369  1.00  0.00    -0.170 OA 
ENDBRANCH   5   9
ENDBRANCH   3   5
TORSDOF 3
ENDMDL
MODEL      240
REMARK 921   NORMALIZED FREE ENERGY PREDICTED BY IDOCK:   -1.49 KCAL/MOL
REMARK 922        TOTAL FREE ENERGY PREDICTED BY IDOCK:   -2.21 KCAL/MOL
REMARK 923 INTER-LIGAND FREE ENERGY PREDICTED BY IDOCK:   -1.96 KCAL/MOL
REMARK 924 INTRA-LIGAND FREE ENERGY PREDICTED BY IDOCK:   -0.25 KCAL/MOL
REMARK 927      BINDING AFFINITY PREDICTED BY RF-SCORE:    0.00 PKD
ROOT
HETATM    1 CA   UNL     1      -8.818  11.886  64.147  1.00  0.00    -0.393 Ca 
HETATM    2  O   UNL     2     -10.238  10.349  64.620  1.00  0.00    -0.346 OA 
HETATM    3  C   UNL     2     -10.155  10.191  66.070  1.00  0.00    -0.248 C  
HETATM    4  H   UNL     2     -11.000  10.856  64.366  1.00  0.00     0.000 HD 
ENDROOT
BRANCH   3   5
HETATM    5  C   UNL     2      -8.916   9.366  66.484  1.00  0.00    -0.148 C  
BRANCH   5   6
HETATM    6  C   UNL     2      -7.584   9.977  66.069  1.00  0.00    -0.111 C  
HETATM    7  H   UNL     2      -6.777  11.805  65.929  1.00  0.00     0.000 HD 
HETATM    8  O   UNL     2      -7.608  11.425  66.189  1.00  0.00    -0.043 OA 
ENDBRANCH   5   6
BRANCH   5   9
HETATM    9  O   UNL     2      -8.862   9.209  67.884  1.00  0.00    -0.128 OA 
HETATM   10  O   UNL     2      -8.732   7.083  67.155  1.00  0.00    -0.119 OA 
HETATM   11  P   UNL     2      -9.323   7.649  68.473  1.00  0.00    -0.147 P  
HETATM   12  O   UNL     2     -10.739   8.278  68.466  1.00  0.00    -0.142 OA 
HETATM   13  O   UNL     2      -9.736   6.253  69.000  1.00  0.00    -0.129 OA 
ENDBRANCH   5   9
ENDBRANCH   3   5
TORSDOF 3
ENDMDL
MODEL      241
REMARK 921   NORMALIZED FREE ENERGY PREDICTED BY IDOCK:   -1.46 KCAL/MOL
REMARK 922        TOTAL FREE ENERGY PREDICTED BY IDOCK:   -2.17 KCAL/MOL
REMARK 923 INTER-LIGAND FREE ENERGY PREDICTED BY IDOCK:   -1.71 KCAL/MOL
REMARK 924 INTRA-LIGAND FREE ENERGY PREDICTED BY IDOCK:   -0.46 KCAL/MOL
REMARK 927      BINDING AFFINITY PREDICTED BY RF-SCORE:    0.00 PKD
ROOT
HETATM    1 CA   UNL     1      -9.032   6.846  72.454  1.00  0.00    -0.128 Ca 
HETATM    2  O   UNL     2      -7.258   7.044  71.264  1.00  0.00    -0.073 OA 
HETATM    3  C   UNL     2      -7.266   8.429  70.799  1.00  0.00    -0.055 C  
HETATM    4  H   UNL     2      -6.655   6.921  71.989  1.00  0.00     0.000 HD 
ENDROOT
BRANCH   3   5
HETATM    5  C   UNL     2      -8.244   8.628  69.621  1.00  0.00    -0.114 C  
BRANCH   5   6
HETATM    6  C   UNL     2      -7.723   8.134  68.277  1.00  0.00    -0.114 C  
HETATM    7  H   UNL     2      -7.157   6.393  67.463  1.00  0.00     0.000 HD 
HETATM    8  O   UNL     2      -7.482   6.701  68.301  1.00  0.00    -0.091 OA 
ENDBRANCH   5   6
BRANCH   5   9
HETATM    9  O   UNL     2      -9.456   7.946  69.853  1.00  0.00    -0.160 OA 
HETATM   10  O   UNL     2     -10.160  10.033  69.389  1.00  0.00    -0.192 OA 
HETATM   11  P   UNL     2     -10.797   8.946  70.294  1.00  0.00    -0.229 P  
HETATM   12  O   UNL     2     -10.245   8.723  71.724  1.00  0.00    -0.281 OA 
HETATM   13  O   UNL     2     -11.997   9.842  70.688  1.00  0.00    -0.277 OA 
ENDBRANCH   5   9
ENDBRANCH   3   5
TORSDOF 3
ENDMDL
MODEL      242
REMARK 921   NORMALIZED FREE ENERGY PREDICTED BY IDOCK:   -1.44 KCAL/MOL
REMARK 922        TOTAL FREE ENERGY PREDICTED BY IDOCK:   -2.15 KCAL/MOL
REMARK 923 INTER-LIGAND FREE ENERGY PREDICTED BY IDOCK:   -2.01 KCAL/MOL
REMARK 924 INTRA-LIGAND FREE ENERGY PREDICTED BY IDOCK:   -0.14 KCAL/MOL
REMARK 927      BINDING AFFINITY PREDICTED BY RF-SCORE:    0.00 PKD
ROOT
HETATM    1 CA   UNL     1     -11.624   8.215  68.036  1.00  0.00    -0.431 Ca 
HETATM    2  O   UNL     2     -10.371   7.613  66.403  1.00  0.00    -0.488 OA 
HETATM    3  C   UNL     2      -9.005   7.844  66.868  1.00  0.00    -0.136 C  
HETATM    4  H   UNL     2     -10.606   6.694  66.450  1.00  0.00     0.000 HD 
ENDROOT
BRANCH   3   5
HETATM    5  C   UNL     2      -8.622   9.339  66.791  1.00  0.00    -0.127 C  
BRANCH   5   6
HETATM    6  C   UNL     2      -8.911  10.130  68.061  1.00  0.00    -0.125 C  
HETATM    7  H   UNL     2      -9.602   9.762  69.905  1.00  0.00     0.000 HD 
HETATM    8  O   UNL     2      -9.421   9.269  69.114  1.00  0.00    -0.152 OA 
ENDBRANCH   5   6
BRANCH   5   9
HETATM    9  O   UNL     2      -7.245   9.491  66.533  1.00  0.00    -0.088 OA 
HETATM   10  O   UNL     2      -8.184  10.477  64.740  1.00  0.00    -0.162 OA 
HETATM   11  P   UNL     2      -6.826   9.740  64.873  1.00  0.00    -0.127 P  
HETATM   12  O   UNL     2      -6.792   8.192  64.850  1.00  0.00    -0.061 OA 
HETATM   13  O   UNL     2      -6.451   9.963  63.387  1.00  0.00    -0.114 OA 
ENDBRANCH   5   9
ENDBRANCH   3   5
TORSDOF 3
ENDMDL
MODEL      243
REMARK 921   NORMALIZED FREE ENERGY PREDICTED BY IDOCK:   -1.43 KCAL/MOL
REMARK 922        TOTAL FREE ENERGY PREDICTED BY IDOCK:   -2.14 KCAL/MOL
REMARK 923 INTER-LIGAND FREE ENERGY PREDICTED BY IDOCK:   -1.93 KCAL/MOL
REMARK 924 INTRA-LIGAND FREE ENERGY PREDICTED BY IDOCK:   -0.21 KCAL/MOL
REMARK 927      BINDING AFFINITY PREDICTED BY RF-SCORE:    0.00 PKD
ROOT
HETATM    1 CA   UNL     1     -11.944   7.220  68.824  1.00  0.00    -0.404 Ca 
HETATM    2  O   UNL     2     -11.323   6.284  66.997  1.00  0.00    -0.602 OA 
HETATM    3  C   UNL     2      -9.967   5.806  67.258  1.00  0.00    -0.154 C  
HETATM    4  H   UNL     2     -11.958   5.578  67.043  1.00  0.00     0.000 HD 
ENDROOT
BRANCH   3   5
HETATM    5  C   UNL     2      -8.935   6.952  67.182  1.00  0.00    -0.120 C  
BRANCH   5   6
HETATM    6  C   UNL     2      -8.881   7.836  68.422  1.00  0.00    -0.130 C  
HETATM    7  H   UNL     2      -9.878   8.018  70.150  1.00  0.00     0.000 HD 
HETATM    8  O   UNL     2      -9.912   7.467  69.377  1.00  0.00    -0.170 OA 
ENDBRANCH   5   6
BRANCH   5   9
HETATM    9  O   UNL     2      -7.632   6.444  67.001  1.00  0.00    -0.092 OA 
HETATM   10  O   UNL     2      -7.783   7.981  65.363  1.00  0.00    -0.085 OA 
HETATM   11  P   UNL     2      -6.965   6.665  65.420  1.00  0.00    -0.058 P  
HETATM   12  O   UNL     2      -7.672   5.314  65.143  1.00  0.00    -0.080 OA 
HETATM   13  O   UNL     2      -6.368   6.862  64.005  1.00  0.00    -0.038 OA 
ENDBRANCH   5   9
ENDBRANCH   3   5
TORSDOF 3
ENDMDL
MODEL      244
REMARK 921   NORMALIZED FREE ENERGY PREDICTED BY IDOCK:   -1.40 KCAL/MOL
REMARK 922        TOTAL FREE ENERGY PREDICTED BY IDOCK:   -2.10 KCAL/MOL
REMARK 923 INTER-LIGAND FREE ENERGY PREDICTED BY IDOCK:   -2.00 KCAL/MOL
REMARK 924 INTRA-LIGAND FREE ENERGY PREDICTED BY IDOCK:   -0.10 KCAL/MOL
REMARK 927      BINDING AFFINITY PREDICTED BY RF-SCORE:    0.00 PKD
ROOT
HETATM    1 CA   UNL     1      -7.238   5.714  70.744  1.00  0.00    -0.057 Ca 
HETATM    2  O   UNL     2      -8.463   7.341  70.069  1.00  0.00    -0.136 OA 
HETATM    3  C   UNL     2      -8.889   8.026  71.287  1.00  0.00    -0.139 C  
HETATM    4  H   UNL     2      -7.756   7.805  69.634  1.00  0.00     0.000 HD 
ENDROOT
BRANCH   3   5
HETATM    5  C   UNL     2     -10.038   7.273  71.993  1.00  0.00    -0.184 C  
BRANCH   5   6
HETATM    6  C   UNL     2     -11.246   8.137  72.330  1.00  0.00    -0.386 C  
HETATM    7  H   UNL     2     -11.923   9.968  71.880  1.00  0.00     0.000 HD 
HETATM    8  O   UNL     2     -11.170   9.429  71.670  1.00  0.00    -0.370 OA 
ENDBRANCH   5   6
BRANCH   5   9
HETATM    9  O   UNL     2     -10.515   6.218  71.188  1.00  0.00    -0.210 OA 
HETATM   10  O   UNL     2     -10.550   5.308  73.247  1.00  0.00    -0.202 OA 
HETATM   11  P   UNL     2     -10.345   4.635  71.864  1.00  0.00    -0.040 P  
HETATM   12  O   UNL     2      -8.957   4.702  71.180  1.00  0.00    -0.117 OA 
HETATM   13  O   UNL     2     -10.192   3.218  72.469  1.00  0.00    -0.158 OA 
ENDBRANCH   5   9
ENDBRANCH   3   5
TORSDOF 3
ENDMDL
MODEL      245
REMARK 921   NORMALIZED FREE ENERGY PREDICTED BY IDOCK:   -1.40 KCAL/MOL
REMARK 922        TOTAL FREE ENERGY PREDICTED BY IDOCK:   -2.10 KCAL/MOL
REMARK 923 INTER-LIGAND FREE ENERGY PREDICTED BY IDOCK:   -1.85 KCAL/MOL
REMARK 924 INTRA-LIGAND FREE ENERGY PREDICTED BY IDOCK:   -0.25 KCAL/MOL
REMARK 927      BINDING AFFINITY PREDICTED BY RF-SCORE:    0.00 PKD
ROOT
HETATM    1 CA   UNL     1     -10.245   7.195  72.217  1.00  0.00    -0.178 Ca 
HETATM    2  O   UNL     2      -9.478   8.598  70.785  1.00  0.00    -0.166 OA 
HETATM    3  C   UNL     2     -10.068   8.198  69.510  1.00  0.00    -0.193 C  
HETATM    4  H   UNL     2      -9.924   9.350  71.157  1.00  0.00     0.000 HD 
ENDROOT
BRANCH   3   5
HETATM    5  C   UNL     2      -9.344   6.975  68.905  1.00  0.00    -0.139 C  
BRANCH   5   6
HETATM    6  C   UNL     2      -8.316   6.331  69.827  1.00  0.00    -0.125 C  
HETATM    7  H   UNL     2      -8.318   5.147  71.443  1.00  0.00     0.000 HD 
HETATM    8  O   UNL     2      -8.959   5.548  70.868  1.00  0.00    -0.136 OA 
ENDBRANCH   5   6
BRANCH   5   9
HETATM    9  O   UNL     2     -10.265   5.962  68.568  1.00  0.00    -0.160 OA 
HETATM   10  O   UNL     2      -8.728   5.780  66.933  1.00  0.00    -0.111 OA 
HETATM   11  P   UNL     2     -10.247   5.466  66.910  1.00  0.00    -0.269 P  
HETATM   12  O   UNL     2     -11.264   6.625  66.754  1.00  0.00    -0.333 OA 
HETATM   13  O   UNL     2     -10.231   5.024  65.427  1.00  0.00    -0.038 OA 
ENDBRANCH   5   9
ENDBRANCH   3   5
TORSDOF 3
ENDMDL
MODEL      246
REMARK 921   NORMALIZED FREE ENERGY PREDICTED BY IDOCK:   -1.38 KCAL/MOL
REMARK 922        TOTAL FREE ENERGY PREDICTED BY IDOCK:   -2.08 KCAL/MOL
REMARK 923 INTER-LIGAND FREE ENERGY PREDICTED BY IDOCK:   -1.63 KCAL/MOL
REMARK 924 INTRA-LIGAND FREE ENERGY PREDICTED BY IDOCK:   -0.45 KCAL/MOL
REMARK 927      BINDING AFFINITY PREDICTED BY RF-SCORE:    0.00 PKD
ROOT
HETATM    1 CA   UNL     1     -10.932   7.175  65.876  1.00  0.00    -0.401 Ca 
HETATM    2  O   UNL     2      -9.773   5.559  65.070  1.00  0.00    -0.292 OA 
HETATM    3  C   UNL     2      -8.452   5.701  65.678  1.00  0.00    -0.147 C  
HETATM    4  H   UNL     2     -10.280   4.874  65.489  1.00  0.00     0.000 HD 
ENDROOT
BRANCH   3   5
HETATM    5  C   UNL     2      -7.627   6.815  64.997  1.00  0.00    -0.100 C  
BRANCH   5   6
HETATM    6  C   UNL     2      -6.931   6.388  63.711  1.00  0.00    -0.043 C  
HETATM    7  H   UNL     2      -7.282   5.135  62.188  1.00  0.00     0.000 HD 
HETATM    8  O   UNL     2      -7.715   5.401  62.990  1.00  0.00    -0.067 OA 
ENDBRANCH   5   6
BRANCH   5   9
HETATM    9  O   UNL     2      -8.446   7.912  64.661  1.00  0.00    -0.085 OA 
HETATM   10  O   UNL     2      -6.697   8.908  65.669  1.00  0.00    -0.070 OA 
HETATM   11  P   UNL     2      -8.183   9.346  65.592  1.00  0.00    -0.132 P  
HETATM   12  O   UNL     2      -9.222   8.691  66.537  1.00  0.00    -0.161 OA 
HETATM   13  O   UNL     2      -7.947  10.629  66.426  1.00  0.00    -0.130 OA 
ENDBRANCH   5   9
ENDBRANCH   3   5
TORSDOF 3
ENDMDL
MODEL      247
REMARK 921   NORMALIZED FREE ENERGY PREDICTED BY IDOCK:   -1.36 KCAL/MOL
REMARK 922        TOTAL FREE ENERGY PREDICTED BY IDOCK:   -2.06 KCAL/MOL
REMARK 923 INTER-LIGAND FREE ENERGY PREDICTED BY IDOCK:   -2.08 KCAL/MOL
REMARK 924 INTRA-LIGAND FREE ENERGY PREDICTED BY IDOCK:    0.02 KCAL/MOL
REMARK 927      BINDING AFFINITY PREDICTED BY RF-SCORE:    0.00 PKD
ROOT
HETATM    1 CA   UNL     1     -13.051   6.224  71.827  1.00  0.00    -0.322 Ca 
HETATM    2  O   UNL     2     -11.857   7.988  72.086  1.00  0.00    -0.309 OA 
HETATM    3  C   UNL     2     -10.985   8.029  70.915  1.00  0.00    -0.243 C  
HETATM    4  H   UNL     2     -12.584   8.595  72.003  1.00  0.00     0.000 HD 
ENDROOT
BRANCH   3   5
HETATM    5  C   UNL     2      -9.804   7.043  71.049  1.00  0.00    -0.180 C  
BRANCH   5   6
HETATM    6  C   UNL     2      -9.689   6.378  72.414  1.00  0.00    -0.153 C  
HETATM    7  H   UNL     2      -9.242   6.923  74.289  1.00  0.00     0.000 HD 
HETATM    8  O   UNL     2      -9.313   7.337  73.438  1.00  0.00    -0.159 OA 
ENDBRANCH   5   6
BRANCH   5   9
HETATM    9  O   UNL     2      -9.911   6.000  70.106  1.00  0.00    -0.167 OA 
HETATM   10  O   UNL     2      -8.090   7.112  69.389  1.00  0.00    -0.125 OA 
HETATM   11  P   UNL     2      -9.134   6.290  68.588  1.00  0.00    -0.124 P  
HETATM   12  O   UNL     2     -10.499   6.930  68.231  1.00  0.00    -0.183 OA 
HETATM   13  O   UNL     2      -8.438   6.551  67.229  1.00  0.00    -0.112 OA 
ENDBRANCH   5   9
ENDBRANCH   3   5
TORSDOF 3
ENDMDL
MODEL      248
REMARK 921   NORMALIZED FREE ENERGY PREDICTED BY IDOCK:   -1.32 KCAL/MOL
REMARK 922        TOTAL FREE ENERGY PREDICTED BY IDOCK:   -2.01 KCAL/MOL
REMARK 923 INTER-LIGAND FREE ENERGY PREDICTED BY IDOCK:   -1.86 KCAL/MOL
REMARK 924 INTRA-LIGAND FREE ENERGY PREDICTED BY IDOCK:   -0.15 KCAL/MOL
REMARK 927      BINDING AFFINITY PREDICTED BY RF-SCORE:    0.00 PKD
ROOT
HETATM    1 CA   UNL     1      -7.716  15.734  66.127  1.00  0.00    -0.226 Ca 
HETATM    2  O   UNL     2      -7.908  15.546  68.256  1.00  0.00    -0.123 OA 
HETATM    3  C   UNL     2      -7.909  14.108  68.511  1.00  0.00    -0.140 C  
HETATM    4  H   UNL     2      -7.064  15.937  68.452  1.00  0.00     0.000 HD 
ENDROOT
BRANCH   3   5
HETATM    5  C   UNL     2      -9.280  13.473  68.193  1.00  0.00    -0.208 C  
BRANCH   5   6
HETATM    6  C   UNL     2      -9.204  12.083  67.575  1.00  0.00    -0.180 C  
HETATM    7  H   UNL     2      -7.882  11.002  66.529  1.00  0.00     0.000 HD 
HETATM    8  O   UNL     2      -7.929  11.868  66.914  1.00  0.00    -0.162 OA 
ENDBRANCH   5   6
BRANCH   5   9
HETATM    9  O   UNL     2     -10.058  13.347  69.362  1.00  0.00     0.287 OA 
HETATM   10  O   UNL     2     -11.436  14.475  67.984  1.00  0.00    -0.290 OA 
HETATM   11  P   UNL     2     -11.333  14.505  69.532  1.00  0.00    -0.275 P  
HETATM   12  O   UNL     2     -10.219  15.344  70.206  1.00  0.00    -0.274 OA 
HETATM   13  O   UNL     2     -12.473  15.541  69.684  1.00  0.00    -0.270 OA 
ENDBRANCH   5   9
ENDBRANCH   3   5
TORSDOF 3
ENDMDL
MODEL      249
REMARK 921   NORMALIZED FREE ENERGY PREDICTED BY IDOCK:   -1.31 KCAL/MOL
REMARK 922        TOTAL FREE ENERGY PREDICTED BY IDOCK:   -2.00 KCAL/MOL
REMARK 923 INTER-LIGAND FREE ENERGY PREDICTED BY IDOCK:   -1.96 KCAL/MOL
REMARK 924 INTRA-LIGAND FREE ENERGY PREDICTED BY IDOCK:   -0.03 KCAL/MOL
REMARK 927      BINDING AFFINITY PREDICTED BY RF-SCORE:    0.00 PKD
ROOT
HETATM    1 CA   UNL     1      -6.728   4.780  68.111  1.00  0.00    -0.041 Ca 
HETATM    2  O   UNL     2      -8.659   3.860  68.269  1.00  0.00    -0.091 OA 
HETATM    3  C   UNL     2      -9.525   4.641  67.387  1.00  0.00    -0.153 C  
HETATM    4  H   UNL     2      -8.396   3.040  67.865  1.00  0.00     0.000 HD 
ENDROOT
BRANCH   3   5
HETATM    5  C   UNL     2      -9.953   5.972  68.043  1.00  0.00    -0.142 C  
BRANCH   5   6
HETATM    6  C   UNL     2     -10.906   6.812  67.202  1.00  0.00    -0.392 C  
HETATM    7  H   UNL     2     -10.830   8.501  66.128  1.00  0.00     0.000 HD 
HETATM    8  O   UNL     2     -10.236   7.977  66.652  1.00  0.00    -0.285 OA 
ENDBRANCH   5   6
BRANCH   5   9
HETATM    9  O   UNL     2     -10.606   5.740  69.271  1.00  0.00    -0.255 OA 
HETATM   10  O   UNL     2      -9.320   7.528  69.739  1.00  0.00    -0.151 OA 
HETATM   11  P   UNL     2      -9.811   6.386  70.666  1.00  0.00    -0.187 P  
HETATM   12  O   UNL     2      -9.082   5.019  70.645  1.00  0.00    -0.126 OA 
HETATM   13  O   UNL     2      -9.100   6.963  71.914  1.00  0.00    -0.142 OA 
ENDBRANCH   5   9
ENDBRANCH   3   5
TORSDOF 3
ENDMDL
MODEL      250
REMARK 921   NORMALIZED FREE ENERGY PREDICTED BY IDOCK:   -1.30 KCAL/MOL
REMARK 922        TOTAL FREE ENERGY PREDICTED BY IDOCK:   -1.98 KCAL/MOL
REMARK 923 INTER-LIGAND FREE ENERGY PREDICTED BY IDOCK:   -1.71 KCAL/MOL
REMARK 924 INTRA-LIGAND FREE ENERGY PREDICTED BY IDOCK:   -0.27 KCAL/MOL
REMARK 927      BINDING AFFINITY PREDICTED BY RF-SCORE:    0.00 PKD
ROOT
HETATM    1 CA   UNL     1      -7.343   6.269  65.674  1.00  0.00    -0.063 Ca 
HETATM    2  O   UNL     2      -7.672   4.219  66.214  1.00  0.00    -0.092 OA 
HETATM    3  C   UNL     2      -9.121   4.093  66.356  1.00  0.00    -0.135 C  
HETATM    4  H   UNL     2      -7.369   3.864  65.386  1.00  0.00     0.000 HD 
ENDROOT
BRANCH   3   5
HETATM    5  C   UNL     2      -9.614   4.670  67.702  1.00  0.00    -0.161 C  
BRANCH   5   6
HETATM    6  C   UNL     2      -9.417   3.745  68.895  1.00  0.00    -0.153 C  
HETATM    7  H   UNL     2      -9.161   3.921  70.874  1.00  0.00     0.000 HD 
HETATM    8  O   UNL     2      -9.283   4.498  70.130  1.00  0.00    -0.109 OA 
ENDBRANCH   5   6
BRANCH   5   9
HETATM    9  O   UNL     2      -8.938   5.868  68.012  1.00  0.00    -0.119 OA 
HETATM   10  O   UNL     2     -11.099   6.478  68.172  1.00  0.00    -0.291 OA 
HETATM   11  P   UNL     2      -9.854   7.317  67.780  1.00  0.00    -0.168 P  
HETATM   12  O   UNL     2      -9.288   7.216  66.342  1.00  0.00    -0.171 OA 
HETATM   13  O   UNL     2     -10.674   8.614  67.573  1.00  0.00    -0.249 OA 
ENDBRANCH   5   9
ENDBRANCH   3   5
TORSDOF 3
ENDMDL
MODEL      251
REMARK 921   NORMALIZED FREE ENERGY PREDICTED BY IDOCK:   -1.26 KCAL/MOL
REMARK 922        TOTAL FREE ENERGY PREDICTED BY IDOCK:   -1.94 KCAL/MOL
REMARK 923 INTER-LIGAND FREE ENERGY PREDICTED BY IDOCK:   -1.93 KCAL/MOL
REMARK 924 INTRA-LIGAND FREE ENERGY PREDICTED BY IDOCK:   -0.01 KCAL/MOL
REMARK 927      BINDING AFFINITY PREDICTED BY RF-SCORE:    0.00 PKD
ROOT
HETATM    1 CA   UNL     1      -7.024   5.709  69.987  1.00  0.00    -0.046 Ca 
HETATM    2  O   UNL     2      -8.059   7.557  70.330  1.00  0.00    -0.107 OA 
HETATM    3  C   UNL     2      -7.687   7.953  71.687  1.00  0.00    -0.092 C  
HETATM    4  H   UNL     2      -7.575   8.048  69.677  1.00  0.00     0.000 HD 
ENDROOT
BRANCH   3   5
HETATM    5  C   UNL     2      -8.474   7.154  72.750  1.00  0.00    -0.107 C  
BRANCH   5   6
HETATM    6  C   UNL     2      -7.663   6.772  73.981  1.00  0.00    -0.102 C  
HETATM    7  H   UNL     2      -5.888   7.240  74.783  1.00  0.00     0.000 HD 
HETATM    8  O   UNL     2      -6.394   7.478  74.016  1.00  0.00    -0.075 OA 
ENDBRANCH   5   6
BRANCH   5   9
HETATM    9  O   UNL     2      -9.580   7.894  73.216  1.00  0.00    -0.267 OA 
HETATM   10  O   UNL     2     -10.566   6.200  72.108  1.00  0.00    -0.198 OA 
HETATM   11  P   UNL     2     -11.054   7.654  72.342  1.00  0.00    -0.365 P  
HETATM   12  O   UNL     2     -10.492   8.799  71.462  1.00  0.00    -0.248 OA 
HETATM   13  O   UNL     2     -12.372   7.439  71.560  1.00  0.00    -0.319 OA 
ENDBRANCH   5   9
ENDBRANCH   3   5
TORSDOF 3
ENDMDL
MODEL      252
REMARK 921   NORMALIZED FREE ENERGY PREDICTED BY IDOCK:   -1.22 KCAL/MOL
REMARK 922        TOTAL FREE ENERGY PREDICTED BY IDOCK:   -1.89 KCAL/MOL
REMARK 923 INTER-LIGAND FREE ENERGY PREDICTED BY IDOCK:   -1.88 KCAL/MOL
REMARK 924 INTRA-LIGAND FREE ENERGY PREDICTED BY IDOCK:   -0.01 KCAL/MOL
REMARK 927      BINDING AFFINITY PREDICTED BY RF-SCORE:    0.00 PKD
ROOT
HETATM    1 CA   UNL     1     -11.110   6.659  66.620  1.00  0.00    -0.251 Ca 
HETATM    2  O   UNL     2     -10.801   7.365  68.622  1.00  0.00    -0.379 OA 
HETATM    3  C   UNL     2     -10.780   8.822  68.512  1.00  0.00    -0.060 C  
HETATM    4  H   UNL     2     -11.635   7.051  68.953  1.00  0.00     0.000 HD 
ENDROOT
BRANCH   3   5
HETATM    5  C   UNL     2      -9.425   9.333  67.975  1.00  0.00    -0.137 C  
BRANCH   5   6
HETATM    6  C   UNL     2      -9.469   9.857  66.545  1.00  0.00    -0.181 C  
HETATM    7  H   UNL     2      -9.754   9.111  64.708  1.00  0.00     0.000 HD 
HETATM    8  O   UNL     2      -9.727   8.785  65.599  1.00  0.00    -0.155 OA 
ENDBRANCH   5   6
BRANCH   5   9
HETATM    9  O   UNL     2      -8.936  10.390  68.771  1.00  0.00    -0.141 OA 
HETATM   10  O   UNL     2      -7.428   8.762  69.151  1.00  0.00    -0.074 OA 
HETATM   11  P   UNL     2      -7.898   9.918  70.072  1.00  0.00    -0.097 P  
HETATM   12  O   UNL     2      -9.238   9.787  70.838  1.00  0.00    -0.108 OA 
HETATM   13  O   UNL     2      -6.969   9.496  71.237  1.00  0.00    -0.300 OA 
ENDBRANCH   5   9
ENDBRANCH   3   5
TORSDOF 3
ENDMDL
MODEL      253
REMARK 921   NORMALIZED FREE ENERGY PREDICTED BY IDOCK:   -1.18 KCAL/MOL
REMARK 922        TOTAL FREE ENERGY PREDICTED BY IDOCK:   -1.85 KCAL/MOL
REMARK 923 INTER-LIGAND FREE ENERGY PREDICTED BY IDOCK:   -1.86 KCAL/MOL
REMARK 924 INTRA-LIGAND FREE ENERGY PREDICTED BY IDOCK:    0.02 KCAL/MOL
REMARK 927      BINDING AFFINITY PREDICTED BY RF-SCORE:    0.00 PKD
ROOT
HETATM    1 CA   UNL     1     -11.062   6.740  66.568  1.00  0.00    -0.277 Ca 
HETATM    2  O   UNL     2     -10.343   7.890  68.230  1.00  0.00    -0.199 OA 
HETATM    3  C   UNL     2     -10.667   9.276  67.901  1.00  0.00    -0.188 C  
HETATM    4  H   UNL     2     -10.958   7.526  68.857  1.00  0.00     0.000 HD 
ENDROOT
BRANCH   3   5
HETATM    5  C   UNL     2      -9.668   9.868  66.882  1.00  0.00    -0.186 C  
BRANCH   5   6
HETATM    6  C   UNL     2     -10.248  10.105  65.494  1.00  0.00    -0.218 C  
HETATM    7  H   UNL     2     -10.274  11.576  64.135  1.00  0.00     0.000 HD 
HETATM    8  O   UNL     2      -9.912  11.429  65.000  1.00  0.00    -0.242 OA 
ENDBRANCH   5   6
BRANCH   5   9
HETATM    9  O   UNL     2      -9.178  11.114  67.325  1.00  0.00    -0.159 OA 
HETATM   10  O   UNL     2      -7.293  10.037  66.730  1.00  0.00    -0.093 OA 
HETATM   11  P   UNL     2      -7.518  11.126  67.812  1.00  0.00    -0.103 P  
HETATM   12  O   UNL     2      -8.118  10.726  69.184  1.00  0.00    -0.152 OA 
HETATM   13  O   UNL     2      -6.033  11.136  68.249  1.00  0.00    -0.046 OA 
ENDBRANCH   5   9
ENDBRANCH   3   5
TORSDOF 3
ENDMDL
MODEL      254
REMARK 921   NORMALIZED FREE ENERGY PREDICTED BY IDOCK:   -1.17 KCAL/MOL
REMARK 922        TOTAL FREE ENERGY PREDICTED BY IDOCK:   -1.83 KCAL/MOL
REMARK 923 INTER-LIGAND FREE ENERGY PREDICTED BY IDOCK:   -1.38 KCAL/MOL
REMARK 924 INTRA-LIGAND FREE ENERGY PREDICTED BY IDOCK:   -0.46 KCAL/MOL
REMARK 927      BINDING AFFINITY PREDICTED BY RF-SCORE:    0.00 PKD
ROOT
HETATM    1 CA   UNL     1      -6.391   4.964  68.727  1.00  0.00    -0.025 Ca 
HETATM    2  O   UNL     2      -7.765   3.593  69.640  1.00  0.00    -0.051 OA 
HETATM    3  C   UNL     2      -9.051   3.864  69.001  1.00  0.00    -0.137 C  
HETATM    4  H   UNL     2      -7.355   2.812  69.285  1.00  0.00     0.000 HD 
ENDROOT
BRANCH   3   5
HETATM    5  C   UNL     2      -9.718   5.132  69.578  1.00  0.00    -0.192 C  
BRANCH   5   6
HETATM    6  C   UNL     2     -10.387   4.932  70.932  1.00  0.00    -0.155 C  
HETATM    7  H   UNL     2     -10.074   3.852  72.590  1.00  0.00     0.000 HD 
HETATM    8  O   UNL     2      -9.656   3.977  71.746  1.00  0.00    -0.136 OA 
ENDBRANCH   5   6
BRANCH   5   9
HETATM    9  O   UNL     2      -8.772   6.163  69.751  1.00  0.00    -0.132 OA 
HETATM   10  O   UNL     2     -10.403   7.194  68.592  1.00  0.00    -0.177 OA 
HETATM   11  P   UNL     2      -8.875   7.461  68.612  1.00  0.00    -0.123 P  
HETATM   12  O   UNL     2      -7.931   6.554  67.785  1.00  0.00    -0.112 OA 
HETATM   13  O   UNL     2      -8.967   8.623  67.593  1.00  0.00    -0.134 OA 
ENDBRANCH   5   9
ENDBRANCH   3   5
TORSDOF 3
ENDMDL
MODEL      255
REMARK 921   NORMALIZED FREE ENERGY PREDICTED BY IDOCK:   -0.88 KCAL/MOL
REMARK 922        TOTAL FREE ENERGY PREDICTED BY IDOCK:   -1.49 KCAL/MOL
REMARK 923 INTER-LIGAND FREE ENERGY PREDICTED BY IDOCK:   -2.79 KCAL/MOL
REMARK 924 INTRA-LIGAND FREE ENERGY PREDICTED BY IDOCK:    1.30 KCAL/MOL
REMARK 927      BINDING AFFINITY PREDICTED BY RF-SCORE:    0.00 PKD
ROOT
HETATM    1 CA   UNL     1     -11.382  16.174  66.186  1.00  0.00    -0.278 Ca 
HETATM    2  O   UNL     2     -10.967  16.288  68.288  1.00  0.00    -0.323 OA 
HETATM    3  C   UNL     2      -9.836  17.207  68.401  1.00  0.00    -0.296 C  
HETATM    4  H   UNL     2     -11.787  16.712  68.514  1.00  0.00     0.000 HD 
ENDROOT
BRANCH   3   5
HETATM    5  C   UNL     2      -8.503  16.518  68.035  1.00  0.00    -0.186 C  
BRANCH   5   6
HETATM    6  C   UNL     2      -8.561  14.996  68.023  1.00  0.00    -0.158 C  
HETATM    7  H   UNL     2      -8.116  13.492  69.269  1.00  0.00     0.000 HD 
HETATM    8  O   UNL     2      -8.080  14.441  69.276  1.00  0.00    -0.047 OA 
ENDBRANCH   5   6
BRANCH   5   9
HETATM    9  O   UNL     2      -8.072  16.910  66.750  1.00  0.00    -0.195 OA 
HETATM   10  O   UNL     2      -8.197  18.877  67.838  1.00  0.00    -0.267 OA 
HETATM   11  P   UNL     2      -8.392  18.558  66.332  1.00  0.00    -0.172 P  
HETATM   12  O   UNL     2      -9.740  17.971  65.845  1.00  0.00    -0.530 OA 
HETATM   13  O   UNL     2      -8.678  20.033  65.958  1.00  0.00    -0.342 OA 
ENDBRANCH   5   9
ENDBRANCH   3   5
TORSDOF 3
ENDMDL
MODEL      256
REMARK 921   NORMALIZED FREE ENERGY PREDICTED BY IDOCK:   -0.86 KCAL/MOL
REMARK 922        TOTAL FREE ENERGY PREDICTED BY IDOCK:   -1.47 KCAL/MOL
REMARK 923 INTER-LIGAND FREE ENERGY PREDICTED BY IDOCK:   -1.43 KCAL/MOL
REMARK 924 INTRA-LIGAND FREE ENERGY PREDICTED BY IDOCK:   -0.04 KCAL/MOL
REMARK 927      BINDING AFFINITY PREDICTED BY RF-SCORE:    0.00 PKD
ROOT
HETATM    1 CA   UNL     1      -7.202   7.900  65.577  1.00  0.00    -0.057 Ca 
HETATM    2  O   UNL     2      -8.993   9.010  65.173  1.00  0.00    -0.238 OA 
HETATM    3  C   UNL     2      -8.601  10.414  65.282  1.00  0.00    -0.176 C  
HETATM    4  H   UNL     2      -9.061   8.734  64.266  1.00  0.00     0.000 HD 
ENDROOT
BRANCH   3   5
HETATM    5  C   UNL     2      -8.490  10.862  66.756  1.00  0.00    -0.139 C  
BRANCH   5   6
HETATM    6  C   UNL     2      -9.580  11.826  67.205  1.00  0.00    -0.176 C  
HETATM    7  H   UNL     2     -11.576  11.955  67.093  1.00  0.00     0.000 HD 
HETATM    8  O   UNL     2     -10.897  11.354  66.812  1.00  0.00    -0.262 OA 
ENDBRANCH   5   6
BRANCH   5   9
HETATM    9  O   UNL     2      -8.557   9.754  67.624  1.00  0.00    -0.125 OA 
HETATM   10  O   UNL     2      -7.258  11.189  68.773  1.00  0.00    -0.083 OA 
HETATM   11  P   UNL     2      -7.273   9.638  68.778  1.00  0.00    -0.075 P  
HETATM   12  O   UNL     2      -6.573   8.865  67.632  1.00  0.00    -0.060 OA 
HETATM   13  O   UNL     2      -6.123   9.535  69.810  1.00  0.00    -0.038 OA 
ENDBRANCH   5   9
ENDBRANCH   3   5
TORSDOF 3
ENDMDL
MODEL      257
REMARK 921   NORMALIZED FREE ENERGY PREDICTED BY IDOCK:   -0.70 KCAL/MOL
REMARK 922        TOTAL FREE ENERGY PREDICTED BY IDOCK:   -1.28 KCAL/MOL
REMARK 923 INTER-LIGAND FREE ENERGY PREDICTED BY IDOCK:   -1.35 KCAL/MOL
REMARK 924 INTRA-LIGAND FREE ENERGY PREDICTED BY IDOCK:    0.06 KCAL/MOL
REMARK 927      BINDING AFFINITY PREDICTED BY RF-SCORE:    0.00 PKD
ROOT
HETATM    1 CA   UNL     1      -7.163   7.901  65.602  1.00  0.00    -0.059 Ca 
HETATM    2  O   UNL     2      -8.894   9.156  65.418  1.00  0.00    -0.173 OA 
HETATM    3  C   UNL     2      -8.395  10.517  65.598  1.00  0.00    -0.167 C  
HETATM    4  H   UNL     2      -9.045   8.957  64.501  1.00  0.00     0.000 HD 
ENDROOT
BRANCH   3   5
HETATM    5  C   UNL     2      -8.148  10.841  67.088  1.00  0.00    -0.124 C  
BRANCH   5   6
HETATM    6  C   UNL     2      -6.679  10.912  67.484  1.00  0.00    -0.074 C  
HETATM    7  H   UNL     2      -4.907  10.446  66.673  1.00  0.00     0.000 HD 
HETATM    8  O   UNL     2      -5.823  10.402  66.427  1.00  0.00    -0.060 OA 
ENDBRANCH   5   6
BRANCH   5   9
HETATM    9  O   UNL     2      -8.713  12.086  67.432  1.00  0.00    -0.156 OA 
HETATM   10  O   UNL     2      -9.201  10.823  69.230  1.00  0.00    -0.153 OA 
HETATM   11  P   UNL     2      -9.966  12.028  68.623  1.00  0.00    -0.009 P  
HETATM   12  O   UNL     2     -10.869  11.812  67.383  1.00  0.00    -0.227 OA 
HETATM   13  O   UNL     2     -11.088  11.976  69.689  1.00  0.00    -0.146 OA 
ENDBRANCH   5   9
ENDBRANCH   3   5
TORSDOF 3
ENDMDL
MODEL      258
REMARK 921   NORMALIZED FREE ENERGY PREDICTED BY IDOCK:   -0.66 KCAL/MOL
REMARK 922        TOTAL FREE ENERGY PREDICTED BY IDOCK:   -1.24 KCAL/MOL
REMARK 923 INTER-LIGAND FREE ENERGY PREDICTED BY IDOCK:   -1.12 KCAL/MOL
REMARK 924 INTRA-LIGAND FREE ENERGY PREDICTED BY IDOCK:   -0.12 KCAL/MOL
REMARK 927      BINDING AFFINITY PREDICTED BY RF-SCORE:    0.00 PKD
ROOT
HETATM    1 CA   UNL     1      -8.677   7.557  67.479  1.00  0.00    -0.116 Ca 
HETATM    2  O   UNL     2     -10.008   7.271  69.138  1.00  0.00    -0.164 OA 
HETATM    3  C   UNL     2      -9.252   7.708  70.309  1.00  0.00    -0.157 C  
HETATM    4  H   UNL     2     -10.634   7.929  68.859  1.00  0.00     0.000 HD 
ENDROOT
BRANCH   3   5
HETATM    5  C   UNL     2      -8.234   6.638  70.763  1.00  0.00    -0.121 C  
BRANCH   5   6
HETATM    6  C   UNL     2      -8.419   5.275  70.110  1.00  0.00    -0.109 C  
HETATM    7  H   UNL     2      -9.797   3.821  70.093  1.00  0.00     0.000 HD 
HETATM    8  O   UNL     2      -9.682   4.671  70.500  1.00  0.00    -0.179 OA 
ENDBRANCH   5   6
BRANCH   5   9
HETATM    9  O   UNL     2      -6.916   7.043  70.470  1.00  0.00    -0.059 OA 
HETATM   10  O   UNL     2      -6.801   6.582  72.671  1.00  0.00    -0.064 OA 
HETATM   11  P   UNL     2      -5.994   7.601  71.824  1.00  0.00    -0.035 P  
HETATM   12  O   UNL     2      -6.634   8.962  71.453  1.00  0.00    -0.071 OA 
HETATM   13  O   UNL     2      -5.170   8.100  73.036  1.00  0.00    -0.040 OA 
ENDBRANCH   5   9
ENDBRANCH   3   5
TORSDOF 3
ENDMDL
MODEL      259
REMARK 921   NORMALIZED FREE ENERGY PREDICTED BY IDOCK:   -0.47 KCAL/MOL
REMARK 922        TOTAL FREE ENERGY PREDICTED BY IDOCK:   -1.00 KCAL/MOL
REMARK 923 INTER-LIGAND FREE ENERGY PREDICTED BY IDOCK:   -3.96 KCAL/MOL
REMARK 924 INTRA-LIGAND FREE ENERGY PREDICTED BY IDOCK:    2.96 KCAL/MOL
REMARK 927      BINDING AFFINITY PREDICTED BY RF-SCORE:    0.00 PKD
ROOT
HETATM    1 CA   UNL     1     -11.877  15.326  65.324  1.00  0.00    -0.341 Ca 
HETATM    2  O   UNL     2     -11.184  17.272  64.742  1.00  0.00    -0.890 OA 
HETATM    3  C   UNL     2     -10.196  17.640  65.754  1.00  0.00    -0.150 C  
HETATM    4  H   UNL     2     -10.770  16.977  63.939  1.00  0.00     0.000 HD 
ENDROOT
BRANCH   3   5
HETATM    5  C   UNL     2     -10.869  18.119  67.059  1.00  0.00    -0.137 C  
BRANCH   5   6
HETATM    6  C   UNL     2     -10.753  17.143  68.223  1.00  0.00    -0.363 C  
HETATM    7  H   UNL     2     -11.197  15.225  68.591  1.00  0.00     0.000 HD 
HETATM    8  O   UNL     2     -11.268  15.833  67.865  1.00  0.00    -0.341 OA 
ENDBRANCH   5   6
BRANCH   5   9
HETATM    9  O   UNL     2     -10.302  19.332  67.500  1.00  0.00    -0.382 OA 
HETATM   10  O   UNL     2      -8.813  18.635  65.963  1.00  0.00    -0.489 OA 
HETATM   11  P   UNL     2      -8.599  19.494  67.237  1.00  0.00    -0.324 P  
HETATM   12  O   UNL     2      -8.515  18.800  68.619  1.00  0.00    -0.338 OA 
HETATM   13  O   UNL     2      -7.076  19.638  67.001  1.00  0.00    -0.205 OA 
ENDBRANCH   5   9
ENDBRANCH   3   5
TORSDOF 3
ENDMDL
MODEL      260
REMARK 921   NORMALIZED FREE ENERGY PREDICTED BY IDOCK:   -0.44 KCAL/MOL
REMARK 922        TOTAL FREE ENERGY PREDICTED BY IDOCK:   -0.97 KCAL/MOL
REMARK 923 INTER-LIGAND FREE ENERGY PREDICTED BY IDOCK:   -0.93 KCAL/MOL
REMARK 924 INTRA-LIGAND FREE ENERGY PREDICTED BY IDOCK:   -0.04 KCAL/MOL
REMARK 927      BINDING AFFINITY PREDICTED BY RF-SCORE:    0.00 PKD
ROOT
HETATM    1 CA   UNL     1      -5.605   5.182  69.540  1.00  0.00    -0.007 Ca 
HETATM    2  O   UNL     2      -6.997   4.359  70.949  1.00  0.00    -0.035 OA 
HETATM    3  C   UNL     2      -8.316   4.628  70.379  1.00  0.00    -0.075 C  
HETATM    4  H   UNL     2      -6.733   3.456  70.811  1.00  0.00     0.000 HD 
ENDROOT
BRANCH   3   5
HETATM    5  C   UNL     2      -8.745   6.094  70.603  1.00  0.00    -0.139 C  
BRANCH   5   6
HETATM    6  C   UNL     2      -9.892   6.273  71.590  1.00  0.00    -0.165 C  
HETATM    7  H   UNL     2     -10.457   5.506  73.352  1.00  0.00     0.000 HD 
HETATM    8  O   UNL     2      -9.742   5.395  72.737  1.00  0.00    -0.148 OA 
ENDBRANCH   5   6
BRANCH   5   9
HETATM    9  O   UNL     2      -7.671   6.862  71.099  1.00  0.00    -0.087 OA 
HETATM   10  O   UNL     2      -8.855   8.383  69.937  1.00  0.00    -0.134 OA 
HETATM   11  P   UNL     2      -7.332   8.314  70.223  1.00  0.00    -0.059 P  
HETATM   12  O   UNL     2      -6.439   7.369  69.381  1.00  0.00    -0.035 OA 
HETATM   13  O   UNL     2      -7.029   9.614  69.438  1.00  0.00    -0.051 OA 
ENDBRANCH   5   9
ENDBRANCH   3   5
TORSDOF 3
ENDMDL
MODEL      261
REMARK 921   NORMALIZED FREE ENERGY PREDICTED BY IDOCK:   -0.26 KCAL/MOL
REMARK 922        TOTAL FREE ENERGY PREDICTED BY IDOCK:   -0.76 KCAL/MOL
REMARK 923 INTER-LIGAND FREE ENERGY PREDICTED BY IDOCK:   -3.44 KCAL/MOL
REMARK 924 INTRA-LIGAND FREE ENERGY PREDICTED BY IDOCK:    2.68 KCAL/MOL
REMARK 927      BINDING AFFINITY PREDICTED BY RF-SCORE:    0.00 PKD
ROOT
HETATM    1 CA   UNL     1     -13.114  14.386  67.265  1.00  0.00    -0.592 Ca 
HETATM    2  O   UNL     2     -11.355  14.160  66.058  1.00  0.00    -0.318 OA 
HETATM    3  C   UNL     2     -11.258  12.726  65.794  1.00  0.00    -0.307 C  
HETATM    4  H   UNL     2     -11.705  14.631  65.310  1.00  0.00     0.000 HD 
ENDROOT
BRANCH   3   5
HETATM    5  C   UNL     2     -10.690  11.961  67.010  1.00  0.00    -0.240 C  
BRANCH   5   6
HETATM    6  C   UNL     2      -9.891  12.821  67.980  1.00  0.00    -0.226 C  
HETATM    7  H   UNL     2      -7.988  12.992  68.580  1.00  0.00     0.000 HD 
HETATM    8  O   UNL     2      -8.485  12.456  67.975  1.00  0.00    -0.158 OA 
ENDBRANCH   5   6
BRANCH   5   9
HETATM    9  O   UNL     2     -11.727  11.371  67.761  1.00  0.00    -0.533 OA 
HETATM   10  O   UNL     2     -11.576  13.424  68.674  1.00  0.00    -0.281 OA 
HETATM   11  P   UNL     2     -12.011  12.079  69.314  1.00  0.00    -0.160 P  
HETATM   12  O   UNL     2     -10.931  11.062  69.761  1.00  0.00    -0.250 OA 
HETATM   13  O   UNL     2     -12.265  12.713  70.704  1.00  0.00    -0.374 OA 
ENDBRANCH   5   9
ENDBRANCH   3   5
TORSDOF 3
ENDMDL
MODEL      262
REMARK 921   NORMALIZED FREE ENERGY PREDICTED BY IDOCK:    0.33 KCAL/MOL
REMARK 922        TOTAL FREE ENERGY PREDICTED BY IDOCK:   -0.07 KCAL/MOL
REMARK 923 INTER-LIGAND FREE ENERGY PREDICTED BY IDOCK:   -0.80 KCAL/MOL
REMARK 924 INTRA-LIGAND FREE ENERGY PREDICTED BY IDOCK:    0.73 KCAL/MOL
REMARK 927      BINDING AFFINITY PREDICTED BY RF-SCORE:    0.00 PKD
ROOT
HETATM    1 CA   UNL     1      -9.166   7.037  71.348  1.00  0.00    -0.142 Ca 
HETATM    2  O   UNL     2      -8.006   8.842  71.346  1.00  0.00    -0.135 OA 
HETATM    3  C   UNL     2      -7.598   9.028  69.955  1.00  0.00    -0.072 C  
HETATM    4  H   UNL     2      -8.733   9.409  71.577  1.00  0.00     0.000 HD 
ENDROOT
BRANCH   3   5
HETATM    5  C   UNL     2      -6.417   8.106  69.580  1.00  0.00    -0.034 C  
BRANCH   5   6
HETATM    6  C   UNL     2      -6.342   6.816  70.386  1.00  0.00    -0.042 C  
HETATM    7  H   UNL     2      -7.000   4.931  70.222  1.00  0.00     0.000 HD 
HETATM    8  O   UNL     2      -7.047   5.735  69.719  1.00  0.00    -0.063 OA 
ENDBRANCH   5   6
BRANCH   5   9
HETATM    9  O   UNL     2      -6.490   7.724  68.224  1.00  0.00    -0.053 OA 
HETATM   10  O   UNL     2      -5.282   9.621  68.126  1.00  0.00    -0.039 OA 
HETATM   11  P   UNL     2      -6.244   8.999  67.081  1.00  0.00    -0.060 P  
HETATM   12  O   UNL     2      -7.773   9.182  67.248  1.00  0.00    -0.094 OA 
HETATM   13  O   UNL     2      -6.024  10.140  66.058  1.00  0.00    -0.068 OA 
ENDBRANCH   5   9
ENDBRANCH   3   5
TORSDOF 3
ENDMDL
MODEL      263
REMARK 921   NORMALIZED FREE ENERGY PREDICTED BY IDOCK:    0.41 KCAL/MOL
REMARK 922        TOTAL FREE ENERGY PREDICTED BY IDOCK:    0.02 KCAL/MOL
REMARK 923 INTER-LIGAND FREE ENERGY PREDICTED BY IDOCK:   -2.18 KCAL/MOL
REMARK 924 INTRA-LIGAND FREE ENERGY PREDICTED BY IDOCK:    2.20 KCAL/MOL
REMARK 927      BINDING AFFINITY PREDICTED BY RF-SCORE:    0.00 PKD
ROOT
HETATM    1 CA   UNL     1     -10.686  16.909  70.117  1.00  0.00    -0.278 Ca 
HETATM    2  O   UNL     2     -10.099  18.120  68.446  1.00  0.00    -0.350 OA 
HETATM    3  C   UNL     2      -9.835  17.172  67.366  1.00  0.00    -0.264 C  
HETATM    4  H   UNL     2     -10.946  18.540  68.345  1.00  0.00     0.000 HD 
ENDROOT
BRANCH   3   5
HETATM    5  C   UNL     2      -8.460  16.489  67.530  1.00  0.00    -0.176 C  
BRANCH   5   6
HETATM    6  C   UNL     2      -7.267  17.407  67.294  1.00  0.00    -0.167 C  
HETATM    7  H   UNL     2      -6.773  18.895  66.047  1.00  0.00     0.000 HD 
HETATM    8  O   UNL     2      -7.517  18.323  66.194  1.00  0.00    -0.258 OA 
ENDBRANCH   5   6
BRANCH   5   9
HETATM    9  O   UNL     2      -8.309  15.970  68.833  1.00  0.00    -0.202 OA 
HETATM   10  O   UNL     2      -6.179  16.101  68.117  1.00  0.00    -0.106 OA 
HETATM   11  P   UNL     2      -6.832  15.119  69.125  1.00  0.00    -0.165 P  
HETATM   12  O   UNL     2      -7.647  13.913  68.596  1.00  0.00    -0.127 OA 
HETATM   13  O   UNL     2      -5.509  14.357  69.386  1.00  0.00    -0.089 OA 
ENDBRANCH   5   9
ENDBRANCH   3   5
TORSDOF 3
ENDMDL
MODEL      264
REMARK 921   NORMALIZED FREE ENERGY PREDICTED BY IDOCK:    0.51 KCAL/MOL
REMARK 922        TOTAL FREE ENERGY PREDICTED BY IDOCK:    0.15 KCAL/MOL
REMARK 923 INTER-LIGAND FREE ENERGY PREDICTED BY IDOCK:   -2.84 KCAL/MOL
REMARK 924 INTRA-LIGAND FREE ENERGY PREDICTED BY IDOCK:    2.99 KCAL/MOL
REMARK 927      BINDING AFFINITY PREDICTED BY RF-SCORE:    0.00 PKD
ROOT
HETATM    1 CA   UNL     1      -7.597  16.023  66.064  1.00  0.00    -0.232 Ca 
HETATM    2  O   UNL     2      -8.806  15.482  67.751  1.00  0.00    -0.169 OA 
HETATM    3  C   UNL     2      -8.796  14.021  67.771  1.00  0.00    -0.187 C  
HETATM    4  H   UNL     2      -8.214  15.845  68.400  1.00  0.00     0.000 HD 
ENDROOT
BRANCH   3   5
HETATM    5  C   UNL     2      -9.758  13.429  66.717  1.00  0.00    -0.262 C  
BRANCH   5   6
HETATM    6  C   UNL     2      -9.709  11.912  66.599  1.00  0.00    -0.205 C  
HETATM    7  H   UNL     2      -8.315  10.474  66.607  1.00  0.00     0.000 HD 
HETATM    8  O   UNL     2      -8.345  11.420  66.681  1.00  0.00    -0.164 OA 
ENDBRANCH   5   6
BRANCH   5   9
HETATM    9  O   UNL     2     -11.095  13.763  67.014  1.00  0.00    -0.293 OA 
HETATM   10  O   UNL     2     -10.204  13.469  69.061  1.00  0.00    -0.112 OA 
HETATM   11  P   UNL     2     -11.658  13.249  68.568  1.00  0.00    -0.375 P  
HETATM   12  O   UNL     2     -12.015  11.954  67.796  1.00  0.00    -0.559 OA 
HETATM   13  O   UNL     2     -12.162  12.789  69.958  1.00  0.00    -0.284 OA 
ENDBRANCH   5   9
ENDBRANCH   3   5
TORSDOF 3
ENDMDL
MODEL      265
REMARK 921   NORMALIZED FREE ENERGY PREDICTED BY IDOCK:    0.59 KCAL/MOL
REMARK 922        TOTAL FREE ENERGY PREDICTED BY IDOCK:    0.24 KCAL/MOL
REMARK 923 INTER-LIGAND FREE ENERGY PREDICTED BY IDOCK:   -2.35 KCAL/MOL
REMARK 924 INTRA-LIGAND FREE ENERGY PREDICTED BY IDOCK:    2.59 KCAL/MOL
REMARK 927      BINDING AFFINITY PREDICTED BY RF-SCORE:    0.00 PKD
ROOT
HETATM    1 CA   UNL     1      -7.278   4.935  71.176  1.00  0.00    -0.041 Ca 
HETATM    2  O   UNL     2      -8.844   4.653  69.737  1.00  0.00    -0.085 OA 
HETATM    3  C   UNL     2      -9.660   5.862  69.823  1.00  0.00    -0.153 C  
HETATM    4  H   UNL     2      -8.269   4.672  68.981  1.00  0.00     0.000 HD 
ENDROOT
BRANCH   3   5
HETATM    5  C   UNL     2     -10.596   5.831  71.052  1.00  0.00    -0.253 C  
BRANCH   5   6
HETATM    6  C   UNL     2      -9.981   6.394  72.327  1.00  0.00    -0.164 C  
HETATM    7  H   UNL     2      -8.340   6.089  73.435  1.00  0.00     0.000 HD 
HETATM    8  O   UNL     2      -8.723   5.738  72.640  1.00  0.00    -0.120 OA 
ENDBRANCH   5   6
BRANCH   5   9
HETATM    9  O   UNL     2     -11.766   6.580  70.811  1.00  0.00    -0.361 OA 
HETATM   10  O   UNL     2     -10.151   8.138  70.631  1.00  0.00    -0.192 OA 
HETATM   11  P   UNL     2     -11.626   8.282  71.087  1.00  0.00    -0.268 P  
HETATM   12  O   UNL     2     -12.021   7.885  72.531  1.00  0.00    -0.340 OA 
HETATM   13  O   UNL     2     -11.501   9.805  71.335  1.00  0.00    -0.371 OA 
ENDBRANCH   5   9
ENDBRANCH   3   5
TORSDOF 3
ENDMDL
MODEL      266
REMARK 921   NORMALIZED FREE ENERGY PREDICTED BY IDOCK:    0.60 KCAL/MOL
REMARK 922        TOTAL FREE ENERGY PREDICTED BY IDOCK:    0.25 KCAL/MOL
REMARK 923 INTER-LIGAND FREE ENERGY PREDICTED BY IDOCK:   -2.35 KCAL/MOL
REMARK 924 INTRA-LIGAND FREE ENERGY PREDICTED BY IDOCK:    2.60 KCAL/MOL
REMARK 927      BINDING AFFINITY PREDICTED BY RF-SCORE:    0.00 PKD
ROOT
HETATM    1 CA   UNL     1      -9.220   6.748  68.024  1.00  0.00    -0.121 Ca 
HETATM    2  O   UNL     2     -11.206   6.023  68.391  1.00  0.00    -0.287 OA 
HETATM    3  C   UNL     2     -11.643   6.713  69.603  1.00  0.00    -0.243 C  
HETATM    4  H   UNL     2     -11.584   6.412  67.611  1.00  0.00     0.000 HD 
ENDROOT
BRANCH   3   5
HETATM    5  C   UNL     2     -11.029   6.081  70.872  1.00  0.00    -0.289 C  
BRANCH   5   6
HETATM    6  C   UNL     2      -9.623   5.528  70.684  1.00  0.00    -0.170 C  
HETATM    7  H   UNL     2      -8.710   3.748  70.792  1.00  0.00     0.000 HD 
HETATM    8  O   UNL     2      -9.587   4.093  70.909  1.00  0.00    -0.152 OA 
ENDBRANCH   5   6
BRANCH   5   9
HETATM    9  O   UNL     2     -10.949   7.027  71.915  1.00  0.00    -0.226 OA 
HETATM   10  O   UNL     2      -9.526   7.871  70.387  1.00  0.00    -0.162 OA 
HETATM   11  P   UNL     2      -9.510   7.987  71.934  1.00  0.00    -0.225 P  
HETATM   12  O   UNL     2      -8.967   6.810  72.782  1.00  0.00    -0.128 OA 
HETATM   13  O   UNL     2      -8.222   8.846  71.951  1.00  0.00    -0.345 OA 
ENDBRANCH   5   9
ENDBRANCH   3   5
TORSDOF 3
ENDMDL
MODEL      267
REMARK 921   NORMALIZED FREE ENERGY PREDICTED BY IDOCK:    0.70 KCAL/MOL
REMARK 922        TOTAL FREE ENERGY PREDICTED BY IDOCK:    0.36 KCAL/MOL
REMARK 923 INTER-LIGAND FREE ENERGY PREDICTED BY IDOCK:   -2.77 KCAL/MOL
REMARK 924 INTRA-LIGAND FREE ENERGY PREDICTED BY IDOCK:    3.14 KCAL/MOL
REMARK 927      BINDING AFFINITY PREDICTED BY RF-SCORE:    0.00 PKD
ROOT
HETATM    1 CA   UNL     1      -9.249   6.503  67.858  1.00  0.00    -0.117 Ca 
HETATM    2  O   UNL     2     -10.418   5.415  69.291  1.00  0.00    -0.256 OA 
HETATM    3  C   UNL     2     -11.588   6.255  69.541  1.00  0.00    -0.168 C  
HETATM    4  H   UNL     2     -10.622   4.696  68.705  1.00  0.00     0.000 HD 
ENDROOT
BRANCH   3   5
HETATM    5  C   UNL     2     -11.256   7.425  70.493  1.00  0.00    -0.274 C  
BRANCH   5   6
HETATM    6  C   UNL     2     -12.292   7.663  71.584  1.00  0.00    -0.326 C  
HETATM    7  H   UNL     2     -13.586   9.102  72.104  1.00  0.00     0.000 HD 
HETATM    8  O   UNL     2     -12.940   8.953  71.423  1.00  0.00    -0.321 OA 
ENDBRANCH   5   6
BRANCH   5   9
HETATM    9  O   UNL     2     -10.029   7.205  71.152  1.00  0.00    -0.184 OA 
HETATM   10  O   UNL     2     -11.507   6.239  72.549  1.00  0.00    -0.276 OA 
HETATM   11  P   UNL     2     -10.143   6.914  72.853  1.00  0.00    -0.229 P  
HETATM   12  O   UNL     2     -10.056   8.459  72.927  1.00  0.00    -0.262 OA 
HETATM   13  O   UNL     2     -10.246   6.654  74.376  1.00  0.00    -0.360 OA 
ENDBRANCH   5   9
ENDBRANCH   3   5
TORSDOF 3
ENDMDL
MODEL      268
REMARK 921   NORMALIZED FREE ENERGY PREDICTED BY IDOCK:    0.73 KCAL/MOL
REMARK 922        TOTAL FREE ENERGY PREDICTED BY IDOCK:    0.40 KCAL/MOL
REMARK 923 INTER-LIGAND FREE ENERGY PREDICTED BY IDOCK:   -2.72 KCAL/MOL
REMARK 924 INTRA-LIGAND FREE ENERGY PREDICTED BY IDOCK:    3.12 KCAL/MOL
REMARK 927      BINDING AFFINITY PREDICTED BY RF-SCORE:    0.00 PKD
ROOT
HETATM    1 CA   UNL     1      -9.231   6.721  67.021  1.00  0.00    -0.121 Ca 
HETATM    2  O   UNL     2     -11.085   5.886  67.705  1.00  0.00    -0.364 OA 
HETATM    3  C   UNL     2     -11.167   6.253  69.117  1.00  0.00    -0.371 C  
HETATM    4  H   UNL     2     -11.633   6.444  67.165  1.00  0.00     0.000 HD 
ENDROOT
BRANCH   3   5
HETATM    5  C   UNL     2     -10.277   5.347  69.994  1.00  0.00    -0.279 C  
BRANCH   5   6
HETATM    6  C   UNL     2      -8.809   5.754  70.036  1.00  0.00    -0.135 C  
HETATM    7  H   UNL     2      -7.051   5.001  69.442  1.00  0.00     0.000 HD 
HETATM    8  O   UNL     2      -7.965   4.747  69.415  1.00  0.00    -0.069 OA 
ENDBRANCH   5   6
BRANCH   5   9
HETATM    9  O   UNL     2     -10.726   5.343  71.331  1.00  0.00    -0.240 OA 
HETATM   10  O   UNL     2     -12.066   6.879  70.375  1.00  0.00    -0.318 OA 
HETATM   11  P   UNL     2     -11.557   6.774  71.836  1.00  0.00    -0.319 P  
HETATM   12  O   UNL     2     -10.124   7.251  72.182  1.00  0.00    -0.179 OA 
HETATM   13  O   UNL     2     -12.300   8.055  72.289  1.00  0.00    -0.320 OA 
ENDBRANCH   5   9
ENDBRANCH   3   5
TORSDOF 3
ENDMDL
MODEL      269
REMARK 921   NORMALIZED FREE ENERGY PREDICTED BY IDOCK:    0.82 KCAL/MOL
REMARK 922        TOTAL FREE ENERGY PREDICTED BY IDOCK:    0.50 KCAL/MOL
REMARK 923 INTER-LIGAND FREE ENERGY PREDICTED BY IDOCK:   -2.45 KCAL/MOL
REMARK 924 INTRA-LIGAND FREE ENERGY PREDICTED BY IDOCK:    2.95 KCAL/MOL
REMARK 927      BINDING AFFINITY PREDICTED BY RF-SCORE:    0.00 PKD
ROOT
HETATM    1 CA   UNL     1      -6.329   4.709  71.368  1.00  0.00    -0.014 Ca 
HETATM    2  O   UNL     2      -8.437   4.534  71.009  1.00  0.00    -0.090 OA 
HETATM    3  C   UNL     2      -8.893   5.898  70.754  1.00  0.00    -0.138 C  
HETATM    4  H   UNL     2      -8.345   4.039  70.203  1.00  0.00     0.000 HD 
ENDROOT
BRANCH   3   5
HETATM    5  C   UNL     2      -9.043   6.703  72.064  1.00  0.00    -0.139 C  
BRANCH   5   6
HETATM    6  C   UNL     2      -9.126   8.212  71.871  1.00  0.00    -0.171 C  
HETATM    7  H   UNL     2      -8.323   9.852  72.695  1.00  0.00     0.000 HD 
HETATM    8  O   UNL     2      -8.271   8.912  72.815  1.00  0.00    -0.387 OA 
ENDBRANCH   5   6
BRANCH   5   9
HETATM    9  O   UNL     2     -10.213   6.325  72.754  1.00  0.00    -0.178 OA 
HETATM   10  O   UNL     2     -10.951   6.551  70.639  1.00  0.00    -0.250 OA 
HETATM   11  P   UNL     2     -11.700   6.757  71.982  1.00  0.00    -0.296 P  
HETATM   12  O   UNL     2     -11.503   8.075  72.772  1.00  0.00    -0.402 OA 
HETATM   13  O   UNL     2     -13.030   7.144  71.292  1.00  0.00    -0.383 OA 
ENDBRANCH   5   9
ENDBRANCH   3   5
TORSDOF 3
ENDMDL
MODEL      270
REMARK 921   NORMALIZED FREE ENERGY PREDICTED BY IDOCK:    0.87 KCAL/MOL
REMARK 922        TOTAL FREE ENERGY PREDICTED BY IDOCK:    0.56 KCAL/MOL
REMARK 923 INTER-LIGAND FREE ENERGY PREDICTED BY IDOCK:   -2.23 KCAL/MOL
REMARK 924 INTRA-LIGAND FREE ENERGY PREDICTED BY IDOCK:    2.79 KCAL/MOL
REMARK 927      BINDING AFFINITY PREDICTED BY RF-SCORE:    0.00 PKD
ROOT
HETATM    1 CA   UNL     1      -6.849   4.941  67.503  1.00  0.00    -0.047 Ca 
HETATM    2  O   UNL     2      -8.833   4.732  68.290  1.00  0.00    -0.101 OA 
HETATM    3  C   UNL     2      -9.654   5.643  67.496  1.00  0.00    -0.118 C  
HETATM    4  H   UNL     2      -8.941   3.830  68.011  1.00  0.00     0.000 HD 
ENDROOT
BRANCH   3   5
HETATM    5  C   UNL     2      -9.480   7.110  67.950  1.00  0.00    -0.130 C  
BRANCH   5   6
HETATM    6  C   UNL     2     -10.622   8.034  67.548  1.00  0.00    -0.232 C  
HETATM    7  H   UNL     2     -10.914   9.551  66.272  1.00  0.00     0.000 HD 
HETATM    8  O   UNL     2     -10.202   8.974  66.522  1.00  0.00    -0.278 OA 
ENDBRANCH   5   6
BRANCH   5   9
HETATM    9  O   UNL     2      -9.378   7.192  69.354  1.00  0.00    -0.148 OA 
HETATM   10  O   UNL     2     -11.431   6.312  69.070  1.00  0.00    -0.363 OA 
HETATM   11  P   UNL     2     -10.883   7.215  70.206  1.00  0.00    -0.263 P  
HETATM   12  O   UNL     2     -10.768   8.743  69.977  1.00  0.00    -0.224 OA 
HETATM   13  O   UNL     2     -12.231   7.237  70.968  1.00  0.00    -0.328 OA 
ENDBRANCH   5   9
ENDBRANCH   3   5
TORSDOF 3
ENDMDL
MODEL      271
REMARK 921   NORMALIZED FREE ENERGY PREDICTED BY IDOCK:    1.30 KCAL/MOL
REMARK 922        TOTAL FREE ENERGY PREDICTED BY IDOCK:    1.07 KCAL/MOL
REMARK 923 INTER-LIGAND FREE ENERGY PREDICTED BY IDOCK:   -1.25 KCAL/MOL
REMARK 924 INTRA-LIGAND FREE ENERGY PREDICTED BY IDOCK:    2.32 KCAL/MOL
REMARK 927      BINDING AFFINITY PREDICTED BY RF-SCORE:    0.00 PKD
ROOT
HETATM    1 CA   UNL     1      -9.300   5.216  68.432  1.00  0.00    -0.106 Ca 
HETATM    2  O   UNL     2      -9.770   3.250  67.713  1.00  0.00    -0.221 OA 
HETATM    3  C   UNL     2      -8.692   2.920  66.782  1.00  0.00    -0.128 C  
HETATM    4  H   UNL     2      -9.651   2.822  68.553  1.00  0.00     0.000 HD 
ENDROOT
BRANCH   3   5
HETATM    5  C   UNL     2      -8.885   3.616  65.417  1.00  0.00    -0.123 C  
BRANCH   5   6
HETATM    6  C   UNL     2      -9.738   4.877  65.466  1.00  0.00    -0.112 C  
HETATM    7  H   UNL     2     -11.683   5.341  65.596  1.00  0.00     0.000 HD 
HETATM    8  O   UNL     2     -11.151   4.555  65.566  1.00  0.00    -0.173 OA 
ENDBRANCH   5   6
BRANCH   5   9
HETATM    9  O   UNL     2      -7.644   3.997  64.867  1.00  0.00    -0.075 OA 
HETATM   10  O   UNL     2      -7.731   5.219  66.756  1.00  0.00    -0.094 OA 
HETATM   11  P   UNL     2      -7.033   5.524  65.405  1.00  0.00    -0.067 P  
HETATM   12  O   UNL     2      -7.872   6.059  64.217  1.00  0.00    -0.102 OA 
HETATM   13  O   UNL     2      -6.487   6.891  65.885  1.00  0.00    -0.048 OA 
ENDBRANCH   5   9
ENDBRANCH   3   5
TORSDOF 3
ENDMDL
MODEL      272
REMARK 921   NORMALIZED FREE ENERGY PREDICTED BY IDOCK:    1.44 KCAL/MOL
REMARK 922        TOTAL FREE ENERGY PREDICTED BY IDOCK:    1.24 KCAL/MOL
REMARK 923 INTER-LIGAND FREE ENERGY PREDICTED BY IDOCK:   -0.75 KCAL/MOL
REMARK 924 INTRA-LIGAND FREE ENERGY PREDICTED BY IDOCK:    1.98 KCAL/MOL
REMARK 927      BINDING AFFINITY PREDICTED BY RF-SCORE:    0.00 PKD
ROOT
HETATM    1 CA   UNL     1      -5.460   3.456  71.271  1.00  0.00    -0.005 Ca 
HETATM    2  O   UNL     2      -6.993   4.295  70.025  1.00  0.00    -0.040 OA 
HETATM    3  C   UNL     2      -6.440   5.559  69.543  1.00  0.00    -0.042 C  
HETATM    4  H   UNL     2      -6.944   3.616  69.362  1.00  0.00     0.000 HD 
ENDROOT
BRANCH   3   5
HETATM    5  C   UNL     2      -6.519   6.663  70.621  1.00  0.00    -0.051 C  
BRANCH   5   6
HETATM    6  C   UNL     2      -5.991   8.020  70.173  1.00  0.00    -0.026 C  
HETATM    7  H   UNL     2      -5.210   9.655  71.026  1.00  0.00     0.000 HD 
HETATM    8  O   UNL     2      -5.538   8.809  71.305  1.00  0.00    -0.034 OA 
ENDBRANCH   5   6
BRANCH   5   9
HETATM    9  O   UNL     2      -7.852   6.870  71.030  1.00  0.00    -0.095 OA 
HETATM   10  O   UNL     2      -7.113   5.366  72.534  1.00  0.00    -0.082 OA 
HETATM   11  P   UNL     2      -8.542   5.596  71.977  1.00  0.00    -0.130 P  
HETATM   12  O   UNL     2      -8.920   5.029  70.586  1.00  0.00    -0.125 OA 
HETATM   13  O   UNL     2      -9.159   4.456  72.823  1.00  0.00    -0.119 OA 
ENDBRANCH   5   9
ENDBRANCH   3   5
TORSDOF 3
ENDMDL
MODEL      273
REMARK 921   NORMALIZED FREE ENERGY PREDICTED BY IDOCK:    1.60 KCAL/MOL
REMARK 922        TOTAL FREE ENERGY PREDICTED BY IDOCK:    1.43 KCAL/MOL
REMARK 923 INTER-LIGAND FREE ENERGY PREDICTED BY IDOCK:   -1.66 KCAL/MOL
REMARK 924 INTRA-LIGAND FREE ENERGY PREDICTED BY IDOCK:    3.09 KCAL/MOL
REMARK 927      BINDING AFFINITY PREDICTED BY RF-SCORE:    0.00 PKD
ROOT
HETATM    1 CA   UNL     1      -5.586  14.980  67.338  1.00  0.00    -0.116 Ca 
HETATM    2  O   UNL     2      -5.976  16.312  68.973  1.00  0.00    -0.125 OA 
HETATM    3  C   UNL     2      -7.100  15.713  69.690  1.00  0.00    -0.160 C  
HETATM    4  H   UNL     2      -5.151  16.147  69.416  1.00  0.00     0.000 HD 
ENDROOT
BRANCH   3   5
HETATM    5  C   UNL     2      -8.441  15.981  68.971  1.00  0.00    -0.244 C  
BRANCH   5   6
HETATM    6  C   UNL     2      -8.315  16.767  67.672  1.00  0.00    -0.182 C  
HETATM    7  H   UNL     2      -9.541  17.537  66.287  1.00  0.00     0.000 HD 
HETATM    8  O   UNL     2      -9.619  17.048  67.097  1.00  0.00    -0.243 OA 
ENDBRANCH   5   6
BRANCH   5   9
HETATM    9  O   UNL     2      -9.086  14.771  68.643  1.00  0.00    -0.178 OA 
HETATM   10  O   UNL     2      -7.050  14.071  69.303  1.00  0.00    -0.111 OA 
HETATM   11  P   UNL     2      -8.033  13.447  68.278  1.00  0.00    -0.136 P  
HETATM   12  O   UNL     2      -8.114  14.030  66.845  1.00  0.00    -0.081 OA 
HETATM   13  O   UNL     2      -7.092  12.263  67.950  1.00  0.00    -0.086 OA 
ENDBRANCH   5   9
ENDBRANCH   3   5
TORSDOF 3
ENDMDL
MODEL      274
REMARK 921   NORMALIZED FREE ENERGY PREDICTED BY IDOCK:    1.75 KCAL/MOL
REMARK 922        TOTAL FREE ENERGY PREDICTED BY IDOCK:    1.60 KCAL/MOL
REMARK 923 INTER-LIGAND FREE ENERGY PREDICTED BY IDOCK:   -0.89 KCAL/MOL
REMARK 924 INTRA-LIGAND FREE ENERGY PREDICTED BY IDOCK:    2.49 KCAL/MOL
REMARK 927      BINDING AFFINITY PREDICTED BY RF-SCORE:    0.00 PKD
ROOT
HETATM    1 CA   UNL     1     -10.040   6.244  66.053  1.00  0.00    -0.236 Ca 
HETATM    2  O   UNL     2      -8.575   4.745  66.514  1.00  0.00    -0.110 OA 
HETATM    3  C   UNL     2      -7.324   5.256  65.959  1.00  0.00    -0.081 C  
HETATM    4  H   UNL     2      -8.619   4.872  67.455  1.00  0.00     0.000 HD 
ENDROOT
BRANCH   3   5
HETATM    5  C   UNL     2      -7.253   5.050  64.429  1.00  0.00    -0.055 C  
BRANCH   5   6
HETATM    6  C   UNL     2      -8.604   5.079  63.726  1.00  0.00    -0.110 C  
HETATM    7  H   UNL     2     -10.121   3.814  63.390  1.00  0.00     0.000 HD 
HETATM    8  O   UNL     2      -9.279   3.796  63.829  1.00  0.00    -0.113 OA 
ENDBRANCH   5   6
BRANCH   5   9
HETATM    9  O   UNL     2      -6.469   6.053  63.824  1.00  0.00    -0.028 OA 
HETATM   10  O   UNL     2      -5.718   6.069  65.946  1.00  0.00    -0.018 OA 
HETATM   11  P   UNL     2      -5.791   7.219  64.908  1.00  0.00    -0.038 P  
HETATM   12  O   UNL     2      -7.139   7.943  64.665  1.00  0.00    -0.071 OA 
HETATM   13  O   UNL     2      -5.185   8.262  65.879  1.00  0.00    -0.027 OA 
ENDBRANCH   5   9
ENDBRANCH   3   5
TORSDOF 3
ENDMDL
MODEL      275
REMARK 921   NORMALIZED FREE ENERGY PREDICTED BY IDOCK:    1.81 KCAL/MOL
REMARK 922        TOTAL FREE ENERGY PREDICTED BY IDOCK:    1.67 KCAL/MOL
REMARK 923 INTER-LIGAND FREE ENERGY PREDICTED BY IDOCK:   -1.23 KCAL/MOL
REMARK 924 INTRA-LIGAND FREE ENERGY PREDICTED BY IDOCK:    2.90 KCAL/MOL
REMARK 927      BINDING AFFINITY PREDICTED BY RF-SCORE:    0.00 PKD
ROOT
HETATM    1 CA   UNL     1      -5.827   3.879  67.263  1.00  0.00    -0.017 Ca 
HETATM    2  O   UNL     2      -7.747   3.312  68.034  1.00  0.00    -0.063 OA 
HETATM    3  C   UNL     2      -8.664   4.350  67.569  1.00  0.00    -0.105 C  
HETATM    4  H   UNL     2      -7.818   2.521  67.511  1.00  0.00     0.000 HD 
ENDROOT
BRANCH   3   5
HETATM    5  C   UNL     2      -8.548   5.635  68.419  1.00  0.00    -0.111 C  
BRANCH   5   6
HETATM    6  C   UNL     2      -7.336   6.499  68.095  1.00  0.00    -0.090 C  
HETATM    7  H   UNL     2      -5.559   6.919  68.918  1.00  0.00     0.000 HD 
HETATM    8  O   UNL     2      -6.315   6.380  69.120  1.00  0.00    -0.032 OA 
ENDBRANCH   5   6
BRANCH   5   9
HETATM    9  O   UNL     2      -9.681   6.456  68.243  1.00  0.00    -0.126 OA 
HETATM   10  O   UNL     2      -8.692   6.559  66.223  1.00  0.00    -0.134 OA 
HETATM   11  P   UNL     2      -9.568   7.608  66.956  1.00  0.00    -0.207 P  
HETATM   12  O   UNL     2      -8.936   8.491  68.061  1.00  0.00    -0.140 OA 
HETATM   13  O   UNL     2      -9.466   8.639  65.805  1.00  0.00    -0.206 OA 
ENDBRANCH   5   9
ENDBRANCH   3   5
TORSDOF 3
ENDMDL
MODEL      276
REMARK 921   NORMALIZED FREE ENERGY PREDICTED BY IDOCK:    2.29 KCAL/MOL
REMARK 922        TOTAL FREE ENERGY PREDICTED BY IDOCK:    2.23 KCAL/MOL
REMARK 923 INTER-LIGAND FREE ENERGY PREDICTED BY IDOCK:   -1.19 KCAL/MOL
REMARK 924 INTRA-LIGAND FREE ENERGY PREDICTED BY IDOCK:    3.43 KCAL/MOL
REMARK 927      BINDING AFFINITY PREDICTED BY RF-SCORE:    0.00 PKD
ROOT
HETATM    1 CA   UNL     1     -13.091  13.450  68.528  1.00  0.00     0.020 Ca 
HETATM    2  O   UNL     2     -13.431  13.791  70.618  1.00  0.00    -0.005 OA 
HETATM    3  C   UNL     2     -13.826  15.194  70.714  1.00  0.00    -0.108 C  
HETATM    4  H   UNL     2     -14.182  13.211  70.677  1.00  0.00     0.000 HD 
ENDROOT
BRANCH   3   5
HETATM    5  C   UNL     2     -12.605  16.137  70.619  1.00  0.00     0.371 C  
BRANCH   5   6
HETATM    6  C   UNL     2     -11.414  15.715  71.468  1.00  0.00    -0.422 C  
HETATM    7  H   UNL     2     -10.560  16.268  73.194  1.00  0.00     0.000 HD 
HETATM    8  O   UNL     2     -11.303  16.532  72.664  1.00  0.00     0.049 OA 
ENDBRANCH   5   6
BRANCH   5   9
HETATM    9  O   UNL     2     -12.138  16.220  69.291  1.00  0.00    -0.138 OA 
HETATM   10  O   UNL     2     -11.310  14.240  69.972  1.00  0.00    -0.241 OA 
HETATM   11  P   UNL     2     -10.753  15.247  68.932  1.00  0.00    -0.274 P  
HETATM   12  O   UNL     2      -9.986  16.502  69.419  1.00  0.00    -0.245 OA 
HETATM   13  O   UNL     2      -9.513  14.377  68.611  1.00  0.00    -0.203 OA 
ENDBRANCH   5   9
ENDBRANCH   3   5
TORSDOF 3
ENDMDL
MODEL      277
REMARK 921   NORMALIZED FREE ENERGY PREDICTED BY IDOCK:    3.23 KCAL/MOL
REMARK 922        TOTAL FREE ENERGY PREDICTED BY IDOCK:    3.34 KCAL/MOL
REMARK 923 INTER-LIGAND FREE ENERGY PREDICTED BY IDOCK:   -0.84 KCAL/MOL
REMARK 924 INTRA-LIGAND FREE ENERGY PREDICTED BY IDOCK:    4.19 KCAL/MOL
REMARK 927      BINDING AFFINITY PREDICTED BY RF-SCORE:    0.00 PKD
ROOT
HETATM    1 CA   UNL     1      -6.798   7.645  65.578  1.00  0.00    -0.044 Ca 
HETATM    2  O   UNL     2      -8.003   7.686  63.803  1.00  0.00    -0.166 OA 
HETATM    3  C   UNL     2      -8.412   9.081  63.655  1.00  0.00    -0.167 C  
HETATM    4  H   UNL     2      -7.291   7.465  63.213  1.00  0.00     0.000 HD 
ENDROOT
BRANCH   3   5
HETATM    5  C   UNL     2      -9.568   9.440  64.614  1.00  0.00     0.175 C  
BRANCH   5   6
HETATM    6  C   UNL     2      -9.179   9.474  66.087  1.00  0.00    -0.177 C  
HETATM    7  H   UNL     2      -9.694   8.523  67.772  1.00  0.00     0.000 HD 
HETATM    8  O   UNL     2      -9.937   8.501  66.855  1.00  0.00    -0.212 OA 
ENDBRANCH   5   6
BRANCH   5   9
HETATM    9  O   UNL     2     -10.094  10.713  64.312  1.00  0.00    -0.328 OA 
HETATM   10  O   UNL     2      -9.445  10.955  66.455  1.00  0.00    -0.179 OA 
HETATM   11  P   UNL     2     -10.593  11.652  65.678  1.00  0.00    -0.276 P  
HETATM   12  O   UNL     2     -11.931  10.903  65.459  1.00  0.00     0.786 OA 
HETATM   13  O   UNL     2     -11.040  12.491  66.900  1.00  0.00    -0.255 OA 
ENDBRANCH   5   9
ENDBRANCH   3   5
TORSDOF 3
ENDMDL
