MODEL        1
REMARK 921   NORMALIZED FREE ENERGY PREDICTED BY IDOCK:   -6.08 KCAL/MOL
REMARK 922        TOTAL FREE ENERGY PREDICTED BY IDOCK:   -7.62 KCAL/MOL
REMARK 923 INTER-LIGAND FREE ENERGY PREDICTED BY IDOCK:   -7.14 KCAL/MOL
REMARK 924 INTRA-LIGAND FREE ENERGY PREDICTED BY IDOCK:   -0.47 KCAL/MOL
REMARK 927      BINDING AFFINITY PREDICTED BY RF-SCORE:    0.00 PKD
ROOT
HETATM    1 CA   UNL     1     -12.748  14.589  68.355  1.00  0.00    -0.528 Ca 
HETATM    2  C   UNL     2      -9.970  17.584  67.831  1.00  0.00    -0.312 C  
HETATM    3  H   UNL     2     -10.495  19.456  67.402  1.00  0.00     0.000 HD 
HETATM    4  C   UNL     2     -10.468  16.494  68.789  1.00  0.00    -0.309 C  
HETATM    5  O   UNL     2     -10.803  18.781  67.995  1.00  0.00    -0.292 OA 
HETATM    6  O   UNL     2      -9.643  15.764  69.372  1.00  0.00    -0.256 OA 
HETATM    7  O   UNL     2     -11.746  16.335  68.870  1.00  0.00    -0.313 OA 
ENDROOT
BRANCH   2   8
HETATM    8  C   UNL     2     -10.090  17.198  66.349  1.00  0.00    -0.320 C  
HETATM    9  H   UNL     2      -8.878  17.265  64.812  1.00  0.00     0.000 HD 
HETATM   10  O   UNL     2      -8.803  17.504  65.728  1.00  0.00    -0.514 OA 
BRANCH   8  11
HETATM   11  C   UNL     2     -10.424  15.730  65.946  1.00  0.00    -0.352 C  
HETATM   12  H   UNL     2      -9.379  14.103  65.710  1.00  0.00     0.000 HD 
HETATM   13  O   UNL     2      -9.176  14.998  65.956  1.00  0.00    -0.293 OA 
BRANCH  11  14
HETATM   14  C   UNL     2     -11.143  15.464  64.616  1.00  0.00    -0.347 C  
HETATM   15  C   UNL     2     -12.353  14.535  64.648  1.00  0.00    -0.403 C  
HETATM   16  O   UNL     2     -11.463  16.692  63.921  1.00  0.00    -1.604 OA 
HETATM   17  H   UNL     2     -11.908  16.527  63.097  1.00  0.00     0.000 HD 
HETATM   18  O   UNL     2     -12.739  13.960  65.707  1.00  0.00    -0.504 OA 
HETATM   19  O   UNL     2     -12.726  13.957  63.566  1.00  0.00    -0.797 OA 
ENDBRANCH  11  14
ENDBRANCH   8  11
ENDBRANCH   2   8
TORSDOF 3
ENDMDL
MODEL        2
REMARK 921   NORMALIZED FREE ENERGY PREDICTED BY IDOCK:   -5.99 KCAL/MOL
REMARK 922        TOTAL FREE ENERGY PREDICTED BY IDOCK:   -7.51 KCAL/MOL
REMARK 923 INTER-LIGAND FREE ENERGY PREDICTED BY IDOCK:   -6.74 KCAL/MOL
REMARK 924 INTRA-LIGAND FREE ENERGY PREDICTED BY IDOCK:   -0.77 KCAL/MOL
REMARK 927      BINDING AFFINITY PREDICTED BY RF-SCORE:    0.00 PKD
ROOT
HETATM    1 CA   UNL     1      -8.737  13.311  67.414  1.00  0.00    -0.145 Ca 
HETATM    2  C   UNL     2     -11.292  11.947  64.485  1.00  0.00    -0.316 C  
HETATM    3  H   UNL     2     -10.669  11.541  62.638  1.00  0.00     0.000 HD 
HETATM    4  C   UNL     2     -10.767  11.693  65.904  1.00  0.00    -0.278 C  
HETATM    5  O   UNL     2     -10.344  11.384  63.517  1.00  0.00    -0.350 OA 
HETATM    6  O   UNL     2     -11.567  11.390  66.810  1.00  0.00    -0.465 OA 
HETATM    7  O   UNL     2      -9.508  11.897  66.100  1.00  0.00    -0.225 OA 
ENDROOT
BRANCH   2   8
HETATM    8  C   UNL     2     -11.403  13.438  64.132  1.00  0.00    -0.364 C  
HETATM    9  H   UNL     2     -12.483  14.470  62.864  1.00  0.00     0.000 HD 
HETATM   10  O   UNL     2     -12.414  13.549  63.082  1.00  0.00    -0.759 OA 
BRANCH   8  11
HETATM   11  C   UNL     2     -11.804  14.475  65.225  1.00  0.00    -0.358 C  
HETATM   12  H   UNL     2     -13.490  15.066  65.999  1.00  0.00     0.000 HD 
HETATM   13  O   UNL     2     -13.246  14.435  65.333  1.00  0.00    -0.607 OA 
BRANCH  11  14
HETATM   14  C   UNL     2     -11.360  15.936  65.069  1.00  0.00    -0.193 C  
HETATM   15  C   UNL     2      -9.976  16.306  65.592  1.00  0.00    -0.274 C  
HETATM   16  O   UNL     2     -11.535  16.411  63.713  1.00  0.00    -1.590 OA 
HETATM   17  H   UNL     2     -11.260  17.316  63.617  1.00  0.00     0.000 HD 
HETATM   18  O   UNL     2      -9.224  15.471  66.175  1.00  0.00    -0.303 OA 
HETATM   19  O   UNL     2      -9.720  17.532  65.870  1.00  0.00    -0.513 OA 
ENDBRANCH  11  14
ENDBRANCH   8  11
ENDBRANCH   2   8
TORSDOF 3
ENDMDL
MODEL        3
REMARK 921   NORMALIZED FREE ENERGY PREDICTED BY IDOCK:   -5.98 KCAL/MOL
REMARK 922        TOTAL FREE ENERGY PREDICTED BY IDOCK:   -7.50 KCAL/MOL
REMARK 923 INTER-LIGAND FREE ENERGY PREDICTED BY IDOCK:   -6.67 KCAL/MOL
REMARK 924 INTRA-LIGAND FREE ENERGY PREDICTED BY IDOCK:   -0.84 KCAL/MOL
REMARK 927      BINDING AFFINITY PREDICTED BY RF-SCORE:    0.00 PKD
ROOT
HETATM    1 CA   UNL     1     -11.922  12.041  62.659  1.00  0.00    -0.607 Ca 
HETATM    2  C   UNL     2     -11.646  15.492  64.890  1.00  0.00    -0.201 C  
HETATM    3  H   UNL     2     -10.952  17.196  64.128  1.00  0.00     0.000 HD 
HETATM    4  C   UNL     2     -12.593  14.381  64.417  1.00  0.00    -0.168 C  
HETATM    5  O   UNL     2     -11.538  16.508  63.836  1.00  0.00    -1.175 OA 
HETATM    6  O   UNL     2     -13.385  13.863  65.227  1.00  0.00    -0.732 OA 
HETATM    7  O   UNL     2     -12.448  13.977  63.201  1.00  0.00    -0.733 OA 
ENDROOT
BRANCH   2   8
HETATM    8  C   UNL     2     -10.211  15.007  65.143  1.00  0.00    -0.365 C  
HETATM    9  H   UNL     2      -8.587  15.840  65.854  1.00  0.00     0.000 HD 
HETATM   10  O   UNL     2      -9.474  16.140  65.698  1.00  0.00    -0.427 OA 
BRANCH   8  11
HETATM   11  C   UNL     2      -9.946  13.810  66.106  1.00  0.00    -0.308 C  
HETATM   12  H   UNL     2      -8.590  13.402  67.443  1.00  0.00     0.000 HD 
HETATM   13  O   UNL     2      -8.752  14.131  66.856  1.00  0.00    -0.215 OA 
BRANCH  11  14
HETATM   14  C   UNL     2      -9.798  12.398  65.522  1.00  0.00    -0.200 C  
HETATM   15  C   UNL     2     -10.722  11.314  66.070  1.00  0.00    -0.242 C  
HETATM   16  O   UNL     2      -9.828  12.407  64.075  1.00  0.00    -0.557 OA 
HETATM   17  H   UNL     2      -9.737  11.533  63.713  1.00  0.00     0.000 HD 
HETATM   18  O   UNL     2     -11.552  11.536  66.999  1.00  0.00    -0.510 OA 
HETATM   19  O   UNL     2     -10.384  10.083  65.944  1.00  0.00    -0.225 OA 
ENDBRANCH  11  14
ENDBRANCH   8  11
ENDBRANCH   2   8
TORSDOF 3
ENDMDL
MODEL        4
REMARK 921   NORMALIZED FREE ENERGY PREDICTED BY IDOCK:   -5.78 KCAL/MOL
REMARK 922        TOTAL FREE ENERGY PREDICTED BY IDOCK:   -7.26 KCAL/MOL
REMARK 923 INTER-LIGAND FREE ENERGY PREDICTED BY IDOCK:   -6.53 KCAL/MOL
REMARK 924 INTRA-LIGAND FREE ENERGY PREDICTED BY IDOCK:   -0.73 KCAL/MOL
REMARK 927      BINDING AFFINITY PREDICTED BY RF-SCORE:    0.00 PKD
ROOT
HETATM    1 CA   UNL     1     -11.153  16.142  68.685  1.00  0.00    -0.237 Ca 
HETATM    2  C   UNL     2     -10.914  15.525  64.619  1.00  0.00    -0.322 C  
HETATM    3  H   UNL     2     -11.893  16.667  63.314  1.00  0.00     0.000 HD 
HETATM    4  C   UNL     2     -10.101  15.766  65.897  1.00  0.00    -0.356 C  
HETATM    5  O   UNL     2     -11.388  16.815  64.105  1.00  0.00    -1.194 OA 
HETATM    6  O   UNL     2      -9.075  15.091  66.109  1.00  0.00    -0.280 OA 
HETATM    7  O   UNL     2     -10.586  16.612  66.742  1.00  0.00    -0.293 OA 
ENDROOT
BRANCH   2   8
HETATM    8  C   UNL     2     -12.179  14.684  64.849  1.00  0.00    -0.357 C  
HETATM    9  H   UNL     2     -13.562  13.939  63.677  1.00  0.00     0.000 HD 
HETATM   10  O   UNL     2     -12.780  14.460  63.535  1.00  0.00    -0.742 OA 
BRANCH   8  11
HETATM   11  C   UNL     2     -12.077  13.281  65.519  1.00  0.00    -0.435 C  
HETATM   12  H   UNL     2     -12.875  11.538  65.178  1.00  0.00     0.000 HD 
HETATM   13  O   UNL     2     -12.938  12.393  64.769  1.00  0.00    -0.786 OA 
BRANCH  11  14
HETATM   14  C   UNL     2     -12.402  13.140  67.013  1.00  0.00    -0.057 C  
HETATM   15  C   UNL     2     -11.559  12.158  67.822  1.00  0.00    -0.342 C  
HETATM   16  O   UNL     2     -12.463  14.425  67.676  1.00  0.00    -0.596 OA 
HETATM   17  H   UNL     2     -12.664  14.337  68.600  1.00  0.00     0.000 HD 
HETATM   18  O   UNL     2     -10.655  11.446  67.298  1.00  0.00    -0.207 OA 
HETATM   19  O   UNL     2     -12.026  11.694  68.923  1.00  0.00    -0.328 OA 
ENDBRANCH  11  14
ENDBRANCH   8  11
ENDBRANCH   2   8
TORSDOF 3
ENDMDL
MODEL        5
REMARK 921   NORMALIZED FREE ENERGY PREDICTED BY IDOCK:   -5.75 KCAL/MOL
REMARK 922        TOTAL FREE ENERGY PREDICTED BY IDOCK:   -7.24 KCAL/MOL
REMARK 923 INTER-LIGAND FREE ENERGY PREDICTED BY IDOCK:   -6.79 KCAL/MOL
REMARK 924 INTRA-LIGAND FREE ENERGY PREDICTED BY IDOCK:   -0.45 KCAL/MOL
REMARK 927      BINDING AFFINITY PREDICTED BY RF-SCORE:    0.00 PKD
ROOT
HETATM    1 CA   UNL     1      -7.994  11.684  62.693  1.00  0.00    -0.390 Ca 
HETATM    2  C   UNL     2     -11.836  11.898  64.162  1.00  0.00    -0.318 C  
HETATM    3  H   UNL     2     -13.425  12.004  62.966  1.00  0.00     0.000 HD 
HETATM    4  C   UNL     2     -10.531  11.093  64.187  1.00  0.00    -0.377 C  
HETATM    5  O   UNL     2     -12.617  11.506  62.983  1.00  0.00    -0.263 OA 
HETATM    6  O   UNL     2     -10.086  10.677  65.274  1.00  0.00    -0.267 OA 
HETATM    7  O   UNL     2      -9.908  10.965  63.065  1.00  0.00    -0.319 OA 
ENDROOT
BRANCH   2   8
HETATM    8  C   UNL     2     -11.618  13.413  64.025  1.00  0.00    -0.385 C  
HETATM    9  H   UNL     2     -12.489  14.837  63.001  1.00  0.00     0.000 HD 
HETATM   10  O   UNL     2     -12.624  13.901  63.085  1.00  0.00    -0.775 OA 
BRANCH   8  11
HETATM   11  C   UNL     2     -11.717  14.336  65.277  1.00  0.00    -0.357 C  
HETATM   12  H   UNL     2     -13.153  14.858  66.484  1.00  0.00     0.000 HD 
HETATM   13  O   UNL     2     -13.093  14.296  65.720  1.00  0.00    -0.452 OA 
BRANCH  11  14
HETATM   14  C   UNL     2     -11.275  15.801  65.164  1.00  0.00    -0.248 C  
HETATM   15  C   UNL     2      -9.848  16.137  65.587  1.00  0.00    -0.255 C  
HETATM   16  O   UNL     2     -11.560  16.350  63.856  1.00  0.00    -1.564 OA 
HETATM   17  H   UNL     2     -11.287  17.258  63.785  1.00  0.00     0.000 HD 
HETATM   18  O   UNL     2      -9.058  15.268  66.058  1.00  0.00    -0.310 OA 
HETATM   19  O   UNL     2      -9.560  17.345  65.908  1.00  0.00    -0.509 OA 
ENDBRANCH  11  14
ENDBRANCH   8  11
ENDBRANCH   2   8
TORSDOF 3
ENDMDL
MODEL        6
REMARK 921   NORMALIZED FREE ENERGY PREDICTED BY IDOCK:   -5.73 KCAL/MOL
REMARK 922        TOTAL FREE ENERGY PREDICTED BY IDOCK:   -7.21 KCAL/MOL
REMARK 923 INTER-LIGAND FREE ENERGY PREDICTED BY IDOCK:   -6.94 KCAL/MOL
REMARK 924 INTRA-LIGAND FREE ENERGY PREDICTED BY IDOCK:   -0.27 KCAL/MOL
REMARK 927      BINDING AFFINITY PREDICTED BY RF-SCORE:    0.00 PKD
ROOT
HETATM    1 CA   UNL     1      -8.685  20.835  65.217  1.00  0.00    -0.547 Ca 
HETATM    2  C   UNL     2      -9.631  17.549  67.513  1.00  0.00    -0.265 C  
HETATM    3  H   UNL     2      -8.248  16.269  68.156  1.00  0.00     0.000 HD 
HETATM    4  C   UNL     2      -9.753  19.074  67.403  1.00  0.00    -0.315 C  
HETATM    5  O   UNL     2      -8.323  17.214  68.088  1.00  0.00    -0.211 OA 
HETATM    6  O   UNL     2     -10.842  19.623  67.654  1.00  0.00    -0.429 OA 
HETATM    7  O   UNL     2      -8.718  19.706  66.962  1.00  0.00    -0.293 OA 
ENDROOT
BRANCH   2   8
HETATM    8  C   UNL     2      -9.680  16.832  66.155  1.00  0.00    -0.291 C  
HETATM    9  H   UNL     2      -8.347  15.952  65.021  1.00  0.00     0.000 HD 
HETATM   10  O   UNL     2      -8.316  16.395  65.860  1.00  0.00    -0.334 OA 
BRANCH   8  11
HETATM   11  C   UNL     2     -10.584  15.577  65.963  1.00  0.00    -0.325 C  
HETATM   12  H   UNL     2     -10.367  13.669  66.290  1.00  0.00     0.000 HD 
HETATM   13  O   UNL     2      -9.816  14.434  66.407  1.00  0.00    -0.271 OA 
BRANCH  11  14
HETATM   14  C   UNL     2     -11.160  15.275  64.572  1.00  0.00    -0.245 C  
HETATM   15  C   UNL     2     -12.379  14.360  64.504  1.00  0.00    -0.418 C  
HETATM   16  O   UNL     2     -11.387  16.484  63.809  1.00  0.00    -1.553 OA 
HETATM   17  H   UNL     2     -11.744  16.297  62.948  1.00  0.00     0.000 HD 
HETATM   18  O   UNL     2     -12.884  13.824  65.532  1.00  0.00    -0.596 OA 
HETATM   19  O   UNL     2     -12.642  13.751  63.406  1.00  0.00    -0.842 OA 
ENDBRANCH  11  14
ENDBRANCH   8  11
ENDBRANCH   2   8
TORSDOF 3
ENDMDL
MODEL        7
REMARK 921   NORMALIZED FREE ENERGY PREDICTED BY IDOCK:   -5.68 KCAL/MOL
REMARK 922        TOTAL FREE ENERGY PREDICTED BY IDOCK:   -7.16 KCAL/MOL
REMARK 923 INTER-LIGAND FREE ENERGY PREDICTED BY IDOCK:   -6.56 KCAL/MOL
REMARK 924 INTRA-LIGAND FREE ENERGY PREDICTED BY IDOCK:   -0.59 KCAL/MOL
REMARK 927      BINDING AFFINITY PREDICTED BY RF-SCORE:    0.00 PKD
ROOT
HETATM    1 CA   UNL     1      -8.909  12.032  66.723  1.00  0.00    -0.154 Ca 
HETATM    2  C   UNL     2     -12.582  13.485  65.559  1.00  0.00    -0.481 C  
HETATM    3  H   UNL     2     -13.577  12.735  64.006  1.00  0.00     0.000 HD 
HETATM    4  C   UNL     2     -11.780  12.910  66.733  1.00  0.00    -0.383 C  
HETATM    5  O   UNL     2     -13.081  12.379  64.733  1.00  0.00    -0.806 OA 
HETATM    6  O   UNL     2     -11.874  13.438  67.858  1.00  0.00    -0.339 OA 
HETATM    7  O   UNL     2     -10.969  11.945  66.462  1.00  0.00    -0.266 OA 
ENDROOT
BRANCH   2   8
HETATM    8  C   UNL     2     -11.743  14.359  64.614  1.00  0.00    -0.430 C  
HETATM    9  H   UNL     2     -12.087  15.253  62.905  1.00  0.00     0.000 HD 
HETATM   10  O   UNL     2     -12.606  14.713  63.489  1.00  0.00    -0.705 OA 
BRANCH   8  11
HETATM   11  C   UNL     2     -11.128  15.698  65.122  1.00  0.00    -0.348 C  
HETATM   12  H   UNL     2     -11.026  17.511  64.420  1.00  0.00     0.000 HD 
HETATM   13  O   UNL     2     -11.400  16.695  64.110  1.00  0.00    -1.141 OA 
BRANCH  11  14
HETATM   14  C   UNL     2      -9.636  15.749  65.478  1.00  0.00    -0.167 C  
HETATM   15  C   UNL     2      -9.177  16.867  66.410  1.00  0.00    -0.279 C  
HETATM   16  O   UNL     2      -9.148  14.468  65.942  1.00  0.00    -0.500 OA 
HETATM   17  H   UNL     2      -8.224  14.500  66.163  1.00  0.00     0.000 HD 
HETATM   18  O   UNL     2      -9.967  17.753  66.848  1.00  0.00    -0.303 OA 
HETATM   19  O   UNL     2      -7.942  17.211  66.411  1.00  0.00    -0.259 OA 
ENDBRANCH  11  14
ENDBRANCH   8  11
ENDBRANCH   2   8
TORSDOF 3
ENDMDL
MODEL        8
REMARK 921   NORMALIZED FREE ENERGY PREDICTED BY IDOCK:   -5.68 KCAL/MOL
REMARK 922        TOTAL FREE ENERGY PREDICTED BY IDOCK:   -7.14 KCAL/MOL
REMARK 923 INTER-LIGAND FREE ENERGY PREDICTED BY IDOCK:   -6.72 KCAL/MOL
REMARK 924 INTRA-LIGAND FREE ENERGY PREDICTED BY IDOCK:   -0.42 KCAL/MOL
REMARK 927      BINDING AFFINITY PREDICTED BY RF-SCORE:    0.00 PKD
ROOT
HETATM    1 CA   UNL     1     -10.018  13.353  69.381  1.00  0.00    -0.377 Ca 
HETATM    2  C   UNL     2     -10.906  11.194  65.987  1.00  0.00    -0.166 C  
HETATM    3  H   UNL     2      -9.495  10.567  64.729  1.00  0.00     0.000 HD 
HETATM    4  C   UNL     2     -11.073  11.253  67.511  1.00  0.00    -0.286 C  
HETATM    5  O   UNL     2      -9.600  10.603  65.673  1.00  0.00    -0.194 OA 
HETATM    6  O   UNL     2     -12.185  11.008  68.016  1.00  0.00    -0.520 OA 
HETATM    7  O   UNL     2     -10.051  11.650  68.190  1.00  0.00    -0.183 OA 
ENDROOT
BRANCH   2   8
HETATM    8  C   UNL     2     -10.903  12.577  65.318  1.00  0.00    -0.286 C  
HETATM    9  H   UNL     2     -10.570  13.219  63.497  1.00  0.00     0.000 HD 
HETATM   10  O   UNL     2     -10.572  12.364  63.910  1.00  0.00    -0.370 OA 
BRANCH   8  11
HETATM   11  C   UNL     2     -12.191  13.456  65.327  1.00  0.00    -0.440 C  
HETATM   12  H   UNL     2     -14.085  13.112  65.038  1.00  0.00     0.000 HD 
HETATM   13  O   UNL     2     -13.300  12.577  65.032  1.00  0.00    -0.591 OA 
BRANCH  11  14
HETATM   14  C   UNL     2     -12.269  14.679  64.403  1.00  0.00    -0.452 C  
HETATM   15  C   UNL     2     -11.233  15.780  64.612  1.00  0.00    -0.363 C  
HETATM   16  O   UNL     2     -12.332  14.299  63.009  1.00  0.00    -0.967 OA 
HETATM   17  H   UNL     2     -12.381  15.056  62.437  1.00  0.00     0.000 HD 
HETATM   18  O   UNL     2     -10.365  15.730  65.531  1.00  0.00    -0.355 OA 
HETATM   19  O   UNL     2     -11.485  16.963  64.185  1.00  0.00    -1.174 OA 
ENDBRANCH  11  14
ENDBRANCH   8  11
ENDBRANCH   2   8
TORSDOF 3
ENDMDL
MODEL        9
REMARK 921   NORMALIZED FREE ENERGY PREDICTED BY IDOCK:   -5.65 KCAL/MOL
REMARK 922        TOTAL FREE ENERGY PREDICTED BY IDOCK:   -7.11 KCAL/MOL
REMARK 923 INTER-LIGAND FREE ENERGY PREDICTED BY IDOCK:   -6.92 KCAL/MOL
REMARK 924 INTRA-LIGAND FREE ENERGY PREDICTED BY IDOCK:   -0.19 KCAL/MOL
REMARK 927      BINDING AFFINITY PREDICTED BY RF-SCORE:    0.00 PKD
ROOT
HETATM    1 CA   UNL     1     -12.578  15.468  68.672  1.00  0.00    -0.510 Ca 
HETATM    2  C   UNL     2     -10.785  15.115  64.981  1.00  0.00    -0.430 C  
HETATM    3  H   UNL     2     -11.118  16.415  63.511  1.00  0.00     0.000 HD 
HETATM    4  C   UNL     2     -10.531  15.204  66.492  1.00  0.00    -0.291 C  
HETATM    5  O   UNL     2     -10.961  16.470  64.446  1.00  0.00    -0.872 OA 
HETATM    6  O   UNL     2      -9.702  14.440  67.021  1.00  0.00    -0.241 OA 
HETATM    7  O   UNL     2     -11.272  16.026  67.156  1.00  0.00    -0.171 OA 
ENDROOT
BRANCH   2   8
HETATM    8  C   UNL     2     -12.073  14.360  64.621  1.00  0.00    -0.471 C  
HETATM    9  H   UNL     2     -13.685  14.806  63.601  1.00  0.00     0.000 HD 
HETATM   10  O   UNL     2     -12.889  15.274  63.824  1.00  0.00    -0.580 OA 
BRANCH   8  11
HETATM   11  C   UNL     2     -12.003  13.030  63.812  1.00  0.00    -0.518 C  
HETATM   12  H   UNL     2     -13.210  11.526  63.541  1.00  0.00     0.000 HD 
HETATM   13  O   UNL     2     -13.253  12.337  64.034  1.00  0.00    -0.757 OA 
BRANCH  11  14
HETATM   14  C   UNL     2     -10.845  12.056  64.072  1.00  0.00    -0.378 C  
HETATM   15  C   UNL     2     -10.749  11.440  65.465  1.00  0.00    -0.253 C  
HETATM   16  O   UNL     2     -10.765  11.030  63.055  1.00  0.00    -0.786 OA 
HETATM   17  H   UNL     2     -10.048  10.427  63.216  1.00  0.00     0.000 HD 
HETATM   18  O   UNL     2     -11.551  11.737  66.396  1.00  0.00    -0.462 OA 
HETATM   19  O   UNL     2      -9.623  10.974  65.865  1.00  0.00    -0.201 OA 
ENDBRANCH  11  14
ENDBRANCH   8  11
ENDBRANCH   2   8
TORSDOF 3
ENDMDL
MODEL       10
REMARK 921   NORMALIZED FREE ENERGY PREDICTED BY IDOCK:   -5.62 KCAL/MOL
REMARK 922        TOTAL FREE ENERGY PREDICTED BY IDOCK:   -7.08 KCAL/MOL
REMARK 923 INTER-LIGAND FREE ENERGY PREDICTED BY IDOCK:   -6.61 KCAL/MOL
REMARK 924 INTRA-LIGAND FREE ENERGY PREDICTED BY IDOCK:   -0.47 KCAL/MOL
REMARK 927      BINDING AFFINITY PREDICTED BY RF-SCORE:    0.00 PKD
ROOT
HETATM    1 CA   UNL     1     -13.153  14.117  62.641  1.00  0.00    -0.770 Ca 
HETATM    2  C   UNL     2     -11.077  12.569  65.843  1.00  0.00    -0.299 C  
HETATM    3  H   UNL     2     -11.989  11.959  67.505  1.00  0.00     0.000 HD 
HETATM    4  C   UNL     2     -11.332  12.436  64.336  1.00  0.00    -0.340 C  
HETATM    5  O   UNL     2     -12.147  11.877  66.572  1.00  0.00    -0.568 OA 
HETATM    6  O   UNL     2     -10.371  12.255  63.564  1.00  0.00    -0.429 OA 
HETATM    7  O   UNL     2     -12.546  12.611  63.938  1.00  0.00    -0.633 OA 
ENDROOT
BRANCH   2   8
HETATM    8  C   UNL     2     -11.111  14.021  66.344  1.00  0.00    -0.316 C  
HETATM    9  H   UNL     2     -11.248  14.861  68.109  1.00  0.00     0.000 HD 
HETATM   10  O   UNL     2     -11.227  13.963  67.800  1.00  0.00    -0.273 OA 
BRANCH   8  11
HETATM   11  C   UNL     2      -9.920  14.981  66.046  1.00  0.00    -0.310 C  
HETATM   12  H   UNL     2      -8.042  15.035  66.561  1.00  0.00     0.000 HD 
HETATM   13  O   UNL     2      -8.769  14.450  66.743  1.00  0.00    -0.223 OA 
BRANCH  11  14
HETATM   14  C   UNL     2     -10.058  16.472  66.384  1.00  0.00    -0.312 C  
HETATM   15  C   UNL     2     -10.768  17.357  65.364  1.00  0.00    -0.035 C  
HETATM   16  O   UNL     2     -10.609  16.677  67.706  1.00  0.00    -0.325 OA 
HETATM   17  H   UNL     2     -10.694  17.600  67.915  1.00  0.00     0.000 HD 
HETATM   18  O   UNL     2     -11.194  16.913  64.259  1.00  0.00    -1.204 OA 
HETATM   19  O   UNL     2     -10.555  18.622  65.379  1.00  0.00    -0.572 OA 
ENDBRANCH  11  14
ENDBRANCH   8  11
ENDBRANCH   2   8
TORSDOF 3
ENDMDL
MODEL       11
REMARK 921   NORMALIZED FREE ENERGY PREDICTED BY IDOCK:   -5.54 KCAL/MOL
REMARK 922        TOTAL FREE ENERGY PREDICTED BY IDOCK:   -6.99 KCAL/MOL
REMARK 923 INTER-LIGAND FREE ENERGY PREDICTED BY IDOCK:   -6.31 KCAL/MOL
REMARK 924 INTRA-LIGAND FREE ENERGY PREDICTED BY IDOCK:   -0.68 KCAL/MOL
REMARK 927      BINDING AFFINITY PREDICTED BY RF-SCORE:    0.00 PKD
ROOT
HETATM    1 CA   UNL     1      -9.234  11.587  65.387  1.00  0.00    -0.192 Ca 
HETATM    2  C   UNL     2     -12.308  14.249  64.736  1.00  0.00    -0.426 C  
HETATM    3  H   UNL     2     -12.861  14.806  62.906  1.00  0.00     0.000 HD 
HETATM    4  C   UNL     2     -11.920  12.929  65.414  1.00  0.00    -0.426 C  
HETATM    5  O   UNL     2     -12.620  13.989  63.326  1.00  0.00    -0.801 OA 
HETATM    6  O   UNL     2     -12.299  12.701  66.579  1.00  0.00    -0.500 OA 
HETATM    7  O   UNL     2     -11.132  12.150  64.754  1.00  0.00    -0.299 OA 
ENDROOT
BRANCH   2   8
HETATM    8  C   UNL     2     -11.175  15.286  64.722  1.00  0.00    -0.396 C  
HETATM    9  H   UNL     2     -10.950  17.062  63.925  1.00  0.00     0.000 HD 
HETATM   10  O   UNL     2     -11.651  16.421  63.933  1.00  0.00    -1.100 OA 
BRANCH   8  11
HETATM   11  C   UNL     2     -10.644  15.885  66.059  1.00  0.00    -0.323 C  
HETATM   12  H   UNL     2      -9.995  17.636  66.614  1.00  0.00     0.000 HD 
HETATM   13  O   UNL     2     -10.319  17.270  65.799  1.00  0.00    -0.531 OA 
BRANCH  11  14
HETATM   14  C   UNL     2      -9.448  15.219  66.755  1.00  0.00    -0.245 C  
HETATM   15  C   UNL     2      -9.581  14.928  68.247  1.00  0.00    -0.214 C  
HETATM   16  O   UNL     2      -8.998  14.041  66.045  1.00  0.00    -0.464 OA 
HETATM   17  H   UNL     2      -8.258  13.629  66.476  1.00  0.00     0.000 HD 
HETATM   18  O   UNL     2     -10.606  15.253  68.914  1.00  0.00    -0.227 OA 
HETATM   19  O   UNL     2      -8.520  14.772  68.950  1.00  0.00    -0.164 OA 
ENDBRANCH  11  14
ENDBRANCH   8  11
ENDBRANCH   2   8
TORSDOF 3
ENDMDL
MODEL       12
REMARK 921   NORMALIZED FREE ENERGY PREDICTED BY IDOCK:   -5.46 KCAL/MOL
REMARK 922        TOTAL FREE ENERGY PREDICTED BY IDOCK:   -6.89 KCAL/MOL
REMARK 923 INTER-LIGAND FREE ENERGY PREDICTED BY IDOCK:   -5.96 KCAL/MOL
REMARK 924 INTRA-LIGAND FREE ENERGY PREDICTED BY IDOCK:   -0.92 KCAL/MOL
REMARK 927      BINDING AFFINITY PREDICTED BY RF-SCORE:    0.00 PKD
ROOT
HETATM    1 CA   UNL     1     -13.147  14.348  67.313  1.00  0.00    -0.592 Ca 
HETATM    2  C   UNL     2     -11.768  12.853  63.731  1.00  0.00    -0.492 C  
HETATM    3  H   UNL     2     -12.707  11.391  62.759  1.00  0.00     0.000 HD 
HETATM    4  C   UNL     2     -12.189  14.127  64.475  1.00  0.00    -0.445 C  
HETATM    5  O   UNL     2     -12.967  12.180  63.219  1.00  0.00    -0.735 OA 
HETATM    6  O   UNL     2     -11.499  15.158  64.366  1.00  0.00    -0.325 OA 
HETATM    7  O   UNL     2     -13.208  14.028  65.260  1.00  0.00    -0.782 OA 
ENDROOT
BRANCH   2   8
HETATM    8  C   UNL     2     -11.069  11.821  64.630  1.00  0.00    -0.303 C  
HETATM    9  H   UNL     2      -9.895  10.288  64.302  1.00  0.00     0.000 HD 
HETATM   10  O   UNL     2     -10.327  10.925  63.746  1.00  0.00    -0.354 OA 
BRANCH   8  11
HETATM   11  C   UNL     2     -10.056  12.288  65.718  1.00  0.00    -0.252 C  
HETATM   12  H   UNL     2      -8.383  11.583  66.424  1.00  0.00     0.000 HD 
HETATM   13  O   UNL     2      -9.001  11.299  65.761  1.00  0.00    -0.205 OA 
BRANCH  11  14
HETATM   14  C   UNL     2     -10.556  12.541  67.148  1.00  0.00    -0.228 C  
HETATM   15  C   UNL     2     -10.304  13.923  67.742  1.00  0.00    -0.240 C  
HETATM   16  O   UNL     2     -11.943  12.163  67.308  1.00  0.00    -0.573 OA 
HETATM   17  H   UNL     2     -12.253  12.320  68.193  1.00  0.00     0.000 HD 
HETATM   18  O   UNL     2      -9.672  14.825  67.120  1.00  0.00    -0.226 OA 
HETATM   19  O   UNL     2     -10.311  14.066  69.017  1.00  0.00    -0.214 OA 
ENDBRANCH  11  14
ENDBRANCH   8  11
ENDBRANCH   2   8
TORSDOF 3
ENDMDL
MODEL       13
REMARK 921   NORMALIZED FREE ENERGY PREDICTED BY IDOCK:   -5.34 KCAL/MOL
REMARK 922        TOTAL FREE ENERGY PREDICTED BY IDOCK:   -6.75 KCAL/MOL
REMARK 923 INTER-LIGAND FREE ENERGY PREDICTED BY IDOCK:   -6.23 KCAL/MOL
REMARK 924 INTRA-LIGAND FREE ENERGY PREDICTED BY IDOCK:   -0.52 KCAL/MOL
REMARK 927      BINDING AFFINITY PREDICTED BY RF-SCORE:    0.00 PKD
ROOT
HETATM    1 CA   UNL     1      -7.179  19.070  67.218  1.00  0.00    -0.203 Ca 
HETATM    2  C   UNL     2     -10.868  17.271  66.873  1.00  0.00    -0.004 C  
HETATM    3  H   UNL     2     -11.361  15.652  67.922  1.00  0.00     0.000 HD 
HETATM    4  C   UNL     2     -10.143  18.591  67.164  1.00  0.00    -0.353 C  
HETATM    5  O   UNL     2     -10.913  16.470  68.102  1.00  0.00    -0.346 OA 
HETATM    6  O   UNL     2     -10.555  19.645  66.644  1.00  0.00    -0.450 OA 
HETATM    7  O   UNL     2      -9.070  18.518  67.877  1.00  0.00    -0.281 OA 
ENDROOT
BRANCH   2   8
HETATM    8  C   UNL     2     -10.149  16.394  65.836  1.00  0.00    -0.347 C  
HETATM    9  H   UNL     2      -8.886  14.900  65.943  1.00  0.00     0.000 HD 
HETATM   10  O   UNL     2      -9.330  15.442  66.584  1.00  0.00    -0.227 OA 
BRANCH   8  11
HETATM   11  C   UNL     2     -10.973  15.546  64.820  1.00  0.00    -0.399 C  
HETATM   12  H   UNL     2     -12.150  15.962  63.326  1.00  0.00     0.000 HD 
HETATM   13  O   UNL     2     -11.648  16.479  63.945  1.00  0.00    -1.175 OA 
BRANCH  11  14
HETATM   14  C   UNL     2     -11.998  14.532  65.349  1.00  0.00    -0.332 C  
HETATM   15  C   UNL     2     -12.182  13.244  64.552  1.00  0.00    -0.400 C  
HETATM   16  O   UNL     2     -11.792  14.238  66.751  1.00  0.00    -0.393 OA 
HETATM   17  H   UNL     2     -12.426  13.611  67.077  1.00  0.00     0.000 HD 
HETATM   18  O   UNL     2     -11.560  13.018  63.473  1.00  0.00    -0.467 OA 
HETATM   19  O   UNL     2     -13.269  12.577  64.687  1.00  0.00    -0.848 OA 
ENDBRANCH  11  14
ENDBRANCH   8  11
ENDBRANCH   2   8
TORSDOF 3
ENDMDL
MODEL       14
REMARK 921   NORMALIZED FREE ENERGY PREDICTED BY IDOCK:   -5.33 KCAL/MOL
REMARK 922        TOTAL FREE ENERGY PREDICTED BY IDOCK:   -6.74 KCAL/MOL
REMARK 923 INTER-LIGAND FREE ENERGY PREDICTED BY IDOCK:   -6.33 KCAL/MOL
REMARK 924 INTRA-LIGAND FREE ENERGY PREDICTED BY IDOCK:   -0.41 KCAL/MOL
REMARK 927      BINDING AFFINITY PREDICTED BY RF-SCORE:    0.00 PKD
ROOT
HETATM    1 CA   UNL     1     -10.963  17.014  69.945  1.00  0.00    -0.287 Ca 
HETATM    2  C   UNL     2      -9.618  14.790  66.751  1.00  0.00    -0.254 C  
HETATM    3  H   UNL     2      -7.906  15.197  65.819  1.00  0.00     0.000 HD 
HETATM    4  C   UNL     2     -10.089  14.725  68.210  1.00  0.00    -0.221 C  
HETATM    5  O   UNL     2      -8.198  15.157  66.722  1.00  0.00    -0.221 OA 
HETATM    6  O   UNL     2     -10.882  13.831  68.561  1.00  0.00    -0.248 OA 
HETATM    7  O   UNL     2      -9.694  15.676  68.987  1.00  0.00    -0.210 OA 
ENDROOT
BRANCH   2   8
HETATM    8  C   UNL     2     -10.338  15.865  65.923  1.00  0.00    -0.365 C  
HETATM    9  H   UNL     2      -9.771  17.509  65.021  1.00  0.00     0.000 HD 
HETATM   10  O   UNL     2      -9.326  16.844  65.532  1.00  0.00    -0.472 OA 
BRANCH   8  11
HETATM   11  C   UNL     2     -11.087  15.476  64.613  1.00  0.00    -0.359 C  
HETATM   12  H   UNL     2     -12.036  16.468  63.231  1.00  0.00     0.000 HD 
HETATM   13  O   UNL     2     -11.580  16.705  64.030  1.00  0.00    -1.197 OA 
BRANCH  11  14
HETATM   14  C   UNL     2     -12.239  14.464  64.681  1.00  0.00    -0.464 C  
HETATM   15  C   UNL     2     -11.971  13.062  64.143  1.00  0.00    -0.427 C  
HETATM   16  O   UNL     2     -12.821  14.398  66.005  1.00  0.00    -0.433 OA 
HETATM   17  H   UNL     2     -13.534  13.772  66.047  1.00  0.00     0.000 HD 
HETATM   18  O   UNL     2     -10.868  12.736  63.616  1.00  0.00    -0.412 OA 
HETATM   19  O   UNL     2     -12.963  12.327  63.793  1.00  0.00    -0.766 OA 
ENDBRANCH  11  14
ENDBRANCH   8  11
ENDBRANCH   2   8
TORSDOF 3
ENDMDL
MODEL       15
REMARK 921   NORMALIZED FREE ENERGY PREDICTED BY IDOCK:   -5.33 KCAL/MOL
REMARK 922        TOTAL FREE ENERGY PREDICTED BY IDOCK:   -6.73 KCAL/MOL
REMARK 923 INTER-LIGAND FREE ENERGY PREDICTED BY IDOCK:   -6.59 KCAL/MOL
REMARK 924 INTRA-LIGAND FREE ENERGY PREDICTED BY IDOCK:   -0.14 KCAL/MOL
REMARK 927      BINDING AFFINITY PREDICTED BY RF-SCORE:    0.00 PKD
ROOT
HETATM    1 CA   UNL     1      -8.758  12.200  63.099  1.00  0.00    -0.475 Ca 
HETATM    2  C   UNL     2     -11.834  14.353  64.790  1.00  0.00    -0.433 C  
HETATM    3  H   UNL     2     -12.952  15.617  63.732  1.00  0.00     0.000 HD 
HETATM    4  C   UNL     2     -11.263  12.945  64.576  1.00  0.00    -0.336 C  
HETATM    5  O   UNL     2     -12.599  14.745  63.600  1.00  0.00    -0.749 OA 
HETATM    6  O   UNL     2     -11.239  12.141  65.527  1.00  0.00    -0.313 OA 
HETATM    7  O   UNL     2     -10.749  12.699  63.419  1.00  0.00    -0.384 OA 
ENDROOT
BRANCH   2   8
HETATM    8  C   UNL     2     -10.754  15.432  64.959  1.00  0.00    -0.438 C  
HETATM    9  H   UNL     2     -10.576  17.296  64.383  1.00  0.00     0.000 HD 
HETATM   10  O   UNL     2     -11.244  16.630  64.278  1.00  0.00    -1.098 OA 
BRANCH   8  11
HETATM   11  C   UNL     2     -10.322  15.894  66.383  1.00  0.00    -0.306 C  
HETATM   12  H   UNL     2     -10.902  15.473  68.194  1.00  0.00     0.000 HD 
HETATM   13  O   UNL     2     -11.165  15.192  67.325  1.00  0.00    -0.329 OA 
BRANCH  11  14
HETATM   14  C   UNL     2     -10.342  17.391  66.722  1.00  0.00    -0.305 C  
HETATM   15  C   UNL     2     -10.112  17.781  68.180  1.00  0.00    -0.362 C  
HETATM   16  O   UNL     2      -9.474  18.154  65.850  1.00  0.00    -0.518 OA 
HETATM   17  H   UNL     2      -9.487  19.080  66.060  1.00  0.00     0.000 HD 
HETATM   18  O   UNL     2      -9.955  16.923  69.096  1.00  0.00    -0.269 OA 
HETATM   19  O   UNL     2     -10.518  18.926  68.591  1.00  0.00    -0.277 OA 
ENDBRANCH  11  14
ENDBRANCH   8  11
ENDBRANCH   2   8
TORSDOF 3
ENDMDL
MODEL       16
REMARK 921   NORMALIZED FREE ENERGY PREDICTED BY IDOCK:   -5.33 KCAL/MOL
REMARK 922        TOTAL FREE ENERGY PREDICTED BY IDOCK:   -6.73 KCAL/MOL
REMARK 923 INTER-LIGAND FREE ENERGY PREDICTED BY IDOCK:   -6.51 KCAL/MOL
REMARK 924 INTRA-LIGAND FREE ENERGY PREDICTED BY IDOCK:   -0.22 KCAL/MOL
REMARK 927      BINDING AFFINITY PREDICTED BY RF-SCORE:    0.00 PKD
ROOT
HETATM    1 CA   UNL     1     -14.295  14.551  65.538  1.00  0.00    -0.652 Ca 
HETATM    2  C   UNL     2     -10.244  14.800  64.836  1.00  0.00    -0.275 C  
HETATM    3  H   UNL     2      -9.105  13.183  64.608  1.00  0.00     0.000 HD 
HETATM    4  C   UNL     2     -11.628  15.248  64.348  1.00  0.00    -0.263 C  
HETATM    5  O   UNL     2      -9.961  13.461  64.306  1.00  0.00    -0.282 OA 
HETATM    6  O   UNL     2     -11.807  16.436  64.016  1.00  0.00    -1.003 OA 
HETATM    7  O   UNL     2     -12.570  14.369  64.393  1.00  0.00    -0.668 OA 
ENDROOT
BRANCH   2   8
HETATM    8  C   UNL     2     -10.148  14.667  66.363  1.00  0.00    -0.278 C  
HETATM    9  H   UNL     2      -9.350  15.752  67.787  1.00  0.00     0.000 HD 
HETATM   10  O   UNL     2      -9.410  15.834  66.842  1.00  0.00    -0.212 OA 
BRANCH   8  11
HETATM   11  C   UNL     2     -11.442  14.593  67.228  1.00  0.00    -0.372 C  
HETATM   12  H   UNL     2     -12.397  15.844  68.375  1.00  0.00     0.000 HD 
HETATM   13  O   UNL     2     -11.608  15.889  67.848  1.00  0.00    -0.256 OA 
BRANCH  11  14
HETATM   14  C   UNL     2     -11.561  13.509  68.308  1.00  0.00    -0.346 C  
HETATM   15  C   UNL     2     -11.765  12.072  67.837  1.00  0.00    -0.323 C  
HETATM   16  O   UNL     2     -10.478  13.581  69.265  1.00  0.00    -0.434 OA 
HETATM   17  H   UNL     2     -10.551  12.910  69.934  1.00  0.00     0.000 HD 
HETATM   18  O   UNL     2     -11.881  11.768  66.614  1.00  0.00    -0.569 OA 
HETATM   19  O   UNL     2     -12.274  11.216  68.646  1.00  0.00    -0.582 OA 
ENDBRANCH  11  14
ENDBRANCH   8  11
ENDBRANCH   2   8
TORSDOF 3
ENDMDL
MODEL       17
REMARK 921   NORMALIZED FREE ENERGY PREDICTED BY IDOCK:   -5.29 KCAL/MOL
REMARK 922        TOTAL FREE ENERGY PREDICTED BY IDOCK:   -6.69 KCAL/MOL
REMARK 923 INTER-LIGAND FREE ENERGY PREDICTED BY IDOCK:   -6.07 KCAL/MOL
REMARK 924 INTRA-LIGAND FREE ENERGY PREDICTED BY IDOCK:   -0.62 KCAL/MOL
REMARK 927      BINDING AFFINITY PREDICTED BY RF-SCORE:    0.00 PKD
ROOT
HETATM    1 CA   UNL     1      -7.029  16.978  68.323  1.00  0.00    -0.145 Ca 
HETATM    2  C   UNL     2     -10.906  16.406  67.056  1.00  0.00    -0.145 C  
HETATM    3  H   UNL     2     -12.020  14.887  67.701  1.00  0.00     0.000 HD 
HETATM    4  C   UNL     2      -9.934  17.407  67.695  1.00  0.00    -0.300 C  
HETATM    5  O   UNL     2     -11.419  15.507  68.097  1.00  0.00    -0.336 OA 
HETATM    6  O   UNL     2      -9.933  18.592  67.313  1.00  0.00    -0.305 OA 
HETATM    7  O   UNL     2      -9.094  16.931  68.551  1.00  0.00    -0.241 OA 
ENDROOT
BRANCH   2   8
HETATM    8  C   UNL     2     -10.246  15.494  66.011  1.00  0.00    -0.330 C  
HETATM    9  H   UNL     2      -9.662  13.624  65.998  1.00  0.00     0.000 HD 
HETATM   10  O   UNL     2     -10.070  14.188  66.644  1.00  0.00    -0.262 OA 
BRANCH   8  11
HETATM   11  C   UNL     2     -10.953  15.220  64.650  1.00  0.00    -0.304 C  
HETATM   12  H   UNL     2     -11.816  16.335  63.307  1.00  0.00     0.000 HD 
HETATM   13  O   UNL     2     -11.386  16.501  64.137  1.00  0.00    -1.060 OA 
BRANCH  11  14
HETATM   14  C   UNL     2     -12.137  14.244  64.604  1.00  0.00    -0.463 C  
HETATM   15  C   UNL     2     -11.903  12.892  63.936  1.00  0.00    -0.473 C  
HETATM   16  O   UNL     2     -12.743  14.069  65.907  1.00  0.00    -0.495 OA 
HETATM   17  H   UNL     2     -13.476  13.465  65.878  1.00  0.00     0.000 HD 
HETATM   18  O   UNL     2     -10.802  12.583  63.395  1.00  0.00    -0.439 OA 
HETATM   19  O   UNL     2     -12.911  12.227  63.502  1.00  0.00    -0.776 OA 
ENDBRANCH  11  14
ENDBRANCH   8  11
ENDBRANCH   2   8
TORSDOF 3
ENDMDL
MODEL       18
REMARK 921   NORMALIZED FREE ENERGY PREDICTED BY IDOCK:   -5.28 KCAL/MOL
REMARK 922        TOTAL FREE ENERGY PREDICTED BY IDOCK:   -6.67 KCAL/MOL
REMARK 923 INTER-LIGAND FREE ENERGY PREDICTED BY IDOCK:   -6.70 KCAL/MOL
REMARK 924 INTRA-LIGAND FREE ENERGY PREDICTED BY IDOCK:    0.03 KCAL/MOL
REMARK 927      BINDING AFFINITY PREDICTED BY RF-SCORE:    0.00 PKD
ROOT
HETATM    1 CA   UNL     1     -10.986  11.751  62.604  1.00  0.00    -0.557 Ca 
HETATM    2  C   UNL     2     -12.035  15.040  64.850  1.00  0.00    -0.255 C  
HETATM    3  H   UNL     2     -11.890  16.897  64.146  1.00  0.00     0.000 HD 
HETATM    4  C   UNL     2     -12.523  13.692  64.305  1.00  0.00    -0.248 C  
HETATM    5  O   UNL     2     -12.192  16.062  63.809  1.00  0.00    -0.895 OA 
HETATM    6  O   UNL     2     -13.157  12.920  65.050  1.00  0.00    -0.794 OA 
HETATM    7  O   UNL     2     -12.163  13.390  63.103  1.00  0.00    -0.607 OA 
ENDROOT
BRANCH   2   8
HETATM    8  C   UNL     2     -10.543  15.049  65.216  1.00  0.00    -0.397 C  
HETATM    9  H   UNL     2      -9.164  16.437  65.313  1.00  0.00     0.000 HD 
HETATM   10  O   UNL     2     -10.086  16.432  65.087  1.00  0.00    -0.529 OA 
BRANCH   8  11
HETATM   11  C   UNL     2     -10.078  14.572  66.624  1.00  0.00    -0.272 C  
HETATM   12  H   UNL     2      -9.394  12.897  67.346  1.00  0.00     0.000 HD 
HETATM   13  O   UNL     2      -9.678  13.188  66.488  1.00  0.00    -0.257 OA 
BRANCH  11  14
HETATM   14  C   UNL     2     -11.042  14.694  67.813  1.00  0.00    -0.298 C  
HETATM   15  C   UNL     2     -11.201  16.073  68.445  1.00  0.00    -0.364 C  
HETATM   16  O   UNL     2     -12.336  14.116  67.519  1.00  0.00    -0.571 OA 
HETATM   17  H   UNL     2     -12.932  14.192  68.254  1.00  0.00     0.000 HD 
HETATM   18  O   UNL     2     -10.544  17.080  68.053  1.00  0.00    -0.346 OA 
HETATM   19  O   UNL     2     -11.639  16.162  69.647  1.00  0.00    -0.312 OA 
ENDBRANCH  11  14
ENDBRANCH   8  11
ENDBRANCH   2   8
TORSDOF 3
ENDMDL
MODEL       19
REMARK 921   NORMALIZED FREE ENERGY PREDICTED BY IDOCK:   -5.25 KCAL/MOL
REMARK 922        TOTAL FREE ENERGY PREDICTED BY IDOCK:   -6.64 KCAL/MOL
REMARK 923 INTER-LIGAND FREE ENERGY PREDICTED BY IDOCK:   -6.40 KCAL/MOL
REMARK 924 INTRA-LIGAND FREE ENERGY PREDICTED BY IDOCK:   -0.25 KCAL/MOL
REMARK 927      BINDING AFFINITY PREDICTED BY RF-SCORE:    0.00 PKD
ROOT
HETATM    1 CA   UNL     1     -13.079  14.179  62.906  1.00  0.00    -0.842 Ca 
HETATM    2  C   UNL     2     -11.477  14.039  66.698  1.00  0.00    -0.364 C  
HETATM    3  H   UNL     2     -11.857  15.437  68.063  1.00  0.00     0.000 HD 
HETATM    4  C   UNL     2     -12.297  13.265  65.658  1.00  0.00    -0.465 C  
HETATM    5  O   UNL     2     -12.365  14.958  67.419  1.00  0.00    -0.017 OA 
HETATM    6  O   UNL     2     -12.057  12.059  65.459  1.00  0.00    -0.479 OA 
HETATM    7  O   UNL     2     -13.150  13.947  64.970  1.00  0.00    -0.749 OA 
ENDROOT
BRANCH   2   8
HETATM    8  C   UNL     2     -10.383  14.923  66.080  1.00  0.00    -0.301 C  
HETATM    9  H   UNL     2      -9.490  14.982  64.338  1.00  0.00     0.000 HD 
HETATM   10  O   UNL     2     -10.166  14.436  64.719  1.00  0.00    -0.404 OA 
BRANCH   8  11
HETATM   11  C   UNL     2     -10.595  16.462  65.957  1.00  0.00    -0.269 C  
HETATM   12  H   UNL     2     -10.958  17.680  64.481  1.00  0.00     0.000 HD 
HETATM   13  O   UNL     2     -10.829  16.742  64.557  1.00  0.00    -0.886 OA 
BRANCH  11  14
HETATM   14  C   UNL     2      -9.507  17.412  66.476  1.00  0.00    -0.273 C  
HETATM   15  C   UNL     2      -9.309  17.487  67.988  1.00  0.00    -0.272 C  
HETATM   16  O   UNL     2      -8.242  17.200  65.807  1.00  0.00    -0.515 OA 
HETATM   17  H   UNL     2      -7.568  17.788  66.129  1.00  0.00     0.000 HD 
HETATM   18  O   UNL     2     -10.029  16.838  68.800  1.00  0.00    -0.242 OA 
HETATM   19  O   UNL     2      -8.741  18.521  68.492  1.00  0.00    -0.321 OA 
ENDBRANCH  11  14
ENDBRANCH   8  11
ENDBRANCH   2   8
TORSDOF 3
ENDMDL
MODEL       20
REMARK 921   NORMALIZED FREE ENERGY PREDICTED BY IDOCK:   -5.20 KCAL/MOL
REMARK 922        TOTAL FREE ENERGY PREDICTED BY IDOCK:   -6.58 KCAL/MOL
REMARK 923 INTER-LIGAND FREE ENERGY PREDICTED BY IDOCK:   -6.14 KCAL/MOL
REMARK 924 INTRA-LIGAND FREE ENERGY PREDICTED BY IDOCK:   -0.44 KCAL/MOL
REMARK 927      BINDING AFFINITY PREDICTED BY RF-SCORE:    0.00 PKD
ROOT
HETATM    1 CA   UNL     1     -10.993  17.430  68.435  1.00  0.00    -0.307 Ca 
HETATM    2  C   UNL     2     -10.954  15.723  64.687  1.00  0.00    -0.314 C  
HETATM    3  H   UNL     2     -12.513  15.835  63.454  1.00  0.00     0.000 HD 
HETATM    4  C   UNL     2     -10.224  16.690  65.629  1.00  0.00    -0.262 C  
HETATM    5  O   UNL     2     -12.061  16.433  64.036  1.00  0.00    -0.932 OA 
HETATM    6  O   UNL     2      -8.983  16.642  65.716  1.00  0.00    -0.498 OA 
HETATM    7  O   UNL     2     -10.963  17.456  66.357  1.00  0.00    -0.018 OA 
ENDROOT
BRANCH   2   8
HETATM    8  C   UNL     2     -11.600  14.533  65.414  1.00  0.00    -0.355 C  
HETATM    9  H   UNL     2     -13.361  13.676  65.345  1.00  0.00     0.000 HD 
HETATM   10  O   UNL     2     -12.962  14.411  64.896  1.00  0.00    -0.641 OA 
BRANCH   8  11
HETATM   11  C   UNL     2     -10.971  13.111  65.304  1.00  0.00    -0.285 C  
HETATM   12  H   UNL     2      -9.347  12.276  65.982  1.00  0.00     0.000 HD 
HETATM   13  O   UNL     2      -9.731  13.143  66.048  1.00  0.00    -0.279 OA 
BRANCH  11  14
HETATM   14  C   UNL     2     -10.699  12.518  63.915  1.00  0.00    -0.437 C  
HETATM   15  C   UNL     2     -10.346  11.035  63.845  1.00  0.00    -0.372 C  
HETATM   16  O   UNL     2     -11.756  12.834  62.978  1.00  0.00    -0.799 OA 
HETATM   17  H   UNL     2     -11.588  12.466  62.118  1.00  0.00     0.000 HD 
HETATM   18  O   UNL     2     -10.231  10.314  64.878  1.00  0.00    -0.327 OA 
HETATM   19  O   UNL     2      -9.721  10.590  62.817  1.00  0.00    -0.313 OA 
ENDBRANCH  11  14
ENDBRANCH   8  11
ENDBRANCH   2   8
TORSDOF 3
ENDMDL
MODEL       21
REMARK 921   NORMALIZED FREE ENERGY PREDICTED BY IDOCK:   -5.15 KCAL/MOL
REMARK 922        TOTAL FREE ENERGY PREDICTED BY IDOCK:   -6.52 KCAL/MOL
REMARK 923 INTER-LIGAND FREE ENERGY PREDICTED BY IDOCK:   -5.91 KCAL/MOL
REMARK 924 INTRA-LIGAND FREE ENERGY PREDICTED BY IDOCK:   -0.61 KCAL/MOL
REMARK 927      BINDING AFFINITY PREDICTED BY RF-SCORE:    0.00 PKD
ROOT
HETATM    1 CA   UNL     1     -11.479  20.136  64.874  1.00  0.00    -0.472 Ca 
HETATM    2  C   UNL     2     -10.119  16.695  66.683  1.00  0.00    -0.301 C  
HETATM    3  H   UNL     2      -8.797  15.489  65.810  1.00  0.00     0.000 HD 
HETATM    4  C   UNL     2     -10.285  18.212  66.845  1.00  0.00    -0.372 C  
HETATM    5  O   UNL     2      -8.899  16.428  65.911  1.00  0.00    -0.432 OA 
HETATM    6  O   UNL     2     -10.703  18.672  67.925  1.00  0.00    -0.383 OA 
HETATM    7  O   UNL     2     -10.060  18.933  65.800  1.00  0.00    -0.508 OA 
ENDROOT
BRANCH   2   8
HETATM    8  C   UNL     2     -11.259  16.036  65.891  1.00  0.00     0.116 C  
HETATM    9  H   UNL     2     -11.621  15.752  63.987  1.00  0.00     0.000 HD 
HETATM   10  O   UNL     2     -10.916  16.160  64.476  1.00  0.00    -0.645 OA 
BRANCH   8  11
HETATM   11  C   UNL     2     -11.607  14.535  66.119  1.00  0.00    -0.365 C  
HETATM   12  H   UNL     2     -11.591  13.344  67.660  1.00  0.00     0.000 HD 
HETATM   13  O   UNL     2     -11.379  14.259  67.521  1.00  0.00    -0.297 OA 
BRANCH  11  14
HETATM   14  C   UNL     2     -10.892  13.465  65.282  1.00  0.00    -0.309 C  
HETATM   15  C   UNL     2     -11.592  12.988  64.013  1.00  0.00    -0.430 C  
HETATM   16  O   UNL     2      -9.520  13.828  65.001  1.00  0.00    -0.412 OA 
HETATM   17  H   UNL     2      -9.078  13.166  64.483  1.00  0.00     0.000 HD 
HETATM   18  O   UNL     2     -12.734  13.408  63.667  1.00  0.00    -0.698 OA 
HETATM   19  O   UNL     2     -11.274  11.849  63.515  1.00  0.00    -0.401 OA 
ENDBRANCH  11  14
ENDBRANCH   8  11
ENDBRANCH   2   8
TORSDOF 3
ENDMDL
MODEL       22
REMARK 921   NORMALIZED FREE ENERGY PREDICTED BY IDOCK:   -5.12 KCAL/MOL
REMARK 922        TOTAL FREE ENERGY PREDICTED BY IDOCK:   -6.49 KCAL/MOL
REMARK 923 INTER-LIGAND FREE ENERGY PREDICTED BY IDOCK:   -5.90 KCAL/MOL
REMARK 924 INTRA-LIGAND FREE ENERGY PREDICTED BY IDOCK:   -0.58 KCAL/MOL
REMARK 927      BINDING AFFINITY PREDICTED BY RF-SCORE:    0.00 PKD
ROOT
HETATM    1 CA   UNL     1      -7.296  16.892  65.340  1.00  0.00    -0.180 Ca 
HETATM    2  C   UNL     2     -10.816  15.580  67.028  1.00  0.00    -0.314 C  
HETATM    3  H   UNL     2     -11.128  15.616  68.995  1.00  0.00     0.000 HD 
HETATM    4  C   UNL     2     -10.205  16.534  65.994  1.00  0.00    -0.356 C  
HETATM    5  O   UNL     2     -10.750  16.207  68.354  1.00  0.00    -0.269 OA 
HETATM    6  O   UNL     2     -10.726  16.633  64.867  1.00  0.00    -0.710 OA 
HETATM    7  O   UNL     2      -9.109  17.125  66.329  1.00  0.00    -0.317 OA 
ENDROOT
BRANCH   2   8
HETATM    8  C   UNL     2     -10.054  14.253  67.163  1.00  0.00    -0.254 C  
HETATM    9  H   UNL     2      -9.479  13.148  68.675  1.00  0.00     0.000 HD 
HETATM   10  O   UNL     2      -9.950  13.969  68.593  1.00  0.00    -0.227 OA 
BRANCH   8  11
HETATM   11  C   UNL     2     -10.615  12.956  66.506  1.00  0.00    -0.259 C  
HETATM   12  H   UNL     2     -10.059  11.090  66.465  1.00  0.00     0.000 HD 
HETATM   13  O   UNL     2      -9.717  11.881  66.865  1.00  0.00    -0.195 OA 
BRANCH  11  14
HETATM   14  C   UNL     2     -10.845  12.923  64.989  1.00  0.00    -0.299 C  
HETATM   15  C   UNL     2     -12.222  13.342  64.481  1.00  0.00    -0.400 C  
HETATM   16  O   UNL     2      -9.803  13.625  64.271  1.00  0.00    -0.716 OA 
HETATM   17  H   UNL     2      -9.946  13.605  63.331  1.00  0.00     0.000 HD 
HETATM   18  O   UNL     2     -13.165  13.663  65.261  1.00  0.00    -0.724 OA 
HETATM   19  O   UNL     2     -12.604  12.952  63.320  1.00  0.00    -0.685 OA 
ENDBRANCH  11  14
ENDBRANCH   8  11
ENDBRANCH   2   8
TORSDOF 3
ENDMDL
MODEL       23
REMARK 921   NORMALIZED FREE ENERGY PREDICTED BY IDOCK:   -5.08 KCAL/MOL
REMARK 922        TOTAL FREE ENERGY PREDICTED BY IDOCK:   -6.44 KCAL/MOL
REMARK 923 INTER-LIGAND FREE ENERGY PREDICTED BY IDOCK:   -6.11 KCAL/MOL
REMARK 924 INTRA-LIGAND FREE ENERGY PREDICTED BY IDOCK:   -0.33 KCAL/MOL
REMARK 927      BINDING AFFINITY PREDICTED BY RF-SCORE:    0.00 PKD
ROOT
HETATM    1 CA   UNL     1     -10.690  19.017  69.663  1.00  0.00    -0.523 Ca 
HETATM    2  C   UNL     2      -9.009  16.478  66.890  1.00  0.00    -0.219 C  
HETATM    3  H   UNL     2      -8.782  16.992  64.980  1.00  0.00     0.000 HD 
HETATM    4  C   UNL     2      -8.800  17.163  68.246  1.00  0.00    -0.245 C  
HETATM    5  O   UNL     2      -8.652  17.416  65.820  1.00  0.00    -0.526 OA 
HETATM    6  O   UNL     2      -8.332  16.510  69.199  1.00  0.00    -0.235 OA 
HETATM    7  O   UNL     2      -9.211  18.381  68.349  1.00  0.00    -0.305 OA 
ENDROOT
BRANCH   2   8
HETATM    8  C   UNL     2     -10.470  16.085  66.622  1.00  0.00    -0.304 C  
HETATM    9  H   UNL     2     -11.679  16.262  65.091  1.00  0.00     0.000 HD 
HETATM   10  O   UNL     2     -10.776  16.505  65.256  1.00  0.00    -0.531 OA 
BRANCH   8  11
HETATM   11  C   UNL     2     -10.912  14.594  66.722  1.00  0.00    -0.323 C  
HETATM   12  H   UNL     2     -10.275  13.039  67.706  1.00  0.00     0.000 HD 
HETATM   13  O   UNL     2     -10.005  13.948  67.644  1.00  0.00    -0.230 OA 
BRANCH  11  14
HETATM   14  C   UNL     2     -10.998  13.751  65.441  1.00  0.00    -0.309 C  
HETATM   15  C   UNL     2     -12.378  13.568  64.816  1.00  0.00    -0.392 C  
HETATM   16  O   UNL     2     -10.043  14.185  64.445  1.00  0.00    -0.682 OA 
HETATM   17  H   UNL     2     -10.096  13.663  63.652  1.00  0.00     0.000 HD 
HETATM   18  O   UNL     2     -13.429  14.043  65.338  1.00  0.00    -0.679 OA 
HETATM   19  O   UNL     2     -12.581  12.576  64.028  1.00  0.00    -0.607 OA 
ENDBRANCH  11  14
ENDBRANCH   8  11
ENDBRANCH   2   8
TORSDOF 3
ENDMDL
MODEL       24
REMARK 921   NORMALIZED FREE ENERGY PREDICTED BY IDOCK:   -5.07 KCAL/MOL
REMARK 922        TOTAL FREE ENERGY PREDICTED BY IDOCK:   -6.44 KCAL/MOL
REMARK 923 INTER-LIGAND FREE ENERGY PREDICTED BY IDOCK:   -6.20 KCAL/MOL
REMARK 924 INTRA-LIGAND FREE ENERGY PREDICTED BY IDOCK:   -0.24 KCAL/MOL
REMARK 927      BINDING AFFINITY PREDICTED BY RF-SCORE:    0.00 PKD
ROOT
HETATM    1 CA   UNL     1     -12.812  11.053  62.333  1.00  0.00    -1.003 Ca 
HETATM    2  C   UNL     2     -10.152  12.691  65.017  1.00  0.00    -0.231 C  
HETATM    3  H   UNL     2     -10.325  12.420  66.982  1.00  0.00     0.000 HD 
HETATM    4  C   UNL     2     -10.285  11.809  63.769  1.00  0.00    -0.399 C  
HETATM    5  O   UNL     2     -10.407  11.874  66.209  1.00  0.00    -0.215 OA 
HETATM    6  O   UNL     2      -9.497  11.967  62.817  1.00  0.00    -0.315 OA 
HETATM    7  O   UNL     2     -11.285  10.994  63.741  1.00  0.00    -0.147 OA 
ENDROOT
BRANCH   2   8
HETATM    8  C   UNL     2     -11.179  13.832  65.072  1.00  0.00    -0.335 C  
HETATM    9  H   UNL     2     -13.040  13.974  65.668  1.00  0.00     0.000 HD 
HETATM   10  O   UNL     2     -12.405  13.269  65.634  1.00  0.00    -0.436 OA 
BRANCH   8  11
HETATM   11  C   UNL     2     -10.879  15.119  65.898  1.00  0.00    -0.339 C  
HETATM   12  H   UNL     2     -11.413  15.776  67.652  1.00  0.00     0.000 HD 
HETATM   13  O   UNL     2     -11.596  14.992  67.148  1.00  0.00    -0.342 OA 
BRANCH  11  14
HETATM   14  C   UNL     2     -11.191  16.491  65.286  1.00  0.00     0.049 C  
HETATM   15  C   UNL     2     -10.314  17.664  65.715  1.00  0.00    -0.188 C  
HETATM   16  O   UNL     2     -11.287  16.429  63.844  1.00  0.00    -1.510 OA 
HETATM   17  H   UNL     2     -11.480  17.279  63.465  1.00  0.00     0.000 HD 
HETATM   18  O   UNL     2      -9.391  17.544  66.572  1.00  0.00    -0.255 OA 
HETATM   19  O   UNL     2     -10.759  18.859  65.582  1.00  0.00    -0.532 OA 
ENDBRANCH  11  14
ENDBRANCH   8  11
ENDBRANCH   2   8
TORSDOF 3
ENDMDL
MODEL       25
REMARK 921   NORMALIZED FREE ENERGY PREDICTED BY IDOCK:   -5.07 KCAL/MOL
REMARK 922        TOTAL FREE ENERGY PREDICTED BY IDOCK:   -6.44 KCAL/MOL
REMARK 923 INTER-LIGAND FREE ENERGY PREDICTED BY IDOCK:   -5.80 KCAL/MOL
REMARK 924 INTRA-LIGAND FREE ENERGY PREDICTED BY IDOCK:   -0.64 KCAL/MOL
REMARK 927      BINDING AFFINITY PREDICTED BY RF-SCORE:    0.00 PKD
ROOT
HETATM    1 CA   UNL     1     -13.141  14.270  62.629  1.00  0.00    -0.770 Ca 
HETATM    2  C   UNL     2     -11.048  12.548  65.730  1.00  0.00    -0.308 C  
HETATM    3  H   UNL     2     -11.920  12.041  67.446  1.00  0.00     0.000 HD 
HETATM    4  C   UNL     2     -11.399  12.431  64.241  1.00  0.00    -0.360 C  
HETATM    5  O   UNL     2     -12.137  11.968  66.524  1.00  0.00    -0.617 OA 
HETATM    6  O   UNL     2     -10.505  12.152  63.419  1.00  0.00    -0.441 OA 
HETATM    7  O   UNL     2     -12.611  12.720  63.908  1.00  0.00    -0.638 OA 
ENDROOT
BRANCH   2   8
HETATM    8  C   UNL     2     -10.912  14.000  66.214  1.00  0.00    -0.300 C  
HETATM    9  H   UNL     2     -12.168  15.342  66.892  1.00  0.00     0.000 HD 
HETATM   10  O   UNL     2     -12.252  14.444  66.593  1.00  0.00    -0.424 OA 
BRANCH   8  11
HETATM   11  C   UNL     2      -9.989  14.341  67.422  1.00  0.00    -0.242 C  
HETATM   12  H   UNL     2      -8.358  13.572  68.160  1.00  0.00     0.000 HD 
HETATM   13  O   UNL     2      -8.922  13.364  67.424  1.00  0.00    -0.194 OA 
BRANCH  11  14
HETATM   14  C   UNL     2     -10.595  14.413  68.830  1.00  0.00    -0.247 C  
HETATM   15  C   UNL     2     -11.057  15.782  69.323  1.00  0.00    -0.297 C  
HETATM   16  O   UNL     2     -11.635  13.426  69.021  1.00  0.00    -0.268 OA 
HETATM   17  H   UNL     2     -12.010  13.471  69.893  1.00  0.00     0.000 HD 
HETATM   18  O   UNL     2     -10.916  16.834  68.635  1.00  0.00    -0.338 OA 
HETATM   19  O   UNL     2     -11.174  15.985  70.584  1.00  0.00    -0.354 OA 
ENDBRANCH  11  14
ENDBRANCH   8  11
ENDBRANCH   2   8
TORSDOF 3
ENDMDL
MODEL       26
REMARK 921   NORMALIZED FREE ENERGY PREDICTED BY IDOCK:   -5.06 KCAL/MOL
REMARK 922        TOTAL FREE ENERGY PREDICTED BY IDOCK:   -6.43 KCAL/MOL
REMARK 923 INTER-LIGAND FREE ENERGY PREDICTED BY IDOCK:   -6.02 KCAL/MOL
REMARK 924 INTRA-LIGAND FREE ENERGY PREDICTED BY IDOCK:   -0.41 KCAL/MOL
REMARK 927      BINDING AFFINITY PREDICTED BY RF-SCORE:    0.00 PKD
ROOT
HETATM    1 CA   UNL     1      -9.138  11.471  62.375  1.00  0.00    -0.268 Ca 
HETATM    2  C   UNL     2     -11.396  13.089  65.416  1.00  0.00    -0.297 C  
HETATM    3  H   UNL     2     -13.382  13.196  65.322  1.00  0.00     0.000 HD 
HETATM    4  C   UNL     2     -10.334  12.038  65.071  1.00  0.00    -0.281 C  
HETATM    5  O   UNL     2     -12.724  12.545  65.109  1.00  0.00    -0.659 OA 
HETATM    6  O   UNL     2      -9.345  11.896  65.815  1.00  0.00    -0.226 OA 
HETATM    7  O   UNL     2     -10.485  11.406  63.956  1.00  0.00    -0.315 OA 
ENDROOT
BRANCH   2   8
HETATM    8  C   UNL     2     -11.276  14.376  64.586  1.00  0.00    -0.360 C  
HETATM    9  H   UNL     2     -12.426  15.279  63.282  1.00  0.00     0.000 HD 
HETATM   10  O   UNL     2     -12.501  14.484  63.796  1.00  0.00    -0.809 OA 
BRANCH   8  11
HETATM   11  C   UNL     2     -11.099  15.753  65.294  1.00  0.00    -0.273 C  
HETATM   12  H   UNL     2     -11.099  17.608  64.701  1.00  0.00     0.000 HD 
HETATM   13  O   UNL     2     -11.207  16.768  64.269  1.00  0.00    -1.163 OA 
BRANCH  11  14
HETATM   14  C   UNL     2      -9.830  16.013  66.117  1.00  0.00    -0.325 C  
HETATM   15  C   UNL     2      -9.972  16.027  67.636  1.00  0.00    -0.239 C  
HETATM   16  O   UNL     2      -8.740  15.150  65.716  1.00  0.00    -0.279 OA 
HETATM   17  H   UNL     2      -7.954  15.311  66.226  1.00  0.00     0.000 HD 
HETATM   18  O   UNL     2     -11.087  15.876  68.215  1.00  0.00    -0.314 OA 
HETATM   19  O   UNL     2      -9.086  16.630  68.341  1.00  0.00    -0.211 OA 
ENDBRANCH  11  14
ENDBRANCH   8  11
ENDBRANCH   2   8
TORSDOF 3
ENDMDL
MODEL       27
REMARK 921   NORMALIZED FREE ENERGY PREDICTED BY IDOCK:   -5.04 KCAL/MOL
REMARK 922        TOTAL FREE ENERGY PREDICTED BY IDOCK:   -6.40 KCAL/MOL
REMARK 923 INTER-LIGAND FREE ENERGY PREDICTED BY IDOCK:   -6.04 KCAL/MOL
REMARK 924 INTRA-LIGAND FREE ENERGY PREDICTED BY IDOCK:   -0.36 KCAL/MOL
REMARK 927      BINDING AFFINITY PREDICTED BY RF-SCORE:    0.00 PKD
ROOT
HETATM    1 CA   UNL     1      -9.640  11.225  64.097  1.00  0.00    -0.197 Ca 
HETATM    2  C   UNL     2     -12.713  13.945  64.457  1.00  0.00    -0.071 C  
HETATM    3  H   UNL     2     -12.386  15.904  64.587  1.00  0.00     0.000 HD 
HETATM    4  C   UNL     2     -12.157  12.790  63.613  1.00  0.00    -0.543 C  
HETATM    5  O   UNL     2     -12.042  15.189  64.064  1.00  0.00    -0.546 OA 
HETATM    6  O   UNL     2     -12.928  11.900  63.206  1.00  0.00    -0.707 OA 
HETATM    7  O   UNL     2     -10.879  12.761  63.443  1.00  0.00    -0.351 OA 
ENDROOT
BRANCH   2   8
HETATM    8  C   UNL     2     -12.443  13.788  65.961  1.00  0.00    -0.445 C  
HETATM    9  H   UNL     2     -12.057  12.267  67.134  1.00  0.00     0.000 HD 
HETATM   10  O   UNL     2     -12.225  12.363  66.204  1.00  0.00    -0.635 OA 
BRANCH   8  11
HETATM   11  C   UNL     2     -11.240  14.526  66.623  1.00  0.00    -0.346 C  
HETATM   12  H   UNL     2      -9.328  14.183  66.756  1.00  0.00     0.000 HD 
HETATM   13  O   UNL     2     -10.061  13.733  66.352  1.00  0.00    -0.279 OA 
BRANCH  11  14
HETATM   14  C   UNL     2     -11.290  14.841  68.125  1.00  0.00    -0.307 C  
HETATM   15  C   UNL     2     -11.085  16.295  68.541  1.00  0.00    -0.368 C  
HETATM   16  O   UNL     2     -12.475  14.295  68.751  1.00  0.00    -0.568 OA 
HETATM   17  H   UNL     2     -12.506  14.491  69.681  1.00  0.00     0.000 HD 
HETATM   18  O   UNL     2     -10.838  17.212  67.705  1.00  0.00    -0.348 OA 
HETATM   19  O   UNL     2     -10.707  16.554  69.739  1.00  0.00    -0.328 OA 
ENDBRANCH  11  14
ENDBRANCH   8  11
ENDBRANCH   2   8
TORSDOF 3
ENDMDL
MODEL       28
REMARK 921   NORMALIZED FREE ENERGY PREDICTED BY IDOCK:   -5.03 KCAL/MOL
REMARK 922        TOTAL FREE ENERGY PREDICTED BY IDOCK:   -6.38 KCAL/MOL
REMARK 923 INTER-LIGAND FREE ENERGY PREDICTED BY IDOCK:   -5.79 KCAL/MOL
REMARK 924 INTRA-LIGAND FREE ENERGY PREDICTED BY IDOCK:   -0.59 KCAL/MOL
REMARK 927      BINDING AFFINITY PREDICTED BY RF-SCORE:    0.00 PKD
ROOT
HETATM    1 CA   UNL     1      -9.247   9.917  69.824  1.00  0.00    -0.139 Ca 
HETATM    2  C   UNL     2     -11.179  11.892  66.770  1.00  0.00    -0.327 C  
HETATM    3  H   UNL     2     -10.505  11.868  64.897  1.00  0.00     0.000 HD 
HETATM    4  C   UNL     2     -11.344  10.861  67.894  1.00  0.00    -0.308 C  
HETATM    5  O   UNL     2     -10.608  11.229  65.593  1.00  0.00    -0.258 OA 
HETATM    6  O   UNL     2     -12.352  10.904  68.624  1.00  0.00    -0.501 OA 
HETATM    7  O   UNL     2     -10.363  10.043  68.077  1.00  0.00    -0.175 OA 
ENDROOT
BRANCH   2   8
HETATM    8  C   UNL     2     -10.202  13.026  67.119  1.00  0.00    -0.243 C  
HETATM    9  H   UNL     2      -8.312  13.373  66.738  1.00  0.00     0.000 HD 
HETATM   10  O   UNL     2      -8.916  12.672  66.522  1.00  0.00    -0.199 OA 
BRANCH   8  11
HETATM   11  C   UNL     2     -10.500  14.486  66.664  1.00  0.00    -0.274 C  
HETATM   12  H   UNL     2     -11.692  15.897  67.281  1.00  0.00     0.000 HD 
HETATM   13  O   UNL     2     -11.510  15.007  67.558  1.00  0.00    -0.338 OA 
BRANCH  11  14
HETATM   14  C   UNL     2     -10.940  14.744  65.216  1.00  0.00    -0.374 C  
HETATM   15  C   UNL     2     -10.953  16.192  64.736  1.00  0.00    -0.313 C  
HETATM   16  O   UNL     2     -10.227  13.903  64.278  1.00  0.00    -0.694 OA 
HETATM   17  H   UNL     2     -10.500  14.063  63.382  1.00  0.00     0.000 HD 
HETATM   18  O   UNL     2     -10.660  17.161  65.495  1.00  0.00    -0.563 OA 
HETATM   19  O   UNL     2     -11.679  16.509  63.727  1.00  0.00    -1.086 OA 
ENDBRANCH  11  14
ENDBRANCH   8  11
ENDBRANCH   2   8
TORSDOF 3
ENDMDL
MODEL       29
REMARK 921   NORMALIZED FREE ENERGY PREDICTED BY IDOCK:   -5.00 KCAL/MOL
REMARK 922        TOTAL FREE ENERGY PREDICTED BY IDOCK:   -6.34 KCAL/MOL
REMARK 923 INTER-LIGAND FREE ENERGY PREDICTED BY IDOCK:   -6.09 KCAL/MOL
REMARK 924 INTRA-LIGAND FREE ENERGY PREDICTED BY IDOCK:   -0.25 KCAL/MOL
REMARK 927      BINDING AFFINITY PREDICTED BY RF-SCORE:    0.00 PKD
ROOT
HETATM    1 CA   UNL     1     -11.637  20.180  67.328  1.00  0.00    -0.288 Ca 
HETATM    2  C   UNL     2      -9.919  16.522  66.535  1.00  0.00    -0.285 C  
HETATM    3  H   UNL     2      -8.861  16.182  64.882  1.00  0.00     0.000 HD 
HETATM    4  C   UNL     2     -10.023  17.658  67.560  1.00  0.00    -0.322 C  
HETATM    5  O   UNL     2      -8.926  16.885  65.517  1.00  0.00    -0.384 OA 
HETATM    6  O   UNL     2     -10.161  17.386  68.767  1.00  0.00    -0.312 OA 
HETATM    7  O   UNL     2     -10.050  18.860  67.091  1.00  0.00    -0.322 OA 
ENDROOT
BRANCH   2   8
HETATM    8  C   UNL     2     -11.224  16.271  65.764  1.00  0.00     0.199 C  
HETATM    9  H   UNL     2     -11.980  16.949  64.089  1.00  0.00     0.000 HD 
HETATM   10  O   UNL     2     -11.172  17.104  64.564  1.00  0.00    -1.104 OA 
BRANCH   8  11
HETATM   11  C   UNL     2     -11.583  14.836  65.276  1.00  0.00    -0.338 C  
HETATM   12  H   UNL     2     -12.751  14.111  63.896  1.00  0.00     0.000 HD 
HETATM   13  O   UNL     2     -12.532  14.986  64.195  1.00  0.00    -0.756 OA 
BRANCH  11  14
HETATM   14  C   UNL     2     -12.138  13.819  66.283  1.00  0.00    -0.446 C  
HETATM   15  C   UNL     2     -11.350  12.527  66.478  1.00  0.00    -0.334 C  
HETATM   16  O   UNL     2     -12.434  14.431  67.560  1.00  0.00    -0.599 OA 
HETATM   17  H   UNL     2     -12.778  13.802  68.184  1.00  0.00     0.000 HD 
HETATM   18  O   UNL     2     -10.304  12.262  65.816  1.00  0.00    -0.246 OA 
HETATM   19  O   UNL     2     -11.946  11.498  66.960  1.00  0.00    -0.556 OA 
ENDBRANCH  11  14
ENDBRANCH   8  11
ENDBRANCH   2   8
TORSDOF 3
ENDMDL
MODEL       30
REMARK 921   NORMALIZED FREE ENERGY PREDICTED BY IDOCK:   -4.98 KCAL/MOL
REMARK 922        TOTAL FREE ENERGY PREDICTED BY IDOCK:   -6.33 KCAL/MOL
REMARK 923 INTER-LIGAND FREE ENERGY PREDICTED BY IDOCK:   -6.25 KCAL/MOL
REMARK 924 INTRA-LIGAND FREE ENERGY PREDICTED BY IDOCK:   -0.07 KCAL/MOL
REMARK 927      BINDING AFFINITY PREDICTED BY RF-SCORE:    0.00 PKD
ROOT
HETATM    1 CA   UNL     1     -11.589  11.424  65.367  1.00  0.00    -0.288 Ca 
HETATM    2  C   UNL     2     -11.034  14.180  68.377  1.00  0.00    -0.254 C  
HETATM    3  H   UNL     2     -12.557  14.969  69.388  1.00  0.00     0.000 HD 
HETATM    4  C   UNL     2     -10.652  12.780  67.877  1.00  0.00    -0.221 C  
HETATM    5  O   UNL     2     -12.320  14.102  69.078  1.00  0.00    -0.294 OA 
HETATM    6  O   UNL     2      -9.463  12.412  67.929  1.00  0.00    -0.185 OA 
HETATM    7  O   UNL     2     -11.594  12.082  67.338  1.00  0.00    -0.371 OA 
ENDROOT
BRANCH   2   8
HETATM    8  C   UNL     2     -11.242  15.198  67.246  1.00  0.00    -0.324 C  
HETATM    9  H   UNL     2     -11.223  17.154  67.141  1.00  0.00     0.000 HD 
HETATM   10  O   UNL     2     -11.095  16.525  67.841  1.00  0.00    -0.319 OA 
BRANCH   8  11
HETATM   11  C   UNL     2     -10.312  15.182  65.995  1.00  0.00    -0.311 C  
HETATM   12  H   UNL     2      -8.792  16.247  65.406  1.00  0.00     0.000 HD 
HETATM   13  O   UNL     2      -9.359  16.256  66.168  1.00  0.00    -0.294 OA 
BRANCH  11  14
HETATM   14  C   UNL     2     -10.936  15.294  64.597  1.00  0.00    -0.304 C  
HETATM   15  C   UNL     2     -12.208  14.494  64.333  1.00  0.00    -0.458 C  
HETATM   16  O   UNL     2     -11.109  16.672  64.192  1.00  0.00    -1.338 OA 
HETATM   17  H   UNL     2     -11.495  16.741  63.327  1.00  0.00     0.000 HD 
HETATM   18  O   UNL     2     -12.721  13.728  65.200  1.00  0.00    -0.616 OA 
HETATM   19  O   UNL     2     -12.531  14.215  63.123  1.00  0.00    -0.678 OA 
ENDBRANCH  11  14
ENDBRANCH   8  11
ENDBRANCH   2   8
TORSDOF 3
ENDMDL
MODEL       31
REMARK 921   NORMALIZED FREE ENERGY PREDICTED BY IDOCK:   -4.98 KCAL/MOL
REMARK 922        TOTAL FREE ENERGY PREDICTED BY IDOCK:   -6.32 KCAL/MOL
REMARK 923 INTER-LIGAND FREE ENERGY PREDICTED BY IDOCK:   -6.37 KCAL/MOL
REMARK 924 INTRA-LIGAND FREE ENERGY PREDICTED BY IDOCK:    0.05 KCAL/MOL
REMARK 927      BINDING AFFINITY PREDICTED BY RF-SCORE:    0.00 PKD
ROOT
HETATM    1 CA   UNL     1     -13.804  14.483  65.291  1.00  0.00    -0.738 Ca 
HETATM    2  C   UNL     2     -10.098  16.198  65.830  1.00  0.00    -0.354 C  
HETATM    3  H   UNL     2      -8.617  15.253  66.767  1.00  0.00     0.000 HD 
HETATM    4  C   UNL     2     -11.162  15.820  64.791  1.00  0.00    -0.366 C  
HETATM    5  O   UNL     2      -9.276  15.019  66.123  1.00  0.00    -0.292 OA 
HETATM    6  O   UNL     2     -11.460  16.631  63.894  1.00  0.00    -1.186 OA 
HETATM    7  O   UNL     2     -11.762  14.691  64.963  1.00  0.00    -0.364 OA 
ENDROOT
BRANCH   2   8
HETATM    8  C   UNL     2     -10.689  16.633  67.180  1.00  0.00    -0.202 C  
HETATM    9  H   UNL     2     -10.231  16.287  69.053  1.00  0.00     0.000 HD 
HETATM   10  O   UNL     2      -9.865  16.018  68.219  1.00  0.00    -0.215 OA 
BRANCH   8  11
HETATM   11  C   UNL     2     -10.782  18.146  67.545  1.00  0.00    -0.345 C  
HETATM   12  H   UNL     2     -10.659  19.807  66.537  1.00  0.00     0.000 HD 
HETATM   13  O   UNL     2     -10.602  18.886  66.315  1.00  0.00    -0.424 OA 
BRANCH  11  14
HETATM   14  C   UNL     2      -9.837  18.718  68.610  1.00  0.00    -0.392 C  
HETATM   15  C   UNL     2      -8.385  18.954  68.203  1.00  0.00    -0.309 C  
HETATM   16  O   UNL     2     -10.386  19.899  69.240  1.00  0.00    -0.635 OA 
HETATM   17  H   UNL     2      -9.801  20.254  69.899  1.00  0.00     0.000 HD 
HETATM   18  O   UNL     2      -7.945  18.656  67.054  1.00  0.00    -0.237 OA 
HETATM   19  O   UNL     2      -7.484  19.024  69.113  1.00  0.00    -0.314 OA 
ENDBRANCH  11  14
ENDBRANCH   8  11
ENDBRANCH   2   8
TORSDOF 3
ENDMDL
MODEL       32
REMARK 921   NORMALIZED FREE ENERGY PREDICTED BY IDOCK:   -4.96 KCAL/MOL
REMARK 922        TOTAL FREE ENERGY PREDICTED BY IDOCK:   -6.30 KCAL/MOL
REMARK 923 INTER-LIGAND FREE ENERGY PREDICTED BY IDOCK:   -5.77 KCAL/MOL
REMARK 924 INTRA-LIGAND FREE ENERGY PREDICTED BY IDOCK:   -0.53 KCAL/MOL
REMARK 927      BINDING AFFINITY PREDICTED BY RF-SCORE:    0.00 PKD
ROOT
HETATM    1 CA   UNL     1     -11.849  15.904  63.068  1.00  0.00    -0.760 Ca 
HETATM    2  C   UNL     2     -12.177  12.143  64.714  1.00  0.00    -0.264 C  
HETATM    3  H   UNL     2     -13.935  11.354  65.217  1.00  0.00     0.000 HD 
HETATM    4  C   UNL     2     -11.631  12.944  63.525  1.00  0.00    -0.468 C  
HETATM    5  O   UNL     2     -13.597  11.850  64.481  1.00  0.00    -0.176 OA 
HETATM    6  O   UNL     2     -10.482  12.712  63.104  1.00  0.00    -0.195 OA 
HETATM    7  O   UNL     2     -12.379  13.895  63.076  1.00  0.00    -0.618 OA 
ENDROOT
BRANCH   2   8
HETATM    8  C   UNL     2     -12.128  12.910  66.044  1.00  0.00    -0.422 C  
HETATM    9  H   UNL     2     -12.099  12.384  67.931  1.00  0.00     0.000 HD 
HETATM   10  O   UNL     2     -12.129  11.909  67.109  1.00  0.00    -0.590 OA 
BRANCH   8  11
HETATM   11  C   UNL     2     -10.937  13.866  66.354  1.00  0.00    -0.303 C  
HETATM   12  H   UNL     2      -9.035  13.618  66.696  1.00  0.00     0.000 HD 
HETATM   13  O   UNL     2      -9.762  13.036  66.507  1.00  0.00    -0.255 OA 
BRANCH  11  14
HETATM   14  C   UNL     2     -11.032  14.815  67.557  1.00  0.00    -0.304 C  
HETATM   15  C   UNL     2     -10.828  16.304  67.291  1.00  0.00    -0.216 C  
HETATM   16  O   UNL     2     -12.240  14.596  68.322  1.00  0.00    -0.582 OA 
HETATM   17  H   UNL     2     -12.299  15.183  69.067  1.00  0.00     0.000 HD 
HETATM   18  O   UNL     2     -10.547  16.756  66.143  1.00  0.00    -0.294 OA 
HETATM   19  O   UNL     2     -10.486  17.070  68.261  1.00  0.00    -0.324 OA 
ENDBRANCH  11  14
ENDBRANCH   8  11
ENDBRANCH   2   8
TORSDOF 3
ENDMDL
MODEL       33
REMARK 921   NORMALIZED FREE ENERGY PREDICTED BY IDOCK:   -4.94 KCAL/MOL
REMARK 922        TOTAL FREE ENERGY PREDICTED BY IDOCK:   -6.28 KCAL/MOL
REMARK 923 INTER-LIGAND FREE ENERGY PREDICTED BY IDOCK:   -5.66 KCAL/MOL
REMARK 924 INTRA-LIGAND FREE ENERGY PREDICTED BY IDOCK:   -0.62 KCAL/MOL
REMARK 927      BINDING AFFINITY PREDICTED BY RF-SCORE:    0.00 PKD
ROOT
HETATM    1 CA   UNL     1     -13.184  12.342  63.058  1.00  0.00    -0.587 Ca 
HETATM    2  C   UNL     2     -10.233  11.683  65.854  1.00  0.00    -0.238 C  
HETATM    3  H   UNL     2     -10.246  10.095  67.056  1.00  0.00     0.000 HD 
HETATM    4  C   UNL     2     -10.513  11.939  64.368  1.00  0.00    -0.311 C  
HETATM    5  O   UNL     2     -10.419  10.254  66.136  1.00  0.00    -0.210 OA 
HETATM    6  O   UNL     2      -9.804  12.749  63.740  1.00  0.00    -0.286 OA 
HETATM    7  O   UNL     2     -11.545  11.352  63.863  1.00  0.00    -0.299 OA 
ENDROOT
BRANCH   2   8
HETATM    8  C   UNL     2     -11.202  12.417  66.794  1.00  0.00    -0.310 C  
HETATM    9  H   UNL     2     -11.421  12.508  68.739  1.00  0.00     0.000 HD 
HETATM   10  O   UNL     2     -10.823  12.054  68.158  1.00  0.00    -0.202 OA 
BRANCH   8  11
HETATM   11  C   UNL     2     -11.289  13.972  66.772  1.00  0.00    -0.334 C  
HETATM   12  H   UNL     2     -11.791  15.335  68.070  1.00  0.00     0.000 HD 
HETATM   13  O   UNL     2     -11.738  14.386  68.083  1.00  0.00    -0.312 OA 
BRANCH  11  14
HETATM   14  C   UNL     2     -12.161  14.658  65.711  1.00  0.00    -0.162 C  
HETATM   15  C   UNL     2     -11.453  15.543  64.689  1.00  0.00    -0.324 C  
HETATM   16  O   UNL     2     -13.042  13.721  65.048  1.00  0.00    -0.751 OA 
HETATM   17  H   UNL     2     -13.581  14.146  64.391  1.00  0.00     0.000 HD 
HETATM   18  O   UNL     2     -10.206  15.754  64.722  1.00  0.00    -0.403 OA 
HETATM   19  O   UNL     2     -12.126  16.442  64.068  1.00  0.00    -0.932 OA 
ENDBRANCH  11  14
ENDBRANCH   8  11
ENDBRANCH   2   8
TORSDOF 3
ENDMDL
MODEL       34
REMARK 921   NORMALIZED FREE ENERGY PREDICTED BY IDOCK:   -4.94 KCAL/MOL
REMARK 922        TOTAL FREE ENERGY PREDICTED BY IDOCK:   -6.28 KCAL/MOL
REMARK 923 INTER-LIGAND FREE ENERGY PREDICTED BY IDOCK:   -5.77 KCAL/MOL
REMARK 924 INTRA-LIGAND FREE ENERGY PREDICTED BY IDOCK:   -0.51 KCAL/MOL
REMARK 927      BINDING AFFINITY PREDICTED BY RF-SCORE:    0.00 PKD
ROOT
HETATM    1 CA   UNL     1     -11.588   7.925  67.300  1.00  0.00    -0.508 Ca 
HETATM    2  C   UNL     2      -9.648  11.336  66.051  1.00  0.00    -0.218 C  
HETATM    3  H   UNL     2      -9.520  12.962  67.191  1.00  0.00     0.000 HD 
HETATM    4  C   UNL     2      -9.504   9.824  66.270  1.00  0.00    -0.195 C  
HETATM    5  O   UNL     2      -9.430  12.026  67.327  1.00  0.00    -0.177 OA 
HETATM    6  O   UNL     2      -8.941   9.128  65.403  1.00  0.00    -0.187 OA 
HETATM    7  O   UNL     2     -10.064   9.336  67.324  1.00  0.00    -0.198 OA 
ENDROOT
BRANCH   2   8
HETATM    8  C   UNL     2     -11.052  11.756  65.589  1.00  0.00    -0.285 C  
HETATM    9  H   UNL     2     -12.635  12.473  66.493  1.00  0.00     0.000 HD 
HETATM   10  O   UNL     2     -11.767  12.213  66.778  1.00  0.00    -0.488 OA 
BRANCH   8  11
HETATM   11  C   UNL     2     -11.224  12.881  64.525  1.00  0.00    -0.336 C  
HETATM   12  H   UNL     2     -10.626  13.133  62.689  1.00  0.00     0.000 HD 
HETATM   13  O   UNL     2     -10.521  12.447  63.338  1.00  0.00    -0.426 OA 
BRANCH  11  14
HETATM   14  C   UNL     2     -10.780  14.310  64.868  1.00  0.00    -0.432 C  
HETATM   15  C   UNL     2     -11.694  15.451  64.430  1.00  0.00    -0.258 C  
HETATM   16  O   UNL     2     -10.432  14.445  66.266  1.00  0.00    -0.279 OA 
HETATM   17  H   UNL     2     -10.157  15.330  66.478  1.00  0.00     0.000 HD 
HETATM   18  O   UNL     2     -12.756  15.255  63.771  1.00  0.00    -0.687 OA 
HETATM   19  O   UNL     2     -11.206  16.631  64.310  1.00  0.00    -1.098 OA 
ENDBRANCH  11  14
ENDBRANCH   8  11
ENDBRANCH   2   8
TORSDOF 3
ENDMDL
MODEL       35
REMARK 921   NORMALIZED FREE ENERGY PREDICTED BY IDOCK:   -4.92 KCAL/MOL
REMARK 922        TOTAL FREE ENERGY PREDICTED BY IDOCK:   -6.26 KCAL/MOL
REMARK 923 INTER-LIGAND FREE ENERGY PREDICTED BY IDOCK:   -6.06 KCAL/MOL
REMARK 924 INTRA-LIGAND FREE ENERGY PREDICTED BY IDOCK:   -0.20 KCAL/MOL
REMARK 927      BINDING AFFINITY PREDICTED BY RF-SCORE:    0.00 PKD
ROOT
HETATM    1 CA   UNL     1     -12.823  14.338  67.334  1.00  0.00    -0.555 Ca 
HETATM    2  C   UNL     2     -12.138  12.816  63.569  1.00  0.00    -0.559 C  
HETATM    3  H   UNL     2     -13.096  11.210  62.882  1.00  0.00     0.000 HD 
HETATM    4  C   UNL     2     -12.525  14.073  64.358  1.00  0.00    -0.289 C  
HETATM    5  O   UNL     2     -13.335  11.989  63.371  1.00  0.00    -0.601 OA 
HETATM    6  O   UNL     2     -12.007  15.167  64.062  1.00  0.00    -0.460 OA 
HETATM    7  O   UNL     2     -13.316  13.905  65.362  1.00  0.00    -0.710 OA 
ENDROOT
BRANCH   2   8
HETATM    8  C   UNL     2     -11.134  11.916  64.305  1.00  0.00    -0.356 C  
HETATM    9  H   UNL     2      -9.245  11.468  64.041  1.00  0.00     0.000 HD 
HETATM   10  O   UNL     2      -9.866  12.024  63.586  1.00  0.00    -0.340 OA 
BRANCH   8  11
HETATM   11  C   UNL     2     -10.800  12.176  65.805  1.00  0.00    -0.281 C  
HETATM   12  H   UNL     2      -9.614  13.395  66.753  1.00  0.00     0.000 HD 
HETATM   13  O   UNL     2      -9.817  13.236  65.839  1.00  0.00    -0.277 OA 
BRANCH  11  14
HETATM   14  C   UNL     2     -10.303  11.012  66.673  1.00  0.00    -0.240 C  
HETATM   15  C   UNL     2     -11.157  10.623  67.877  1.00  0.00    -0.308 C  
HETATM   16  O   UNL     2      -9.982   9.846  65.880  1.00  0.00    -0.261 OA 
HETATM   17  H   UNL     2      -9.674   9.125  66.418  1.00  0.00     0.000 HD 
HETATM   18  O   UNL     2     -12.211  11.248  68.192  1.00  0.00    -0.622 OA 
HETATM   19  O   UNL     2     -10.616   9.976  68.843  1.00  0.00    -0.200 OA 
ENDBRANCH  11  14
ENDBRANCH   8  11
ENDBRANCH   2   8
TORSDOF 3
ENDMDL
MODEL       36
REMARK 921   NORMALIZED FREE ENERGY PREDICTED BY IDOCK:   -4.92 KCAL/MOL
REMARK 922        TOTAL FREE ENERGY PREDICTED BY IDOCK:   -6.26 KCAL/MOL
REMARK 923 INTER-LIGAND FREE ENERGY PREDICTED BY IDOCK:   -6.38 KCAL/MOL
REMARK 924 INTRA-LIGAND FREE ENERGY PREDICTED BY IDOCK:    0.12 KCAL/MOL
REMARK 927      BINDING AFFINITY PREDICTED BY RF-SCORE:    0.00 PKD
ROOT
HETATM    1 CA   UNL     1     -12.744  15.876  63.372  1.00  0.00    -0.747 Ca 
HETATM    2  C   UNL     2     -11.614  12.896  65.980  1.00  0.00    -0.375 C  
HETATM    3  H   UNL     2     -11.238  13.253  67.902  1.00  0.00     0.000 HD 
HETATM    4  C   UNL     2     -12.681  13.334  64.967  1.00  0.00    -0.375 C  
HETATM    5  O   UNL     2     -11.899  13.524  67.275  1.00  0.00    -0.355 OA 
HETATM    6  O   UNL     2     -13.117  12.511  64.140  1.00  0.00    -0.751 OA 
HETATM    7  O   UNL     2     -13.008  14.581  64.975  1.00  0.00    -0.564 OA 
ENDROOT
BRANCH   2   8
HETATM    8  C   UNL     2     -10.194  13.347  65.606  1.00  0.00    -0.292 C  
HETATM    9  H   UNL     2      -9.291  13.777  63.922  1.00  0.00     0.000 HD 
HETATM   10  O   UNL     2     -10.169  13.498  64.152  1.00  0.00    -0.344 OA 
BRANCH   8  11
HETATM   11  C   UNL     2      -9.613  14.671  66.186  1.00  0.00    -0.307 C  
HETATM   12  H   UNL     2      -9.109  15.282  67.965  1.00  0.00     0.000 HD 
HETATM   13  O   UNL     2      -9.463  14.475  67.611  1.00  0.00    -0.203 OA 
BRANCH  11  14
HETATM   14  C   UNL     2     -10.365  15.987  65.944  1.00  0.00    -0.368 C  
HETATM   15  C   UNL     2      -9.742  17.262  66.506  1.00  0.00    -0.288 C  
HETATM   16  O   UNL     2     -10.712  16.162  64.551  1.00  0.00    -0.828 OA 
HETATM   17  H   UNL     2     -11.178  16.977  64.401  1.00  0.00     0.000 HD 
HETATM   18  O   UNL     2      -8.674  17.254  67.184  1.00  0.00    -0.209 OA 
HETATM   19  O   UNL     2     -10.488  18.287  66.704  1.00  0.00    -0.372 OA 
ENDBRANCH  11  14
ENDBRANCH   8  11
ENDBRANCH   2   8
TORSDOF 3
ENDMDL
MODEL       37
REMARK 921   NORMALIZED FREE ENERGY PREDICTED BY IDOCK:   -4.92 KCAL/MOL
REMARK 922        TOTAL FREE ENERGY PREDICTED BY IDOCK:   -6.25 KCAL/MOL
REMARK 923 INTER-LIGAND FREE ENERGY PREDICTED BY IDOCK:   -5.91 KCAL/MOL
REMARK 924 INTRA-LIGAND FREE ENERGY PREDICTED BY IDOCK:   -0.34 KCAL/MOL
REMARK 927      BINDING AFFINITY PREDICTED BY RF-SCORE:    0.00 PKD
ROOT
HETATM    1 CA   UNL     1     -10.074  13.241  69.671  1.00  0.00    -0.408 Ca 
HETATM    2  C   UNL     2     -10.639  10.124  67.038  1.00  0.00    -0.225 C  
HETATM    3  H   UNL     2      -9.191   8.830  66.599  1.00  0.00     0.000 HD 
HETATM    4  C   UNL     2     -11.166  10.795  68.313  1.00  0.00    -0.297 C  
HETATM    5  O   UNL     2      -9.518   9.245  67.389  1.00  0.00    -0.129 OA 
HETATM    6  O   UNL     2     -12.392  10.956  68.461  1.00  0.00    -0.490 OA 
HETATM    7  O   UNL     2     -10.282  11.243  69.139  1.00  0.00    -0.190 OA 
ENDROOT
BRANCH   2   8
HETATM    8  C   UNL     2     -10.076  11.119  66.011  1.00  0.00    -0.244 C  
HETATM    9  H   UNL     2      -8.281  11.533  65.344  1.00  0.00     0.000 HD 
HETATM   10  O   UNL     2      -8.629  10.918  65.978  1.00  0.00    -0.170 OA 
BRANCH   8  11
HETATM   11  C   UNL     2     -10.551  11.069  64.528  1.00  0.00    -0.313 C  
HETATM   12  H   UNL     2      -9.840  10.295  62.888  1.00  0.00     0.000 HD 
HETATM   13  O   UNL     2      -9.550  10.327  63.792  1.00  0.00    -0.288 OA 
BRANCH  11  14
HETATM   14  C   UNL     2     -10.836  12.383  63.788  1.00  0.00    -0.454 C  
HETATM   15  C   UNL     2     -12.254  12.939  63.870  1.00  0.00    -0.449 C  
HETATM   16  O   UNL     2      -9.868  13.408  64.116  1.00  0.00    -0.735 OA 
HETATM   17  H   UNL     2     -10.045  14.221  63.658  1.00  0.00     0.000 HD 
HETATM   18  O   UNL     2     -13.185  12.336  64.480  1.00  0.00    -0.799 OA 
HETATM   19  O   UNL     2     -12.655  13.763  62.973  1.00  0.00    -0.721 OA 
ENDBRANCH  11  14
ENDBRANCH   8  11
ENDBRANCH   2   8
TORSDOF 3
ENDMDL
MODEL       38
REMARK 921   NORMALIZED FREE ENERGY PREDICTED BY IDOCK:   -4.91 KCAL/MOL
REMARK 922        TOTAL FREE ENERGY PREDICTED BY IDOCK:   -6.24 KCAL/MOL
REMARK 923 INTER-LIGAND FREE ENERGY PREDICTED BY IDOCK:   -5.86 KCAL/MOL
REMARK 924 INTRA-LIGAND FREE ENERGY PREDICTED BY IDOCK:   -0.38 KCAL/MOL
REMARK 927      BINDING AFFINITY PREDICTED BY RF-SCORE:    0.00 PKD
ROOT
HETATM    1 CA   UNL     1     -10.015  12.795  63.405  1.00  0.00    -0.377 Ca 
HETATM    2  C   UNL     2     -11.953  13.642  66.939  1.00  0.00    -0.410 C  
HETATM    3  H   UNL     2     -11.400  15.148  68.118  1.00  0.00     0.000 HD 
HETATM    4  C   UNL     2     -12.137  13.438  65.429  1.00  0.00    -0.421 C  
HETATM    5  O   UNL     2     -11.514  15.021  67.184  1.00  0.00    -0.347 OA 
HETATM    6  O   UNL     2     -13.091  12.753  65.014  1.00  0.00    -0.811 OA 
HETATM    7  O   UNL     2     -11.221  13.926  64.663  1.00  0.00    -0.355 OA 
ENDROOT
BRANCH   2   8
HETATM    8  C   UNL     2     -10.863  12.748  67.549  1.00  0.00    -0.239 C  
HETATM    9  H   UNL     2      -9.182  13.088  68.495  1.00  0.00     0.000 HD 
HETATM   10  O   UNL     2      -9.855  13.641  68.118  1.00  0.00    -0.223 OA 
BRANCH   8  11
HETATM   11  C   UNL     2     -11.221  11.731  68.674  1.00  0.00    -0.257 C  
HETATM   12  H   UNL     2     -12.124  10.006  68.725  1.00  0.00     0.000 HD 
HETATM   13  O   UNL     2     -11.905  10.626  68.039  1.00  0.00    -0.494 OA 
BRANCH  11  14
HETATM   14  C   UNL     2     -12.053  12.205  69.874  1.00  0.00    -0.253 C  
HETATM   15  C   UNL     2     -12.292  11.202  70.999  1.00  0.00    -0.382 C  
HETATM   16  O   UNL     2     -11.567  13.459  70.406  1.00  0.00    -0.520 OA 
HETATM   17  H   UNL     2     -12.082  13.752  71.149  1.00  0.00     0.000 HD 
HETATM   18  O   UNL     2     -11.870  10.010  70.947  1.00  0.00    -0.311 OA 
HETATM   19  O   UNL     2     -13.284  11.378  71.793  1.00  0.00    -0.458 OA 
ENDBRANCH  11  14
ENDBRANCH   8  11
ENDBRANCH   2   8
TORSDOF 3
ENDMDL
MODEL       39
REMARK 921   NORMALIZED FREE ENERGY PREDICTED BY IDOCK:   -4.89 KCAL/MOL
REMARK 922        TOTAL FREE ENERGY PREDICTED BY IDOCK:   -6.22 KCAL/MOL
REMARK 923 INTER-LIGAND FREE ENERGY PREDICTED BY IDOCK:   -5.90 KCAL/MOL
REMARK 924 INTRA-LIGAND FREE ENERGY PREDICTED BY IDOCK:   -0.32 KCAL/MOL
REMARK 927      BINDING AFFINITY PREDICTED BY RF-SCORE:    0.00 PKD
ROOT
HETATM    1 CA   UNL     1     -12.955  15.431  68.261  1.00  0.00    -0.431 Ca 
HETATM    2  C   UNL     2     -10.879  14.340  64.876  1.00  0.00    -0.416 C  
HETATM    3  H   UNL     2      -8.977  13.754  64.940  1.00  0.00     0.000 HD 
HETATM    4  C   UNL     2     -12.140  14.076  65.709  1.00  0.00    -0.427 C  
HETATM    5  O   UNL     2      -9.758  13.591  65.455  1.00  0.00    -0.179 OA 
HETATM    6  O   UNL     2     -13.238  13.945  65.136  1.00  0.00    -0.768 OA 
HETATM    7  O   UNL     2     -12.000  14.092  66.991  1.00  0.00    -0.408 OA 
ENDROOT
BRANCH   2   8
HETATM    8  C   UNL     2     -10.438  15.812  64.883  1.00  0.00    -0.189 C  
HETATM    9  H   UNL     2     -11.177  17.468  64.144  1.00  0.00     0.000 HD 
HETATM   10  O   UNL     2     -11.449  16.559  64.139  1.00  0.00    -1.059 OA 
BRANCH   8  11
HETATM   11  C   UNL     2     -10.252  16.568  66.233  1.00  0.00    -0.332 C  
HETATM   12  H   UNL     2     -10.194  18.443  66.756  1.00  0.00     0.000 HD 
HETATM   13  O   UNL     2     -10.307  17.982  65.933  1.00  0.00    -0.537 OA 
BRANCH  11  14
HETATM   14  C   UNL     2      -9.003  16.291  67.081  1.00  0.00    -0.195 C  
HETATM   15  C   UNL     2      -9.217  15.679  68.462  1.00  0.00    -0.197 C  
HETATM   16  O   UNL     2      -8.005  15.546  66.344  1.00  0.00    -0.304 OA 
HETATM   17  H   UNL     2      -7.232  15.374  66.869  1.00  0.00     0.000 HD 
HETATM   18  O   UNL     2     -10.368  15.442  68.929  1.00  0.00    -0.217 OA 
HETATM   19  O   UNL     2      -8.301  15.808  69.351  1.00  0.00    -0.244 OA 
ENDBRANCH  11  14
ENDBRANCH   8  11
ENDBRANCH   2   8
TORSDOF 3
ENDMDL
MODEL       40
REMARK 921   NORMALIZED FREE ENERGY PREDICTED BY IDOCK:   -4.86 KCAL/MOL
REMARK 922        TOTAL FREE ENERGY PREDICTED BY IDOCK:   -6.19 KCAL/MOL
REMARK 923 INTER-LIGAND FREE ENERGY PREDICTED BY IDOCK:   -5.84 KCAL/MOL
REMARK 924 INTRA-LIGAND FREE ENERGY PREDICTED BY IDOCK:   -0.35 KCAL/MOL
REMARK 927      BINDING AFFINITY PREDICTED BY RF-SCORE:    0.00 PKD
ROOT
HETATM    1 CA   UNL     1     -10.429   9.710  63.598  1.00  0.00    -0.431 Ca 
HETATM    2  C   UNL     2     -11.522  13.483  64.834  1.00  0.00    -0.334 C  
HETATM    3  H   UNL     2     -10.183  14.910  65.199  1.00  0.00     0.000 HD 
HETATM    4  C   UNL     2     -11.724  12.415  63.752  1.00  0.00    -0.483 C  
HETATM    5  O   UNL     2     -10.308  14.249  64.529  1.00  0.00    -0.357 OA 
HETATM    6  O   UNL     2     -12.874  12.162  63.345  1.00  0.00    -0.765 OA 
HETATM    7  O   UNL     2     -10.675  11.762  63.381  1.00  0.00    -0.391 OA 
ENDROOT
BRANCH   2   8
HETATM    8  C   UNL     2     -11.299  12.898  66.238  1.00  0.00    -0.323 C  
HETATM    9  H   UNL     2      -9.722  12.586  67.358  1.00  0.00     0.000 HD 
HETATM   10  O   UNL     2      -9.860  12.948  66.491  1.00  0.00    -0.242 OA 
BRANCH   8  11
HETATM   11  C   UNL     2     -11.976  13.555  67.478  1.00  0.00    -0.346 C  
HETATM   12  H   UNL     2     -12.241  15.387  68.085  1.00  0.00     0.000 HD 
HETATM   13  O   UNL     2     -11.828  14.986  67.329  1.00  0.00    -0.307 OA 
BRANCH  11  14
HETATM   14  C   UNL     2     -11.511  13.154  68.885  1.00  0.00    -0.298 C  
HETATM   15  C   UNL     2     -11.638  11.683  69.270  1.00  0.00    -0.320 C  
HETATM   16  O   UNL     2     -10.179  13.641  69.172  1.00  0.00    -0.427 OA 
HETATM   17  H   UNL     2      -9.892  13.393  70.043  1.00  0.00     0.000 HD 
HETATM   18  O   UNL     2     -12.144  10.819  68.496  1.00  0.00    -0.493 OA 
HETATM   19  O   UNL     2     -11.668  11.363  70.512  1.00  0.00    -0.320 OA 
ENDBRANCH  11  14
ENDBRANCH   8  11
ENDBRANCH   2   8
TORSDOF 3
ENDMDL
MODEL       41
REMARK 921   NORMALIZED FREE ENERGY PREDICTED BY IDOCK:   -4.83 KCAL/MOL
REMARK 922        TOTAL FREE ENERGY PREDICTED BY IDOCK:   -6.15 KCAL/MOL
REMARK 923 INTER-LIGAND FREE ENERGY PREDICTED BY IDOCK:   -5.42 KCAL/MOL
REMARK 924 INTRA-LIGAND FREE ENERGY PREDICTED BY IDOCK:   -0.73 KCAL/MOL
REMARK 927      BINDING AFFINITY PREDICTED BY RF-SCORE:    0.00 PKD
ROOT
HETATM    1 CA   UNL     1     -10.880  19.020  70.144  1.00  0.00    -0.477 Ca 
HETATM    2  C   UNL     2      -9.720  18.492  66.228  1.00  0.00    -0.305 C  
HETATM    3  H   UNL     2     -10.853  19.075  64.697  1.00  0.00     0.000 HD 
HETATM    4  C   UNL     2      -9.313  19.083  67.583  1.00  0.00    -0.298 C  
HETATM    5  O   UNL     2     -10.600  19.441  65.537  1.00  0.00    -0.493 OA 
HETATM    6  O   UNL     2      -8.150  18.921  68.000  1.00  0.00    -0.276 OA 
HETATM    7  O   UNL     2     -10.245  19.653  68.269  1.00  0.00    -0.420 OA 
ENDROOT
BRANCH   2   8
HETATM    8  C   UNL     2     -10.530  17.191  66.346  1.00  0.00    -0.255 C  
HETATM    9  H   UNL     2     -11.263  15.910  65.057  1.00  0.00     0.000 HD 
HETATM   10  O   UNL     2     -10.762  16.714  64.984  1.00  0.00    -0.677 OA 
BRANCH   8  11
HETATM   11  C   UNL     2      -9.953  15.977  67.134  1.00  0.00    -0.249 C  
HETATM   12  H   UNL     2      -8.818  14.462  66.676  1.00  0.00     0.000 HD 
HETATM   13  O   UNL     2      -9.170  15.202  66.196  1.00  0.00    -0.295 OA 
BRANCH  11  14
HETATM   14  C   UNL     2     -10.916  15.036  67.870  1.00  0.00    -0.291 C  
HETATM   15  C   UNL     2     -11.384  15.461  69.259  1.00  0.00    -0.315 C  
HETATM   16  O   UNL     2     -12.046  14.666  67.044  1.00  0.00    -0.447 OA 
HETATM   17  H   UNL     2     -12.642  14.084  67.500  1.00  0.00     0.000 HD 
HETATM   18  O   UNL     2     -10.974  16.518  69.819  1.00  0.00    -0.344 OA 
HETATM   19  O   UNL     2     -11.828  14.570  70.068  1.00  0.00    -0.277 OA 
ENDBRANCH  11  14
ENDBRANCH   8  11
ENDBRANCH   2   8
TORSDOF 3
ENDMDL
MODEL       42
REMARK 921   NORMALIZED FREE ENERGY PREDICTED BY IDOCK:   -4.82 KCAL/MOL
REMARK 922        TOTAL FREE ENERGY PREDICTED BY IDOCK:   -6.14 KCAL/MOL
REMARK 923 INTER-LIGAND FREE ENERGY PREDICTED BY IDOCK:   -5.36 KCAL/MOL
REMARK 924 INTRA-LIGAND FREE ENERGY PREDICTED BY IDOCK:   -0.78 KCAL/MOL
REMARK 927      BINDING AFFINITY PREDICTED BY RF-SCORE:    0.00 PKD
ROOT
HETATM    1 CA   UNL     1     -13.392  14.493  69.364  1.00  0.00    -0.560 Ca 
HETATM    2  C   UNL     2     -10.272  16.497  67.573  1.00  0.00    -0.283 C  
HETATM    3  H   UNL     2     -10.511  18.272  66.703  1.00  0.00     0.000 HD 
HETATM    4  C   UNL     2     -10.752  15.835  68.870  1.00  0.00    -0.248 C  
HETATM    5  O   UNL     2     -10.807  17.862  67.507  1.00  0.00    -0.364 OA 
HETATM    6  O   UNL     2      -9.976  15.096  69.506  1.00  0.00    -0.231 OA 
HETATM    7  O   UNL     2     -11.989  16.015  69.189  1.00  0.00    -0.340 OA 
ENDROOT
BRANCH   2   8
HETATM    8  C   UNL     2     -10.778  15.794  66.304  1.00  0.00    -0.282 C  
HETATM    9  H   UNL     2     -10.477  16.046  64.384  1.00  0.00     0.000 HD 
HETATM   10  O   UNL     2     -10.164  16.480  65.168  1.00  0.00    -0.590 OA 
BRANCH   8  11
HETATM   11  C   UNL     2     -10.506  14.275  66.086  1.00  0.00    -0.292 C  
HETATM   12  H   UNL     2     -10.072  13.169  64.544  1.00  0.00     0.000 HD 
HETATM   13  O   UNL     2     -10.239  14.095  64.676  1.00  0.00    -0.408 OA 
BRANCH  11  14
HETATM   14  C   UNL     2     -11.566  13.255  66.524  1.00  0.00    -0.350 C  
HETATM   15  C   UNL     2     -11.165  12.247  67.598  1.00  0.00    -0.290 C  
HETATM   16  O   UNL     2     -12.819  13.892  66.866  1.00  0.00    -0.321 OA 
HETATM   17  H   UNL     2     -13.475  13.260  67.137  1.00  0.00     0.000 HD 
HETATM   18  O   UNL     2     -10.001  12.207  68.090  1.00  0.00    -0.191 OA 
HETATM   19  O   UNL     2     -11.823  11.151  67.702  1.00  0.00    -0.612 OA 
ENDBRANCH  11  14
ENDBRANCH   8  11
ENDBRANCH   2   8
TORSDOF 3
ENDMDL
MODEL       43
REMARK 921   NORMALIZED FREE ENERGY PREDICTED BY IDOCK:   -4.81 KCAL/MOL
REMARK 922        TOTAL FREE ENERGY PREDICTED BY IDOCK:   -6.13 KCAL/MOL
REMARK 923 INTER-LIGAND FREE ENERGY PREDICTED BY IDOCK:   -5.86 KCAL/MOL
REMARK 924 INTRA-LIGAND FREE ENERGY PREDICTED BY IDOCK:   -0.27 KCAL/MOL
REMARK 927      BINDING AFFINITY PREDICTED BY RF-SCORE:    0.00 PKD
ROOT
HETATM    1 CA   UNL     1     -11.410  10.717  62.750  1.00  0.00    -0.697 Ca 
HETATM    2  C   UNL     2     -11.291  13.457  65.823  1.00  0.00    -0.305 C  
HETATM    3  H   UNL     2      -9.740  14.675  66.099  1.00  0.00     0.000 HD 
HETATM    4  C   UNL     2     -12.102  12.965  64.617  1.00  0.00    -0.418 C  
HETATM    5  O   UNL     2     -10.243  14.370  65.353  1.00  0.00    -0.341 OA 
HETATM    6  O   UNL     2     -13.336  12.831  64.720  1.00  0.00    -0.736 OA 
HETATM    7  O   UNL     2     -11.431  12.627  63.568  1.00  0.00    -0.461 OA 
ENDROOT
BRANCH   2   8
HETATM    8  C   UNL     2     -10.555  12.332  66.565  1.00  0.00    -0.234 C  
HETATM    9  H   UNL     2      -8.738  11.603  66.496  1.00  0.00     0.000 HD 
HETATM   10  O   UNL     2      -9.193  12.298  66.036  1.00  0.00    -0.192 OA 
BRANCH   8  11
HETATM   11  C   UNL     2     -10.412  12.377  68.116  1.00  0.00    -0.219 C  
HETATM   12  H   UNL     2      -8.928  12.183  69.362  1.00  0.00     0.000 HD 
HETATM   13  O   UNL     2      -9.015  12.155  68.416  1.00  0.00    -0.186 OA 
BRANCH  11  14
HETATM   14  C   UNL     2     -11.260  11.428  68.974  1.00  0.00    -0.256 C  
HETATM   15  C   UNL     2     -12.035  12.040  70.137  1.00  0.00    -0.321 C  
HETATM   16  O   UNL     2     -12.127  10.599  68.165  1.00  0.00    -0.797 OA 
HETATM   17  H   UNL     2     -12.652  10.011  68.696  1.00  0.00     0.000 HD 
HETATM   18  O   UNL     2     -11.963  13.269  70.430  1.00  0.00    -0.332 OA 
HETATM   19  O   UNL     2     -12.406  11.286  71.107  1.00  0.00    -0.361 OA 
ENDBRANCH  11  14
ENDBRANCH   8  11
ENDBRANCH   2   8
TORSDOF 3
ENDMDL
MODEL       44
REMARK 921   NORMALIZED FREE ENERGY PREDICTED BY IDOCK:   -4.80 KCAL/MOL
REMARK 922        TOTAL FREE ENERGY PREDICTED BY IDOCK:   -6.11 KCAL/MOL
REMARK 923 INTER-LIGAND FREE ENERGY PREDICTED BY IDOCK:   -5.32 KCAL/MOL
REMARK 924 INTRA-LIGAND FREE ENERGY PREDICTED BY IDOCK:   -0.80 KCAL/MOL
REMARK 927      BINDING AFFINITY PREDICTED BY RF-SCORE:    0.00 PKD
ROOT
HETATM    1 CA   UNL     1      -9.940  20.982  65.326  1.00  0.00    -0.626 Ca 
HETATM    2  C   UNL     2      -9.530  17.767  67.867  1.00  0.00    -0.270 C  
HETATM    3  H   UNL     2      -9.853  17.914  69.826  1.00  0.00     0.000 HD 
HETATM    4  C   UNL     2     -10.222  18.276  66.596  1.00  0.00    -0.384 C  
HETATM    5  O   UNL     2     -10.282  18.229  69.039  1.00  0.00    -0.376 OA 
HETATM    6  O   UNL     2     -10.288  17.538  65.595  1.00  0.00    -0.601 OA 
HETATM    7  O   UNL     2     -10.629  19.500  66.610  1.00  0.00    -0.440 OA 
ENDROOT
BRANCH   2   8
HETATM    8  C   UNL     2      -8.106  18.315  68.049  1.00  0.00    -0.270 C  
HETATM    9  H   UNL     2      -6.518  17.710  69.025  1.00  0.00     0.000 HD 
HETATM   10  O   UNL     2      -7.398  17.371  68.912  1.00  0.00    -0.249 OA 
BRANCH   8  11
HETATM   11  C   UNL     2      -7.186  18.537  66.811  1.00  0.00    -0.211 C  
HETATM   12  H   UNL     2      -5.365  18.025  66.348  1.00  0.00     0.000 HD 
HETATM   13  O   UNL     2      -5.926  17.890  67.103  1.00  0.00    -0.132 OA 
BRANCH  11  14
HETATM   14  C   UNL     2      -6.909  19.969  66.332  1.00  0.00    -0.229 C  
HETATM   15  C   UNL     2      -6.451  20.146  64.887  1.00  0.00    -0.286 C  
HETATM   16  O   UNL     2      -8.009  20.860  66.630  1.00  0.00    -0.540 OA 
HETATM   17  H   UNL     2      -7.837  21.746  66.333  1.00  0.00     0.000 HD 
HETATM   18  O   UNL     2      -6.258  19.166  64.110  1.00  0.00    -0.454 OA 
HETATM   19  O   UNL     2      -5.822  21.214  64.558  1.00  0.00    -0.249 OA 
ENDBRANCH  11  14
ENDBRANCH   8  11
ENDBRANCH   2   8
TORSDOF 3
ENDMDL
MODEL       45
REMARK 921   NORMALIZED FREE ENERGY PREDICTED BY IDOCK:   -4.76 KCAL/MOL
REMARK 922        TOTAL FREE ENERGY PREDICTED BY IDOCK:   -6.07 KCAL/MOL
REMARK 923 INTER-LIGAND FREE ENERGY PREDICTED BY IDOCK:   -5.81 KCAL/MOL
REMARK 924 INTRA-LIGAND FREE ENERGY PREDICTED BY IDOCK:   -0.26 KCAL/MOL
REMARK 927      BINDING AFFINITY PREDICTED BY RF-SCORE:    0.00 PKD
ROOT
HETATM    1 CA   UNL     1     -12.591  12.044  68.156  1.00  0.00    -0.288 Ca 
HETATM    2  C   UNL     2     -11.461  14.693  65.213  1.00  0.00    -0.361 C  
HETATM    3  H   UNL     2      -9.693  14.578  64.303  1.00  0.00     0.000 HD 
HETATM    4  C   UNL     2     -12.540  13.695  65.648  1.00  0.00    -0.484 C  
HETATM    5  O   UNL     2     -10.362  13.960  64.573  1.00  0.00    -0.436 OA 
HETATM    6  O   UNL     2     -13.743  13.998  65.527  1.00  0.00    -0.415 OA 
HETATM    7  O   UNL     2     -12.131  12.608  66.210  1.00  0.00    -0.523 OA 
ENDROOT
BRANCH   2   8
HETATM    8  C   UNL     2     -10.821  15.453  66.385  1.00  0.00    -0.303 C  
HETATM    9  H   UNL     2      -9.344  15.081  67.617  1.00  0.00     0.000 HD 
HETATM   10  O   UNL     2      -9.739  14.611  66.893  1.00  0.00    -0.228 OA 
BRANCH   8  11
HETATM   11  C   UNL     2     -10.197  16.863  66.159  1.00  0.00    -0.341 C  
HETATM   12  H   UNL     2      -8.436  17.516  65.644  1.00  0.00     0.000 HD 
HETATM   13  O   UNL     2      -8.816  16.656  65.783  1.00  0.00    -0.493 OA 
BRANCH  11  14
HETATM   14  C   UNL     2     -10.252  17.896  67.293  1.00  0.00    -0.358 C  
HETATM   15  C   UNL     2     -10.589  19.335  66.914  1.00  0.00    -0.459 C  
HETATM   16  O   UNL     2     -11.085  17.450  68.389  1.00  0.00    -0.220 OA 
HETATM   17  H   UNL     2     -11.118  18.090  69.091  1.00  0.00     0.000 HD 
HETATM   18  O   UNL     2     -10.777  19.695  65.715  1.00  0.00    -0.516 OA 
HETATM   19  O   UNL     2     -10.251  20.286  67.705  1.00  0.00    -0.389 OA 
ENDBRANCH  11  14
ENDBRANCH   8  11
ENDBRANCH   2   8
TORSDOF 3
ENDMDL
MODEL       46
REMARK 921   NORMALIZED FREE ENERGY PREDICTED BY IDOCK:   -4.75 KCAL/MOL
REMARK 922        TOTAL FREE ENERGY PREDICTED BY IDOCK:   -6.05 KCAL/MOL
REMARK 923 INTER-LIGAND FREE ENERGY PREDICTED BY IDOCK:   -5.90 KCAL/MOL
REMARK 924 INTRA-LIGAND FREE ENERGY PREDICTED BY IDOCK:   -0.16 KCAL/MOL
REMARK 927      BINDING AFFINITY PREDICTED BY RF-SCORE:    0.00 PKD
ROOT
HETATM    1 CA   UNL     1      -8.539  12.169  62.959  1.00  0.00    -0.480 Ca 
HETATM    2  C   UNL     2     -12.151  12.399  64.925  1.00  0.00    -0.407 C  
HETATM    3  H   UNL     2     -13.814  13.018  64.021  1.00  0.00     0.000 HD 
HETATM    4  C   UNL     2     -10.981  11.475  64.563  1.00  0.00    -0.302 C  
HETATM    5  O   UNL     2     -13.089  12.445  63.797  1.00  0.00    -0.756 OA 
HETATM    6  O   UNL     2     -10.500  10.723  65.432  1.00  0.00    -0.260 OA 
HETATM    7  O   UNL     2     -10.493  11.597  63.375  1.00  0.00    -0.388 OA 
ENDROOT
BRANCH   2   8
HETATM    8  C   UNL     2     -11.727  13.856  65.168  1.00  0.00    -0.350 C  
HETATM    9  H   UNL     2     -12.175  15.571  64.335  1.00  0.00     0.000 HD 
HETATM   10  O   UNL     2     -12.437  14.671  64.184  1.00  0.00    -0.736 OA 
BRANCH   8  11
HETATM   11  C   UNL     2     -11.987  14.528  66.550  1.00  0.00    -0.340 C  
HETATM   12  H   UNL     2     -11.135  15.959  67.559  1.00  0.00     0.000 HD 
HETATM   13  O   UNL     2     -10.976  15.549  66.716  1.00  0.00    -0.314 OA 
BRANCH  11  14
HETATM   14  C   UNL     2     -12.021  13.655  67.812  1.00  0.00    -0.352 C  
HETATM   15  C   UNL     2     -10.715  12.992  68.239  1.00  0.00    -0.245 C  
HETATM   16  O   UNL     2     -12.630  14.345  68.929  1.00  0.00    -0.555 OA 
HETATM   17  H   UNL     2     -12.651  13.805  69.710  1.00  0.00     0.000 HD 
HETATM   18  O   UNL     2      -9.646  13.106  67.572  1.00  0.00    -0.198 OA 
HETATM   19  O   UNL     2     -10.758  11.959  68.999  1.00  0.00    -0.214 OA 
ENDBRANCH  11  14
ENDBRANCH   8  11
ENDBRANCH   2   8
TORSDOF 3
ENDMDL
MODEL       47
REMARK 921   NORMALIZED FREE ENERGY PREDICTED BY IDOCK:   -4.73 KCAL/MOL
REMARK 922        TOTAL FREE ENERGY PREDICTED BY IDOCK:   -6.04 KCAL/MOL
REMARK 923 INTER-LIGAND FREE ENERGY PREDICTED BY IDOCK:   -5.44 KCAL/MOL
REMARK 924 INTRA-LIGAND FREE ENERGY PREDICTED BY IDOCK:   -0.59 KCAL/MOL
REMARK 927      BINDING AFFINITY PREDICTED BY RF-SCORE:    0.00 PKD
ROOT
HETATM    1 CA   UNL     1     -12.314  16.555  63.735  1.00  0.00    -0.626 Ca 
HETATM    2  C   UNL     2      -9.592  15.967  66.769  1.00  0.00    -0.236 C  
HETATM    3  H   UNL     2      -7.797  15.168  66.445  1.00  0.00     0.000 HD 
HETATM    4  C   UNL     2     -10.477  17.005  66.067  1.00  0.00    -0.274 C  
HETATM    5  O   UNL     2      -8.346  15.811  66.011  1.00  0.00    -0.143 OA 
HETATM    6  O   UNL     2     -11.136  17.812  66.750  1.00  0.00     0.048 OA 
HETATM    7  O   UNL     2     -10.558  16.922  64.783  1.00  0.00    -0.635 OA 
ENDROOT
BRANCH   2   8
HETATM    8  C   UNL     2     -10.219  14.565  66.824  1.00  0.00    -0.266 C  
HETATM    9  H   UNL     2      -9.987  13.004  67.985  1.00  0.00     0.000 HD 
HETATM   10  O   UNL     2      -9.599  13.870  67.951  1.00  0.00    -0.213 OA 
BRANCH   8  11
HETATM   11  C   UNL     2     -11.757  14.400  67.011  1.00  0.00    -0.399 C  
HETATM   12  H   UNL     2     -12.950  14.328  68.548  1.00  0.00     0.000 HD 
HETATM   13  O   UNL     2     -12.012  14.428  68.434  1.00  0.00    -0.331 OA 
BRANCH  11  14
HETATM   14  C   UNL     2     -12.458  13.175  66.406  1.00  0.00    -0.079 C  
HETATM   15  C   UNL     2     -12.464  13.054  64.885  1.00  0.00    -0.455 C  
HETATM   16  O   UNL     2     -12.006  11.942  67.013  1.00  0.00    -0.615 OA 
HETATM   17  H   UNL     2     -12.440  11.184  66.639  1.00  0.00     0.000 HD 
HETATM   18  O   UNL     2     -11.959  13.935  64.131  1.00  0.00    -0.443 OA 
HETATM   19  O   UNL     2     -13.353  12.320  64.321  1.00  0.00    -0.777 OA 
ENDBRANCH  11  14
ENDBRANCH   8  11
ENDBRANCH   2   8
TORSDOF 3
ENDMDL
MODEL       48
REMARK 921   NORMALIZED FREE ENERGY PREDICTED BY IDOCK:   -4.70 KCAL/MOL
REMARK 922        TOTAL FREE ENERGY PREDICTED BY IDOCK:   -6.00 KCAL/MOL
REMARK 923 INTER-LIGAND FREE ENERGY PREDICTED BY IDOCK:   -5.93 KCAL/MOL
REMARK 924 INTRA-LIGAND FREE ENERGY PREDICTED BY IDOCK:   -0.07 KCAL/MOL
REMARK 927      BINDING AFFINITY PREDICTED BY RF-SCORE:    0.00 PKD
ROOT
HETATM    1 CA   UNL     1     -10.911  17.412  68.372  1.00  0.00    -0.296 Ca 
HETATM    2  C   UNL     2     -10.831  15.537  64.706  1.00  0.00    -0.363 C  
HETATM    3  H   UNL     2     -12.030  16.077  63.211  1.00  0.00     0.000 HD 
HETATM    4  C   UNL     2      -9.983  16.268  65.755  1.00  0.00    -0.323 C  
HETATM    5  O   UNL     2     -11.505  16.529  63.861  1.00  0.00    -1.145 OA 
HETATM    6  O   UNL     2      -8.865  15.815  66.065  1.00  0.00    -0.327 OA 
HETATM    7  O   UNL     2     -10.528  17.284  66.333  1.00  0.00    -0.322 OA 
ENDROOT
BRANCH   2   8
HETATM    8  C   UNL     2     -11.954  14.682  65.314  1.00  0.00    -0.302 C  
HETATM    9  H   UNL     2     -13.340  13.512  64.574  1.00  0.00     0.000 HD 
HETATM   10  O   UNL     2     -12.646  14.040  64.198  1.00  0.00    -0.680 OA 
BRANCH   8  11
HETATM   11  C   UNL     2     -11.615  13.543  66.321  1.00  0.00    -0.345 C  
HETATM   12  H   UNL     2     -11.458  13.430  68.259  1.00  0.00     0.000 HD 
HETATM   13  O   UNL     2     -11.664  14.124  67.645  1.00  0.00    -0.344 OA 
BRANCH  11  14
HETATM   14  C   UNL     2     -10.294  12.776  66.167  1.00  0.00    -0.269 C  
HETATM   15  C   UNL     2     -10.268  11.325  66.640  1.00  0.00    -0.229 C  
HETATM   16  O   UNL     2      -9.761  12.883  64.826  1.00  0.00    -0.527 OA 
HETATM   17  H   UNL     2      -8.943  12.409  64.731  1.00  0.00     0.000 HD 
HETATM   18  O   UNL     2     -11.268  10.769  67.180  1.00  0.00    -0.314 OA 
HETATM   19  O   UNL     2      -9.142  10.780  66.923  1.00  0.00    -0.147 OA 
ENDBRANCH  11  14
ENDBRANCH   8  11
ENDBRANCH   2   8
TORSDOF 3
ENDMDL
MODEL       49
REMARK 921   NORMALIZED FREE ENERGY PREDICTED BY IDOCK:   -4.68 KCAL/MOL
REMARK 922        TOTAL FREE ENERGY PREDICTED BY IDOCK:   -5.97 KCAL/MOL
REMARK 923 INTER-LIGAND FREE ENERGY PREDICTED BY IDOCK:   -5.42 KCAL/MOL
REMARK 924 INTRA-LIGAND FREE ENERGY PREDICTED BY IDOCK:   -0.55 KCAL/MOL
REMARK 927      BINDING AFFINITY PREDICTED BY RF-SCORE:    0.00 PKD
ROOT
HETATM    1 CA   UNL     1      -7.175  17.132  70.018  1.00  0.00    -0.168 Ca 
HETATM    2  C   UNL     2      -8.428  16.008  66.259  1.00  0.00    -0.302 C  
HETATM    3  H   UNL     2      -9.824  17.017  65.259  1.00  0.00     0.000 HD 
HETATM    4  C   UNL     2      -7.207  16.372  67.113  1.00  0.00    -0.198 C  
HETATM    5  O   UNL     2      -9.067  17.242  65.788  1.00  0.00    -0.523 OA 
HETATM    6  O   UNL     2      -6.169  15.688  67.024  1.00  0.00    -0.298 OA 
HETATM    7  O   UNL     2      -7.358  17.335  67.958  1.00  0.00    -0.182 OA 
ENDROOT
BRANCH   2   8
HETATM    8  C   UNL     2      -9.516  15.253  67.038  1.00  0.00    -0.223 C  
HETATM    9  H   UNL     2     -11.258  15.745  67.788  1.00  0.00     0.000 HD 
HETATM   10  O   UNL     2     -10.585  16.212  67.307  1.00  0.00    -0.307 OA 
BRANCH   8  11
HETATM   11  C   UNL     2     -10.207  14.005  66.410  1.00  0.00    -0.291 C  
HETATM   12  H   UNL     2      -9.633  12.197  65.971  1.00  0.00     0.000 HD 
HETATM   13  O   UNL     2      -9.211  12.957  66.354  1.00  0.00    -0.221 OA 
BRANCH  11  14
HETATM   14  C   UNL     2     -10.871  14.131  65.032  1.00  0.00    -0.398 C  
HETATM   15  C   UNL     2     -12.116  13.287  64.775  1.00  0.00    -0.409 C  
HETATM   16  O   UNL     2     -11.110  15.512  64.673  1.00  0.00    -0.587 OA 
HETATM   17  H   UNL     2     -11.521  15.590  63.819  1.00  0.00     0.000 HD 
HETATM   18  O   UNL     2     -12.575  12.476  65.631  1.00  0.00    -0.612 OA 
HETATM   19  O   UNL     2     -12.458  13.030  63.565  1.00  0.00    -0.694 OA 
ENDBRANCH  11  14
ENDBRANCH   8  11
ENDBRANCH   2   8
TORSDOF 3
ENDMDL
MODEL       50
REMARK 921   NORMALIZED FREE ENERGY PREDICTED BY IDOCK:   -4.67 KCAL/MOL
REMARK 922        TOTAL FREE ENERGY PREDICTED BY IDOCK:   -5.96 KCAL/MOL
REMARK 923 INTER-LIGAND FREE ENERGY PREDICTED BY IDOCK:   -5.88 KCAL/MOL
REMARK 924 INTRA-LIGAND FREE ENERGY PREDICTED BY IDOCK:   -0.08 KCAL/MOL
REMARK 927      BINDING AFFINITY PREDICTED BY RF-SCORE:    0.00 PKD
ROOT
HETATM    1 CA   UNL     1     -13.130  10.431  69.166  1.00  0.00    -0.547 Ca 
HETATM    2  C   UNL     2      -9.732  12.104  67.547  1.00  0.00    -0.185 C  
HETATM    3  H   UNL     2      -9.185  13.980  67.932  1.00  0.00     0.000 HD 
HETATM    4  C   UNL     2     -10.278  10.927  68.366  1.00  0.00    -0.178 C  
HETATM    5  O   UNL     2      -9.523  13.251  68.439  1.00  0.00    -0.214 OA 
HETATM    6  O   UNL     2      -9.886   9.771  68.117  1.00  0.00    -0.144 OA 
HETATM    7  O   UNL     2     -11.200  11.200  69.226  1.00  0.00    -0.225 OA 
ENDROOT
BRANCH   2   8
HETATM    8  C   UNL     2     -10.702  12.598  66.462  1.00  0.00    -0.250 C  
HETATM    9  H   UNL     2     -12.511  12.089  65.906  1.00  0.00     0.000 HD 
HETATM   10  O   UNL     2     -11.911  11.784  66.577  1.00  0.00    -0.545 OA 
BRANCH   8  11
HETATM   11  C   UNL     2     -11.181  14.081  66.455  1.00  0.00    -0.319 C  
HETATM   12  H   UNL     2     -12.535  15.088  67.426  1.00  0.00     0.000 HD 
HETATM   13  O   UNL     2     -12.243  14.184  67.431  1.00  0.00    -0.380 OA 
BRANCH  11  14
HETATM   14  C   UNL     2     -11.659  14.706  65.136  1.00  0.00    -0.371 C  
HETATM   15  C   UNL     2     -10.969  15.988  64.680  1.00  0.00    -0.278 C  
HETATM   16  O   UNL     2     -11.694  13.738  64.062  1.00  0.00    -0.547 OA 
HETATM   17  H   UNL     2     -11.989  14.125  63.246  1.00  0.00     0.000 HD 
HETATM   18  O   UNL     2     -10.069  16.556  65.365  1.00  0.00    -0.570 OA 
HETATM   19  O   UNL     2     -11.571  16.761  63.853  1.00  0.00    -1.122 OA 
ENDBRANCH  11  14
ENDBRANCH   8  11
ENDBRANCH   2   8
TORSDOF 3
ENDMDL
MODEL       51
REMARK 921   NORMALIZED FREE ENERGY PREDICTED BY IDOCK:   -4.65 KCAL/MOL
REMARK 922        TOTAL FREE ENERGY PREDICTED BY IDOCK:   -5.94 KCAL/MOL
REMARK 923 INTER-LIGAND FREE ENERGY PREDICTED BY IDOCK:   -5.60 KCAL/MOL
REMARK 924 INTRA-LIGAND FREE ENERGY PREDICTED BY IDOCK:   -0.34 KCAL/MOL
REMARK 927      BINDING AFFINITY PREDICTED BY RF-SCORE:    0.00 PKD
ROOT
HETATM    1 CA   UNL     1     -11.539   8.843  67.391  1.00  0.00    -0.478 Ca 
HETATM    2  C   UNL     2     -10.936  12.622  68.913  1.00  0.00    -0.229 C  
HETATM    3  H   UNL     2     -12.373  13.630  69.851  1.00  0.00     0.000 HD 
HETATM    4  C   UNL     2     -10.424  11.176  68.917  1.00  0.00    -0.207 C  
HETATM    5  O   UNL     2     -12.056  12.735  69.854  1.00  0.00    -0.308 OA 
HETATM    6  O   UNL     2      -9.200  10.957  68.844  1.00  0.00    -0.184 OA 
HETATM    7  O   UNL     2     -11.318  10.246  68.908  1.00  0.00    -0.231 OA 
ENDROOT
BRANCH   2   8
HETATM    8  C   UNL     2     -11.493  13.069  67.553  1.00  0.00    -0.328 C  
HETATM    9  H   UNL     2     -12.365  14.697  66.897  1.00  0.00     0.000 HD 
HETATM   10  O   UNL     2     -12.020  14.420  67.737  1.00  0.00    -0.370 OA 
BRANCH   8  11
HETATM   11  C   UNL     2     -10.560  13.139  66.307  1.00  0.00    -0.284 C  
HETATM   12  H   UNL     2      -8.720  13.701  66.004  1.00  0.00     0.000 HD 
HETATM   13  O   UNL     2      -9.289  13.659  66.763  1.00  0.00    -0.250 OA 
BRANCH  11  14
HETATM   14  C   UNL     2     -11.010  13.941  65.078  1.00  0.00    -0.368 C  
HETATM   15  C   UNL     2     -12.351  13.569  64.453  1.00  0.00    -0.337 C  
HETATM   16  O   UNL     2     -10.935  15.368  65.308  1.00  0.00    -0.353 OA 
HETATM   17  H   UNL     2     -11.213  15.865  64.548  1.00  0.00     0.000 HD 
HETATM   18  O   UNL     2     -13.059  12.614  64.884  1.00  0.00    -0.850 OA 
HETATM   19  O   UNL     2     -12.583  13.892  63.233  1.00  0.00    -0.824 OA 
ENDBRANCH  11  14
ENDBRANCH   8  11
ENDBRANCH   2   8
TORSDOF 3
ENDMDL
MODEL       52
REMARK 921   NORMALIZED FREE ENERGY PREDICTED BY IDOCK:   -4.65 KCAL/MOL
REMARK 922        TOTAL FREE ENERGY PREDICTED BY IDOCK:   -5.94 KCAL/MOL
REMARK 923 INTER-LIGAND FREE ENERGY PREDICTED BY IDOCK:   -5.47 KCAL/MOL
REMARK 924 INTRA-LIGAND FREE ENERGY PREDICTED BY IDOCK:   -0.47 KCAL/MOL
REMARK 927      BINDING AFFINITY PREDICTED BY RF-SCORE:    0.00 PKD
ROOT
HETATM    1 CA   UNL     1     -12.679  16.024  63.696  1.00  0.00    -0.785 Ca 
HETATM    2  C   UNL     2     -10.516  13.806  66.410  1.00  0.00    -0.284 C  
HETATM    3  H   UNL     2     -10.447  11.818  66.341  1.00  0.00     0.000 HD 
HETATM    4  C   UNL     2     -10.443  14.946  65.386  1.00  0.00    -0.384 C  
HETATM    5  O   UNL     2     -10.401  12.524  65.707  1.00  0.00    -0.255 OA 
HETATM    6  O   UNL     2      -9.823  15.988  65.670  1.00  0.00    -0.350 OA 
HETATM    7  O   UNL     2     -11.119  14.790  64.298  1.00  0.00    -0.179 OA 
ENDROOT
BRANCH   2   8
HETATM    8  C   UNL     2     -11.854  13.745  67.163  1.00  0.00    -0.406 C  
HETATM    9  H   UNL     2     -13.558  12.828  66.858  1.00  0.00     0.000 HD 
HETATM   10  O   UNL     2     -12.731  12.866  66.392  1.00  0.00    -0.195 OA 
BRANCH   8  11
HETATM   11  C   UNL     2     -11.906  13.224  68.631  1.00  0.00    -0.345 C  
HETATM   12  H   UNL     2     -11.114  13.795  70.316  1.00  0.00     0.000 HD 
HETATM   13  O   UNL     2     -11.082  14.113  69.421  1.00  0.00    -0.251 OA 
BRANCH  11  14
HETATM   14  C   UNL     2     -11.493  11.775  68.925  1.00  0.00    -0.297 C  
HETATM   15  C   UNL     2     -11.838  11.216  70.303  1.00  0.00    -0.366 C  
HETATM   16  O   UNL     2     -11.928  10.868  67.885  1.00  0.00    -0.735 OA 
HETATM   17  H   UNL     2     -11.673   9.971  68.068  1.00  0.00     0.000 HD 
HETATM   18  O   UNL     2     -12.400  11.912  71.197  1.00  0.00    -0.314 OA 
HETATM   19  O   UNL     2     -11.181  10.209  70.750  1.00  0.00    -0.321 OA 
ENDBRANCH  11  14
ENDBRANCH   8  11
ENDBRANCH   2   8
TORSDOF 3
ENDMDL
MODEL       53
REMARK 921   NORMALIZED FREE ENERGY PREDICTED BY IDOCK:   -4.64 KCAL/MOL
REMARK 922        TOTAL FREE ENERGY PREDICTED BY IDOCK:   -5.93 KCAL/MOL
REMARK 923 INTER-LIGAND FREE ENERGY PREDICTED BY IDOCK:   -5.22 KCAL/MOL
REMARK 924 INTRA-LIGAND FREE ENERGY PREDICTED BY IDOCK:   -0.71 KCAL/MOL
REMARK 927      BINDING AFFINITY PREDICTED BY RF-SCORE:    0.00 PKD
ROOT
HETATM    1 CA   UNL     1     -12.661  12.092  68.262  1.00  0.00    -0.297 Ca 
HETATM    2  C   UNL     2     -11.006  14.301  65.206  1.00  0.00    -0.343 C  
HETATM    3  H   UNL     2      -9.328  13.750  64.286  1.00  0.00     0.000 HD 
HETATM    4  C   UNL     2     -12.278  13.593  65.690  1.00  0.00    -0.454 C  
HETATM    5  O   UNL     2     -10.116  13.312  64.586  1.00  0.00    -0.319 OA 
HETATM    6  O   UNL     2     -13.381  14.159  65.567  1.00  0.00    -0.656 OA 
HETATM    7  O   UNL     2     -12.118  12.463  66.291  1.00  0.00    -0.612 OA 
ENDROOT
BRANCH   2   8
HETATM    8  C   UNL     2     -10.189  14.936  66.341  1.00  0.00    -0.284 C  
HETATM    9  H   UNL     2      -8.607  16.090  66.412  1.00  0.00     0.000 HD 
HETATM   10  O   UNL     2      -9.112  15.697  65.710  1.00  0.00    -0.303 OA 
BRANCH   8  11
HETATM   11  C   UNL     2     -10.871  15.910  67.348  1.00  0.00    -0.291 C  
HETATM   12  H   UNL     2     -11.072  17.844  67.461  1.00  0.00     0.000 HD 
HETATM   13  O   UNL     2     -10.656  17.250  66.848  1.00  0.00    -0.300 OA 
BRANCH  11  14
HETATM   14  C   UNL     2     -10.464  15.864  68.827  1.00  0.00    -0.237 C  
HETATM   15  C   UNL     2     -11.256  14.934  69.742  1.00  0.00    -0.280 C  
HETATM   16  O   UNL     2      -9.042  15.645  68.989  1.00  0.00    -0.204 OA 
HETATM   17  H   UNL     2      -8.790  15.616  69.905  1.00  0.00     0.000 HD 
HETATM   18  O   UNL     2     -12.241  14.254  69.331  1.00  0.00    -0.324 OA 
HETATM   19  O   UNL     2     -11.253  15.150  71.006  1.00  0.00    -0.314 OA 
ENDBRANCH  11  14
ENDBRANCH   8  11
ENDBRANCH   2   8
TORSDOF 3
ENDMDL
MODEL       54
REMARK 921   NORMALIZED FREE ENERGY PREDICTED BY IDOCK:   -4.63 KCAL/MOL
REMARK 922        TOTAL FREE ENERGY PREDICTED BY IDOCK:   -5.92 KCAL/MOL
REMARK 923 INTER-LIGAND FREE ENERGY PREDICTED BY IDOCK:   -5.91 KCAL/MOL
REMARK 924 INTRA-LIGAND FREE ENERGY PREDICTED BY IDOCK:   -0.00 KCAL/MOL
REMARK 927      BINDING AFFINITY PREDICTED BY RF-SCORE:    0.00 PKD
ROOT
HETATM    1 CA   UNL     1     -10.677   7.715  65.973  1.00  0.00    -0.478 Ca 
HETATM    2  C   UNL     2      -9.965  11.769  66.135  1.00  0.00    -0.226 C  
HETATM    3  H   UNL     2      -9.957  12.777  67.852  1.00  0.00     0.000 HD 
HETATM    4  C   UNL     2      -9.416  10.421  65.648  1.00  0.00    -0.211 C  
HETATM    5  O   UNL     2      -9.617  11.943  67.550  1.00  0.00    -0.172 OA 
HETATM    6  O   UNL     2      -8.931  10.332  64.504  1.00  0.00    -0.184 OA 
HETATM    7  O   UNL     2      -9.573   9.413  66.438  1.00  0.00    -0.186 OA 
ENDROOT
BRANCH   2   8
HETATM    8  C   UNL     2     -11.497  11.864  66.073  1.00  0.00    -0.281 C  
HETATM    9  H   UNL     2     -12.922  11.936  67.416  1.00  0.00     0.000 HD 
HETATM   10  O   UNL     2     -11.975  11.877  67.454  1.00  0.00    -0.603 OA 
BRANCH   8  11
HETATM   11  C   UNL     2     -12.180  13.075  65.370  1.00  0.00    -0.471 C  
HETATM   12  H   UNL     2     -13.483  13.271  63.936  1.00  0.00     0.000 HD 
HETATM   13  O   UNL     2     -13.067  12.532  64.365  1.00  0.00    -0.759 OA 
BRANCH  11  14
HETATM   14  C   UNL     2     -11.304  14.157  64.724  1.00  0.00    -0.371 C  
HETATM   15  C   UNL     2     -10.741  15.240  65.641  1.00  0.00    -0.365 C  
HETATM   16  O   UNL     2     -10.254  13.586  63.908  1.00  0.00    -0.676 OA 
HETATM   17  H   UNL     2      -9.712  14.256  63.509  1.00  0.00     0.000 HD 
HETATM   18  O   UNL     2     -11.007  15.290  66.876  1.00  0.00    -0.320 OA 
HETATM   19  O   UNL     2     -10.372  16.359  65.133  1.00  0.00    -0.610 OA 
ENDBRANCH  11  14
ENDBRANCH   8  11
ENDBRANCH   2   8
TORSDOF 3
ENDMDL
MODEL       55
REMARK 921   NORMALIZED FREE ENERGY PREDICTED BY IDOCK:   -4.63 KCAL/MOL
REMARK 922        TOTAL FREE ENERGY PREDICTED BY IDOCK:   -5.91 KCAL/MOL
REMARK 923 INTER-LIGAND FREE ENERGY PREDICTED BY IDOCK:   -5.91 KCAL/MOL
REMARK 924 INTRA-LIGAND FREE ENERGY PREDICTED BY IDOCK:   -0.01 KCAL/MOL
REMARK 927      BINDING AFFINITY PREDICTED BY RF-SCORE:    0.00 PKD
ROOT
HETATM    1 CA   UNL     1      -9.342  13.356  63.832  1.00  0.00    -0.552 Ca 
HETATM    2  C   UNL     2     -12.253  14.391  66.556  1.00  0.00    -0.332 C  
HETATM    3  H   UNL     2     -11.812  15.135  68.350  1.00  0.00     0.000 HD 
HETATM    4  C   UNL     2     -11.749  14.604  65.123  1.00  0.00    -0.364 C  
HETATM    5  O   UNL     2     -11.500  15.266  67.462  1.00  0.00    -0.333 OA 
HETATM    6  O   UNL     2     -12.563  14.606  64.180  1.00  0.00    -0.766 OA 
HETATM    7  O   UNL     2     -10.471  14.683  64.964  1.00  0.00    -0.393 OA 
ENDROOT
BRANCH   2   8
HETATM    8  C   UNL     2     -12.025  12.964  67.079  1.00  0.00    -0.325 C  
HETATM    9  H   UNL     2     -11.039  11.404  66.422  1.00  0.00     0.000 HD 
HETATM   10  O   UNL     2     -11.180  12.286  66.098  1.00  0.00    -0.296 OA 
BRANCH   8  11
HETATM   11  C   UNL     2     -11.347  12.735  68.463  1.00  0.00    -0.291 C  
HETATM   12  H   UNL     2      -9.506  12.689  69.095  1.00  0.00     0.000 HD 
HETATM   13  O   UNL     2      -9.920  12.828  68.252  1.00  0.00    -0.223 OA 
BRANCH  11  14
HETATM   14  C   UNL     2     -11.649  11.446  69.240  1.00  0.00    -0.317 C  
HETATM   15  C   UNL     2     -12.402  11.585  70.560  1.00  0.00    -0.342 C  
HETATM   16  O   UNL     2     -12.273  10.444  68.402  1.00  0.00    -0.686 OA 
HETATM   17  H   UNL     2     -12.459   9.646  68.883  1.00  0.00     0.000 HD 
HETATM   18  O   UNL     2     -12.735  12.708  71.037  1.00  0.00    -0.324 OA 
HETATM   19  O   UNL     2     -12.319  10.644  71.428  1.00  0.00    -0.362 OA 
ENDBRANCH  11  14
ENDBRANCH   8  11
ENDBRANCH   2   8
TORSDOF 3
ENDMDL
MODEL       56
REMARK 921   NORMALIZED FREE ENERGY PREDICTED BY IDOCK:   -4.61 KCAL/MOL
REMARK 922        TOTAL FREE ENERGY PREDICTED BY IDOCK:   -5.90 KCAL/MOL
REMARK 923 INTER-LIGAND FREE ENERGY PREDICTED BY IDOCK:   -5.50 KCAL/MOL
REMARK 924 INTRA-LIGAND FREE ENERGY PREDICTED BY IDOCK:   -0.40 KCAL/MOL
REMARK 927      BINDING AFFINITY PREDICTED BY RF-SCORE:    0.00 PKD
ROOT
HETATM    1 CA   UNL     1     -10.775  20.104  69.955  1.00  0.00    -0.625 Ca 
HETATM    2  C   UNL     2      -8.396  18.897  66.818  1.00  0.00    -0.281 C  
HETATM    3  H   UNL     2      -9.111  18.655  64.975  1.00  0.00     0.000 HD 
HETATM    4  C   UNL     2      -8.561  19.936  67.934  1.00  0.00    -0.290 C  
HETATM    5  O   UNL     2      -9.213  19.298  65.667  1.00  0.00    -0.294 OA 
HETATM    6  O   UNL     2      -7.574  20.263  68.620  1.00  0.00    -0.114 OA 
HETATM    7  O   UNL     2      -9.759  20.357  68.160  1.00  0.00    -0.278 OA 
ENDROOT
BRANCH   2   8
HETATM    8  C   UNL     2      -8.893  17.496  67.207  1.00  0.00    -0.231 C  
HETATM    9  H   UNL     2      -8.893  16.453  68.866  1.00  0.00     0.000 HD 
HETATM   10  O   UNL     2      -8.586  17.319  68.625  1.00  0.00    -0.269 OA 
BRANCH   8  11
HETATM   11  C   UNL     2     -10.398  17.125  67.045  1.00  0.00    -0.308 C  
HETATM   12  H   UNL     2     -11.925  17.037  68.250  1.00  0.00     0.000 HD 
HETATM   13  O   UNL     2     -11.008  17.263  68.349  1.00  0.00    -0.312 OA 
BRANCH  11  14
HETATM   14  C   UNL     2     -10.772  15.753  66.466  1.00  0.00    -0.283 C  
HETATM   15  C   UNL     2     -11.139  15.695  64.986  1.00  0.00    -0.389 C  
HETATM   16  O   UNL     2      -9.785  14.745  66.786  1.00  0.00    -0.236 OA 
HETATM   17  H   UNL     2     -10.017  13.896  66.428  1.00  0.00     0.000 HD 
HETATM   18  O   UNL     2     -11.182  16.727  64.256  1.00  0.00    -1.163 OA 
HETATM   19  O   UNL     2     -11.839  14.711  64.555  1.00  0.00    -0.427 OA 
ENDBRANCH  11  14
ENDBRANCH   8  11
ENDBRANCH   2   8
TORSDOF 3
ENDMDL
MODEL       57
REMARK 921   NORMALIZED FREE ENERGY PREDICTED BY IDOCK:   -4.60 KCAL/MOL
REMARK 922        TOTAL FREE ENERGY PREDICTED BY IDOCK:   -5.88 KCAL/MOL
REMARK 923 INTER-LIGAND FREE ENERGY PREDICTED BY IDOCK:   -5.78 KCAL/MOL
REMARK 924 INTRA-LIGAND FREE ENERGY PREDICTED BY IDOCK:   -0.10 KCAL/MOL
REMARK 927      BINDING AFFINITY PREDICTED BY RF-SCORE:    0.00 PKD
ROOT
HETATM    1 CA   UNL     1     -11.800   9.312  67.512  1.00  0.00    -0.452 Ca 
HETATM    2  C   UNL     2      -9.323  12.217  65.967  1.00  0.00    -0.170 C  
HETATM    3  H   UNL     2      -7.810  12.986  67.009  1.00  0.00     0.000 HD 
HETATM    4  C   UNL     2      -9.899  10.814  65.737  1.00  0.00    -0.240 C  
HETATM    5  O   UNL     2      -8.168  12.117  66.866  1.00  0.00    -0.177 OA 
HETATM    6  O   UNL     2     -10.314  10.497  64.606  1.00  0.00    -0.344 OA 
HETATM    7  O   UNL     2     -10.005  10.055  66.775  1.00  0.00    -0.191 OA 
ENDROOT
BRANCH   2   8
HETATM    8  C   UNL     2     -10.303  13.176  66.660  1.00  0.00    -0.265 C  
HETATM    9  H   UNL     2     -10.386  14.008  68.431  1.00  0.00     0.000 HD 
HETATM   10  O   UNL     2      -9.780  13.415  68.003  1.00  0.00    -0.209 OA 
BRANCH   8  11
HETATM   11  C   UNL     2     -10.586  14.582  66.052  1.00  0.00    -0.307 C  
HETATM   12  H   UNL     2     -11.743  16.074  66.531  1.00  0.00     0.000 HD 
HETATM   13  O   UNL     2     -11.570  15.216  66.901  1.00  0.00    -0.285 OA 
BRANCH  11  14
HETATM   14  C   UNL     2     -11.052  14.687  64.593  1.00  0.00    -0.334 C  
HETATM   15  C   UNL     2     -12.302  13.905  64.199  1.00  0.00    -0.335 C  
HETATM   16  O   UNL     2     -11.154  16.063  64.157  1.00  0.00    -1.021 OA 
HETATM   17  H   UNL     2     -11.442  16.128  63.254  1.00  0.00     0.000 HD 
HETATM   18  O   UNL     2     -12.920  13.159  65.012  1.00  0.00    -0.729 OA 
HETATM   19  O   UNL     2     -12.495  13.617  62.964  1.00  0.00    -0.719 OA 
ENDBRANCH  11  14
ENDBRANCH   8  11
ENDBRANCH   2   8
TORSDOF 3
ENDMDL
MODEL       58
REMARK 921   NORMALIZED FREE ENERGY PREDICTED BY IDOCK:   -4.56 KCAL/MOL
REMARK 922        TOTAL FREE ENERGY PREDICTED BY IDOCK:   -5.83 KCAL/MOL
REMARK 923 INTER-LIGAND FREE ENERGY PREDICTED BY IDOCK:   -5.10 KCAL/MOL
REMARK 924 INTRA-LIGAND FREE ENERGY PREDICTED BY IDOCK:   -0.73 KCAL/MOL
REMARK 927      BINDING AFFINITY PREDICTED BY RF-SCORE:    0.00 PKD
ROOT
HETATM    1 CA   UNL     1     -10.882  17.970  68.950  1.00  0.00    -0.312 Ca 
HETATM    2  C   UNL     2     -10.008  14.413  67.067  1.00  0.00    -0.257 C  
HETATM    3  H   UNL     2      -8.137  13.827  66.721  1.00  0.00     0.000 HD 
HETATM    4  C   UNL     2     -10.761  15.055  68.239  1.00  0.00    -0.253 C  
HETATM    5  O   UNL     2      -8.604  14.224  67.447  1.00  0.00    -0.188 OA 
HETATM    6  O   UNL     2     -11.923  14.688  68.498  1.00  0.00    -0.315 OA 
HETATM    7  O   UNL     2     -10.165  16.022  68.849  1.00  0.00    -0.210 OA 
ENDROOT
BRANCH   2   8
HETATM    8  C   UNL     2      -9.979  15.289  65.805  1.00  0.00    -0.360 C  
HETATM    9  H   UNL     2     -10.894  15.231  64.074  1.00  0.00     0.000 HD 
HETATM   10  O   UNL     2     -10.912  14.689  64.853  1.00  0.00    -0.374 OA 
BRANCH   8  11
HETATM   11  C   UNL     2     -10.362  16.798  65.889  1.00  0.00    -0.328 C  
HETATM   12  H   UNL     2     -11.284  18.044  64.710  1.00  0.00     0.000 HD 
HETATM   13  O   UNL     2     -11.051  17.125  64.659  1.00  0.00    -1.036 OA 
BRANCH  11  14
HETATM   14  C   UNL     2      -9.259  17.838  66.130  1.00  0.00    -0.115 C  
HETATM   15  C   UNL     2      -9.675  19.167  66.752  1.00  0.00    -0.338 C  
HETATM   16  O   UNL     2      -8.132  17.274  66.841  1.00  0.00    -0.202 OA 
HETATM   17  H   UNL     2      -7.449  17.918  66.990  1.00  0.00     0.000 HD 
HETATM   18  O   UNL     2     -10.880  19.441  67.026  1.00  0.00    -0.476 OA 
HETATM   19  O   UNL     2      -8.921  20.193  66.598  1.00  0.00    -0.338 OA 
ENDBRANCH  11  14
ENDBRANCH   8  11
ENDBRANCH   2   8
TORSDOF 3
ENDMDL
MODEL       59
REMARK 921   NORMALIZED FREE ENERGY PREDICTED BY IDOCK:   -4.56 KCAL/MOL
REMARK 922        TOTAL FREE ENERGY PREDICTED BY IDOCK:   -5.83 KCAL/MOL
REMARK 923 INTER-LIGAND FREE ENERGY PREDICTED BY IDOCK:   -5.10 KCAL/MOL
REMARK 924 INTRA-LIGAND FREE ENERGY PREDICTED BY IDOCK:   -0.73 KCAL/MOL
REMARK 927      BINDING AFFINITY PREDICTED BY RF-SCORE:    0.00 PKD
ROOT
HETATM    1 CA   UNL     1     -11.686  17.396  64.412  1.00  0.00    -0.334 Ca 
HETATM    2  C   UNL     2      -8.579  16.878  67.065  1.00  0.00    -0.205 C  
HETATM    3  H   UNL     2      -6.674  17.086  66.522  1.00  0.00     0.000 HD 
HETATM    4  C   UNL     2      -9.886  17.637  66.803  1.00  0.00    -0.304 C  
HETATM    5  O   UNL     2      -7.484  17.556  66.361  1.00  0.00    -0.244 OA 
HETATM    6  O   UNL     2     -10.714  17.770  67.724  1.00  0.00    -0.390 OA 
HETATM    7  O   UNL     2     -10.096  18.027  65.592  1.00  0.00    -0.551 OA 
ENDROOT
BRANCH   2   8
HETATM    8  C   UNL     2      -8.588  15.440  66.525  1.00  0.00    -0.259 C  
HETATM    9  H   UNL     2      -7.480  13.853  66.832  1.00  0.00     0.000 HD 
HETATM   10  O   UNL     2      -7.474  14.742  67.165  1.00  0.00    -0.179 OA 
BRANCH   8  11
HETATM   11  C   UNL     2      -9.838  14.533  66.730  1.00  0.00    -0.265 C  
HETATM   12  H   UNL     2     -10.152  12.799  67.560  1.00  0.00     0.000 HD 
HETATM   13  O   UNL     2      -9.389  13.352  67.435  1.00  0.00    -0.205 OA 
BRANCH  11  14
HETATM   14  C   UNL     2     -10.655  14.097  65.506  1.00  0.00    -0.326 C  
HETATM   15  C   UNL     2     -12.097  13.660  65.747  1.00  0.00    -0.428 C  
HETATM   16  O   UNL     2     -10.592  15.073  64.439  1.00  0.00    -0.544 OA 
HETATM   17  H   UNL     2     -11.098  14.803  63.682  1.00  0.00     0.000 HD 
HETATM   18  O   UNL     2     -12.606  13.608  66.904  1.00  0.00    -0.233 OA 
HETATM   19  O   UNL     2     -12.678  12.915  64.879  1.00  0.00    -0.637 OA 
ENDBRANCH  11  14
ENDBRANCH   8  11
ENDBRANCH   2   8
TORSDOF 3
ENDMDL
MODEL       60
REMARK 921   NORMALIZED FREE ENERGY PREDICTED BY IDOCK:   -4.54 KCAL/MOL
REMARK 922        TOTAL FREE ENERGY PREDICTED BY IDOCK:   -5.81 KCAL/MOL
REMARK 923 INTER-LIGAND FREE ENERGY PREDICTED BY IDOCK:   -5.05 KCAL/MOL
REMARK 924 INTRA-LIGAND FREE ENERGY PREDICTED BY IDOCK:   -0.76 KCAL/MOL
REMARK 927      BINDING AFFINITY PREDICTED BY RF-SCORE:    0.00 PKD
ROOT
HETATM    1 CA   UNL     1     -13.180  10.450  68.992  1.00  0.00    -0.475 Ca 
HETATM    2  C   UNL     2     -10.359  12.749  67.063  1.00  0.00    -0.234 C  
HETATM    3  H   UNL     2      -8.405  12.448  67.296  1.00  0.00     0.000 HD 
HETATM    4  C   UNL     2     -11.594  11.860  66.868  1.00  0.00    -0.285 C  
HETATM    5  O   UNL     2      -9.170  11.898  67.174  1.00  0.00    -0.174 OA 
HETATM    6  O   UNL     2     -12.494  12.221  66.086  1.00  0.00    -0.466 OA 
HETATM    7  O   UNL     2     -11.671  10.807  67.608  1.00  0.00    -0.538 OA 
ENDROOT
BRANCH   2   8
HETATM    8  C   UNL     2     -10.398  13.573  68.360  1.00  0.00    -0.248 C  
HETATM    9  H   UNL     2      -9.525  15.220  68.965  1.00  0.00     0.000 HD 
HETATM   10  O   UNL     2      -9.501  14.710  68.163  1.00  0.00    -0.200 OA 
BRANCH   8  11
HETATM   11  C   UNL     2     -11.744  14.172  68.869  1.00  0.00    -0.334 C  
HETATM   12  H   UNL     2     -12.730  15.815  68.524  1.00  0.00     0.000 HD 
HETATM   13  O   UNL     2     -11.909  15.451  68.214  1.00  0.00    -0.339 OA 
BRANCH  11  14
HETATM   14  C   UNL     2     -11.958  14.357  70.378  1.00  0.00    -0.325 C  
HETATM   15  C   UNL     2     -12.465  13.153  71.165  1.00  0.00    -0.287 C  
HETATM   16  O   UNL     2     -10.795  14.932  71.020  1.00  0.00    -0.545 OA 
HETATM   17  H   UNL     2     -10.928  15.047  71.954  1.00  0.00     0.000 HD 
HETATM   18  O   UNL     2     -12.748  12.050  70.613  1.00  0.00    -0.200 OA 
HETATM   19  O   UNL     2     -13.044  13.344  72.294  1.00  0.00    -0.396 OA 
ENDBRANCH  11  14
ENDBRANCH   8  11
ENDBRANCH   2   8
TORSDOF 3
ENDMDL
MODEL       61
REMARK 921   NORMALIZED FREE ENERGY PREDICTED BY IDOCK:   -4.52 KCAL/MOL
REMARK 922        TOTAL FREE ENERGY PREDICTED BY IDOCK:   -5.79 KCAL/MOL
REMARK 923 INTER-LIGAND FREE ENERGY PREDICTED BY IDOCK:   -4.94 KCAL/MOL
REMARK 924 INTRA-LIGAND FREE ENERGY PREDICTED BY IDOCK:   -0.85 KCAL/MOL
REMARK 927      BINDING AFFINITY PREDICTED BY RF-SCORE:    0.00 PKD
ROOT
HETATM    1 CA   UNL     1     -11.477  13.596  69.077  1.00  0.00    -0.209 Ca 
HETATM    2  C   UNL     2     -11.862  13.928  64.990  1.00  0.00    -0.373 C  
HETATM    3  H   UNL     2     -13.634  13.879  64.083  1.00  0.00     0.000 HD 
HETATM    4  C   UNL     2     -11.289  14.590  66.250  1.00  0.00    -0.352 C  
HETATM    5  O   UNL     2     -13.279  14.289  64.863  1.00  0.00    -0.550 OA 
HETATM    6  O   UNL     2     -10.134  15.057  66.227  1.00  0.00    -0.257 OA 
HETATM    7  O   UNL     2     -12.021  14.546  67.311  1.00  0.00    -0.405 OA 
ENDROOT
BRANCH   2   8
HETATM    8  C   UNL     2     -11.831  12.393  65.037  1.00  0.00    -0.388 C  
HETATM    9  H   UNL     2     -11.869  10.978  63.682  1.00  0.00     0.000 HD 
HETATM   10  O   UNL     2     -11.889  11.927  63.653  1.00  0.00    -0.457 OA 
BRANCH   8  11
HETATM   11  C   UNL     2     -10.624  11.653  65.689  1.00  0.00    -0.275 C  
HETATM   12  H   UNL     2      -9.459  10.189  65.146  1.00  0.00     0.000 HD 
HETATM   13  O   UNL     2     -10.195  10.640  64.749  1.00  0.00    -0.325 OA 
BRANCH  11  14
HETATM   14  C   UNL     2     -10.801  11.004  67.069  1.00  0.00    -0.279 C  
HETATM   15  C   UNL     2      -9.577  10.950  67.978  1.00  0.00    -0.162 C  
HETATM   16  O   UNL     2     -11.938  11.548  67.779  1.00  0.00    -0.623 OA 
HETATM   17  H   UNL     2     -12.048  11.146  68.633  1.00  0.00     0.000 HD 
HETATM   18  O   UNL     2      -8.442  11.376  67.615  1.00  0.00    -0.124 OA 
HETATM   19  O   UNL     2      -9.540  10.087  68.926  1.00  0.00    -0.165 OA 
ENDBRANCH  11  14
ENDBRANCH   8  11
ENDBRANCH   2   8
TORSDOF 3
ENDMDL
MODEL       62
REMARK 921   NORMALIZED FREE ENERGY PREDICTED BY IDOCK:   -4.52 KCAL/MOL
REMARK 922        TOTAL FREE ENERGY PREDICTED BY IDOCK:   -5.79 KCAL/MOL
REMARK 923 INTER-LIGAND FREE ENERGY PREDICTED BY IDOCK:   -4.99 KCAL/MOL
REMARK 924 INTRA-LIGAND FREE ENERGY PREDICTED BY IDOCK:   -0.80 KCAL/MOL
REMARK 927      BINDING AFFINITY PREDICTED BY RF-SCORE:    0.00 PKD
ROOT
HETATM    1 CA   UNL     1     -14.292   9.294  70.286  1.00  0.00    -0.629 Ca 
HETATM    2  C   UNL     2     -10.900   7.623  71.917  1.00  0.00    -0.233 C  
HETATM    3  H   UNL     2     -10.470   7.771  73.856  1.00  0.00     0.000 HD 
HETATM    4  C   UNL     2     -12.159   7.339  71.088  1.00  0.00    -0.340 C  
HETATM    5  O   UNL     2     -11.250   7.595  73.342  1.00  0.00    -0.314 OA 
HETATM    6  O   UNL     2     -12.075   6.631  70.067  1.00  0.00    -0.280 OA 
HETATM    7  O   UNL     2     -13.241   7.937  71.456  1.00  0.00    -0.332 OA 
ENDROOT
BRANCH   2   8
HETATM    8  C   UNL     2     -10.303   9.017  71.667  1.00  0.00    -0.350 C  
HETATM    9  H   UNL     2      -8.581   9.863  72.062  1.00  0.00     0.000 HD 
HETATM   10  O   UNL     2      -8.949   9.001  72.217  1.00  0.00    -0.360 OA 
BRANCH   8  11
HETATM   11  C   UNL     2     -10.170   9.563  70.214  1.00  0.00    -0.260 C  
HETATM   12  H   UNL     2      -8.717  10.328  69.166  1.00  0.00     0.000 HD 
HETATM   13  O   UNL     2      -8.799   9.995  70.052  1.00  0.00    -0.192 OA 
BRANCH  11  14
HETATM   14  C   UNL     2     -11.102  10.691  69.749  1.00  0.00    -0.295 C  
HETATM   15  C   UNL     2     -11.462  10.735  68.267  1.00  0.00    -0.280 C  
HETATM   16  O   UNL     2     -12.294  10.775  70.565  1.00  0.00    -0.312 OA 
HETATM   17  H   UNL     2     -12.871  11.474  70.277  1.00  0.00     0.000 HD 
HETATM   18  O   UNL     2     -10.988   9.915  67.429  1.00  0.00    -0.269 OA 
HETATM   19  O   UNL     2     -11.869  11.839  67.756  1.00  0.00    -0.541 OA 
ENDBRANCH  11  14
ENDBRANCH   8  11
ENDBRANCH   2   8
TORSDOF 3
ENDMDL
MODEL       63
REMARK 921   NORMALIZED FREE ENERGY PREDICTED BY IDOCK:   -4.51 KCAL/MOL
REMARK 922        TOTAL FREE ENERGY PREDICTED BY IDOCK:   -5.78 KCAL/MOL
REMARK 923 INTER-LIGAND FREE ENERGY PREDICTED BY IDOCK:   -5.48 KCAL/MOL
REMARK 924 INTRA-LIGAND FREE ENERGY PREDICTED BY IDOCK:   -0.30 KCAL/MOL
REMARK 927      BINDING AFFINITY PREDICTED BY RF-SCORE:    0.00 PKD
ROOT
HETATM    1 CA   UNL     1      -7.550  14.293  70.428  1.00  0.00    -0.370 Ca 
HETATM    2  C   UNL     2     -10.745  14.866  67.893  1.00  0.00    -0.265 C  
HETATM    3  H   UNL     2     -12.578  15.251  68.566  1.00  0.00     0.000 HD 
HETATM    4  C   UNL     2      -9.325  15.332  68.240  1.00  0.00    -0.194 C  
HETATM    5  O   UNL     2     -11.699  15.540  68.781  1.00  0.00    -0.348 OA 
HETATM    6  O   UNL     2      -8.502  15.528  67.326  1.00  0.00    -0.167 OA 
HETATM    7  O   UNL     2      -9.032  15.410  69.494  1.00  0.00    -0.263 OA 
ENDROOT
BRANCH   2   8
HETATM    8  C   UNL     2     -10.967  13.362  68.115  1.00  0.00    -0.255 C  
HETATM    9  H   UNL     2     -11.811  12.294  69.523  1.00  0.00     0.000 HD 
HETATM   10  O   UNL     2     -11.674  13.224  69.386  1.00  0.00    -0.290 OA 
BRANCH   8  11
HETATM   11  C   UNL     2     -11.778  12.528  67.078  1.00  0.00    -0.367 C  
HETATM   12  H   UNL     2     -12.338  10.666  66.956  1.00  0.00     0.000 HD 
HETATM   13  O   UNL     2     -11.843  11.175  67.587  1.00  0.00    -0.612 OA 
BRANCH  11  14
HETATM   14  C   UNL     2     -11.307  12.485  65.618  1.00  0.00    -0.335 C  
HETATM   15  C   UNL     2     -12.076  13.334  64.610  1.00  0.00    -0.408 C  
HETATM   16  O   UNL     2      -9.884  12.723  65.503  1.00  0.00    -0.371 OA 
HETATM   17  H   UNL     2      -9.593  12.696  64.599  1.00  0.00     0.000 HD 
HETATM   18  O   UNL     2     -13.090  14.018  64.932  1.00  0.00    -0.693 OA 
HETATM   19  O   UNL     2     -12.012  13.035  63.364  1.00  0.00    -0.542 OA 
ENDBRANCH  11  14
ENDBRANCH   8  11
ENDBRANCH   2   8
TORSDOF 3
ENDMDL
MODEL       64
REMARK 921   NORMALIZED FREE ENERGY PREDICTED BY IDOCK:   -4.50 KCAL/MOL
REMARK 922        TOTAL FREE ENERGY PREDICTED BY IDOCK:   -5.76 KCAL/MOL
REMARK 923 INTER-LIGAND FREE ENERGY PREDICTED BY IDOCK:   -4.86 KCAL/MOL
REMARK 924 INTRA-LIGAND FREE ENERGY PREDICTED BY IDOCK:   -0.91 KCAL/MOL
REMARK 927      BINDING AFFINITY PREDICTED BY RF-SCORE:    0.00 PKD
ROOT
HETATM    1 CA   UNL     1     -11.181  18.268  65.106  1.00  0.00    -0.472 Ca 
HETATM    2  C   UNL     2      -8.401  19.863  67.692  1.00  0.00    -0.321 C  
HETATM    3  H   UNL     2      -6.693  20.664  67.054  1.00  0.00     0.000 HD 
HETATM    4  C   UNL     2      -9.870  19.909  67.252  1.00  0.00    -0.403 C  
HETATM    5  O   UNL     2      -7.603  20.692  66.781  1.00  0.00    -0.267 OA 
HETATM    6  O   UNL     2     -10.768  19.953  68.114  1.00  0.00    -0.313 OA 
HETATM    7  O   UNL     2     -10.098  19.807  65.987  1.00  0.00    -0.450 OA 
ENDROOT
BRANCH   2   8
HETATM    8  C   UNL     2      -7.783  18.458  67.619  1.00  0.00    -0.230 C  
HETATM    9  H   UNL     2      -6.165  17.632  68.351  1.00  0.00     0.000 HD 
HETATM   10  O   UNL     2      -6.546  18.500  68.396  1.00  0.00    -0.215 OA 
BRANCH   8  11
HETATM   11  C   UNL     2      -8.578  17.224  68.141  1.00  0.00    -0.242 C  
HETATM   12  H   UNL     2      -8.116  15.627  69.156  1.00  0.00     0.000 HD 
HETATM   13  O   UNL     2      -7.631  16.380  68.837  1.00  0.00    -0.196 OA 
BRANCH  11  14
HETATM   14  C   UNL     2      -9.367  16.364  67.144  1.00  0.00    -0.218 C  
HETATM   15  C   UNL     2     -10.822  16.056  67.485  1.00  0.00    -0.292 C  
HETATM   16  O   UNL     2      -9.257  16.869  65.792  1.00  0.00    -0.527 OA 
HETATM   17  H   UNL     2      -9.746  16.337  65.175  1.00  0.00     0.000 HD 
HETATM   18  O   UNL     2     -11.364  16.443  68.560  1.00  0.00    -0.371 OA 
HETATM   19  O   UNL     2     -11.389  15.042  66.940  1.00  0.00    -0.341 OA 
ENDBRANCH  11  14
ENDBRANCH   8  11
ENDBRANCH   2   8
TORSDOF 3
ENDMDL
MODEL       65
REMARK 921   NORMALIZED FREE ENERGY PREDICTED BY IDOCK:   -4.49 KCAL/MOL
REMARK 922        TOTAL FREE ENERGY PREDICTED BY IDOCK:   -5.75 KCAL/MOL
REMARK 923 INTER-LIGAND FREE ENERGY PREDICTED BY IDOCK:   -5.38 KCAL/MOL
REMARK 924 INTRA-LIGAND FREE ENERGY PREDICTED BY IDOCK:   -0.37 KCAL/MOL
REMARK 927      BINDING AFFINITY PREDICTED BY RF-SCORE:    0.00 PKD
ROOT
HETATM    1 CA   UNL     1      -8.776  10.900  67.990  1.00  0.00    -0.114 Ca 
HETATM    2  C   UNL     2     -12.022  13.415  67.669  1.00  0.00    -0.322 C  
HETATM    3  H   UNL     2     -12.122  14.848  66.290  1.00  0.00     0.000 HD 
HETATM    4  C   UNL     2     -11.575  11.948  67.700  1.00  0.00    -0.312 C  
HETATM    5  O   UNL     2     -11.846  13.939  66.309  1.00  0.00    -0.367 OA 
HETATM    6  O   UNL     2     -12.219  11.124  68.377  1.00  0.00    -0.610 OA 
HETATM    7  O   UNL     2     -10.481  11.662  67.079  1.00  0.00    -0.211 OA 
ENDROOT
BRANCH   2   8
HETATM    8  C   UNL     2     -11.183  14.329  68.574  1.00  0.00    -0.266 C  
HETATM    9  H   UNL     2     -10.005  15.864  68.261  1.00  0.00     0.000 HD 
HETATM   10  O   UNL     2     -10.524  15.299  67.701  1.00  0.00    -0.254 OA 
BRANCH   8  11
HETATM   11  C   UNL     2     -11.868  15.161  69.700  1.00  0.00    -0.334 C  
HETATM   12  H   UNL     2     -11.468  16.844  70.595  1.00  0.00     0.000 HD 
HETATM   13  O   UNL     2     -11.051  16.336  69.910  1.00  0.00    -0.336 OA 
BRANCH  11  14
HETATM   14  C   UNL     2     -12.142  14.501  71.058  1.00  0.00    -0.344 C  
HETATM   15  C   UNL     2     -13.445  14.867  71.764  1.00  0.00    -0.388 C  
HETATM   16  O   UNL     2     -11.982  13.064  71.001  1.00  0.00    -0.427 OA 
HETATM   17  H   UNL     2     -12.152  12.655  71.842  1.00  0.00     0.000 HD 
HETATM   18  O   UNL     2     -14.259  15.712  71.290  1.00  0.00    -0.540 OA 
HETATM   19  O   UNL     2     -13.538  14.694  73.031  1.00  0.00    -0.561 OA 
ENDBRANCH  11  14
ENDBRANCH   8  11
ENDBRANCH   2   8
TORSDOF 3
ENDMDL
MODEL       66
REMARK 921   NORMALIZED FREE ENERGY PREDICTED BY IDOCK:   -4.49 KCAL/MOL
REMARK 922        TOTAL FREE ENERGY PREDICTED BY IDOCK:   -5.75 KCAL/MOL
REMARK 923 INTER-LIGAND FREE ENERGY PREDICTED BY IDOCK:   -5.20 KCAL/MOL
REMARK 924 INTRA-LIGAND FREE ENERGY PREDICTED BY IDOCK:   -0.55 KCAL/MOL
REMARK 927      BINDING AFFINITY PREDICTED BY RF-SCORE:    0.00 PKD
ROOT
HETATM    1 CA   UNL     1     -11.913  15.914  63.036  1.00  0.00    -0.814 Ca 
HETATM    2  C   UNL     2     -11.738  12.990  65.931  1.00  0.00    -0.394 C  
HETATM    3  H   UNL     2     -11.885  13.408  67.872  1.00  0.00     0.000 HD 
HETATM    4  C   UNL     2     -12.454  13.442  64.651  1.00  0.00    -0.331 C  
HETATM    5  O   UNL     2     -12.328  13.687  67.080  1.00  0.00    -0.355 OA 
HETATM    6  O   UNL     2     -12.697  12.609  63.757  1.00  0.00    -0.690 OA 
HETATM    7  O   UNL     2     -12.690  14.704  64.536  1.00  0.00    -0.619 OA 
ENDROOT
BRANCH   2   8
HETATM    8  C   UNL     2     -10.244  13.347  65.955  1.00  0.00    -0.299 C  
HETATM    9  H   UNL     2      -9.203  14.843  66.672  1.00  0.00     0.000 HD 
HETATM   10  O   UNL     2     -10.127  14.623  66.658  1.00  0.00    -0.261 OA 
BRANCH   8  11
HETATM   11  C   UNL     2      -9.219  12.388  66.631  1.00  0.00    -0.218 C  
HETATM   12  H   UNL     2      -8.341  10.730  66.107  1.00  0.00     0.000 HD 
HETATM   13  O   UNL     2      -8.967  11.315  65.695  1.00  0.00    -0.207 OA 
BRANCH  11  14
HETATM   14  C   UNL     2      -9.554  11.780  68.001  1.00  0.00    -0.187 C  
HETATM   15  C   UNL     2      -8.451  10.996  68.706  1.00  0.00    -0.144 C  
HETATM   16  O   UNL     2     -10.136  12.756  68.896  1.00  0.00    -0.412 OA 
HETATM   17  H   UNL     2     -10.343  12.380  69.744  1.00  0.00     0.000 HD 
HETATM   18  O   UNL     2      -7.315  10.803  68.184  1.00  0.00    -0.085 OA 
HETATM   19  O   UNL     2      -8.771  10.143  69.609  1.00  0.00    -0.186 OA 
ENDBRANCH  11  14
ENDBRANCH   8  11
ENDBRANCH   2   8
TORSDOF 3
ENDMDL
MODEL       67
REMARK 921   NORMALIZED FREE ENERGY PREDICTED BY IDOCK:   -4.47 KCAL/MOL
REMARK 922        TOTAL FREE ENERGY PREDICTED BY IDOCK:   -5.73 KCAL/MOL
REMARK 923 INTER-LIGAND FREE ENERGY PREDICTED BY IDOCK:   -4.99 KCAL/MOL
REMARK 924 INTRA-LIGAND FREE ENERGY PREDICTED BY IDOCK:   -0.75 KCAL/MOL
REMARK 927      BINDING AFFINITY PREDICTED BY RF-SCORE:    0.00 PKD
ROOT
HETATM    1 CA   UNL     1     -11.370  16.962  69.563  1.00  0.00    -0.282 Ca 
HETATM    2  C   UNL     2     -10.031  16.022  65.784  1.00  0.00    -0.351 C  
HETATM    3  H   UNL     2     -11.173  16.241  64.168  1.00  0.00     0.000 HD 
HETATM    4  C   UNL     2      -9.739  16.846  67.045  1.00  0.00    -0.253 C  
HETATM    5  O   UNL     2     -10.992  16.751  64.948  1.00  0.00    -0.659 OA 
HETATM    6  O   UNL     2      -8.580  16.885  67.498  1.00  0.00    -0.199 OA 
HETATM    7  O   UNL     2     -10.753  17.392  67.626  1.00  0.00    -0.363 OA 
ENDROOT
BRANCH   2   8
HETATM    8  C   UNL     2     -10.687  14.664  66.078  1.00  0.00    -0.312 C  
HETATM    9  H   UNL     2     -10.930  13.009  65.059  1.00  0.00     0.000 HD 
HETATM   10  O   UNL     2     -10.524  13.848  64.876  1.00  0.00    -0.386 OA 
BRANCH   8  11
HETATM   11  C   UNL     2     -10.181  13.789  67.264  1.00  0.00    -0.253 C  
HETATM   12  H   UNL     2      -8.795  12.438  67.475  1.00  0.00     0.000 HD 
HETATM   13  O   UNL     2      -9.104  12.971  66.752  1.00  0.00    -0.230 OA 
BRANCH  11  14
HETATM   14  C   UNL     2     -11.177  12.888  68.007  1.00  0.00    -0.268 C  
HETATM   15  C   UNL     2     -11.900  13.487  69.209  1.00  0.00    -0.341 C  
HETATM   16  O   UNL     2     -12.121  12.267  67.103  1.00  0.00    -0.560 OA 
HETATM   17  H   UNL     2     -12.737  11.709  67.563  1.00  0.00     0.000 HD 
HETATM   18  O   UNL     2     -11.673  14.661  69.623  1.00  0.00    -0.278 OA 
HETATM   19  O   UNL     2     -12.401  12.702  70.092  1.00  0.00    -0.250 OA 
ENDBRANCH  11  14
ENDBRANCH   8  11
ENDBRANCH   2   8
TORSDOF 3
ENDMDL
MODEL       68
REMARK 921   NORMALIZED FREE ENERGY PREDICTED BY IDOCK:   -4.45 KCAL/MOL
REMARK 922        TOTAL FREE ENERGY PREDICTED BY IDOCK:   -5.70 KCAL/MOL
REMARK 923 INTER-LIGAND FREE ENERGY PREDICTED BY IDOCK:   -5.07 KCAL/MOL
REMARK 924 INTRA-LIGAND FREE ENERGY PREDICTED BY IDOCK:   -0.63 KCAL/MOL
REMARK 927      BINDING AFFINITY PREDICTED BY RF-SCORE:    0.00 PKD
ROOT
HETATM    1 CA   UNL     1      -9.354   8.467  66.448  1.00  0.00    -0.131 Ca 
HETATM    2  C   UNL     2     -10.973  12.121  67.445  1.00  0.00    -0.260 C  
HETATM    3  H   UNL     2     -12.843  12.309  68.104  1.00  0.00     0.000 HD 
HETATM    4  C   UNL     2      -9.807  11.157  67.703  1.00  0.00    -0.174 C  
HETATM    5  O   UNL     2     -12.120  11.713  68.264  1.00  0.00    -0.552 OA 
HETATM    6  O   UNL     2      -8.645  11.602  67.764  1.00  0.00    -0.134 OA 
HETATM    7  O   UNL     2     -10.096   9.901  67.757  1.00  0.00    -0.162 OA 
ENDROOT
BRANCH   2   8
HETATM    8  C   UNL     2     -11.475  12.099  65.993  1.00  0.00    -0.370 C  
HETATM    9  H   UNL     2     -12.940  12.979  65.035  1.00  0.00     0.000 HD 
HETATM   10  O   UNL     2     -12.630  12.993  65.932  1.00  0.00    -0.480 OA 
BRANCH   8  11
HETATM   11  C   UNL     2     -10.533  12.535  64.831  1.00  0.00    -0.303 C  
HETATM   12  H   UNL     2     -10.317  14.159  63.779  1.00  0.00     0.000 HD 
HETATM   13  O   UNL     2     -10.892  13.893  64.487  1.00  0.00    -0.398 OA 
BRANCH  11  14
HETATM   14  C   UNL     2     -10.489  11.694  63.547  1.00  0.00    -0.443 C  
HETATM   15  C   UNL     2      -9.612  10.446  63.558  1.00  0.00    -0.310 C  
HETATM   16  O   UNL     2     -11.816  11.379  63.064  1.00  0.00    -0.903 OA 
HETATM   17  H   UNL     2     -11.789  10.859  62.269  1.00  0.00     0.000 HD 
HETATM   18  O   UNL     2      -8.905  10.121  64.556  1.00  0.00    -0.172 OA 
HETATM   19  O   UNL     2      -9.211   9.955  62.442  1.00  0.00    -0.278 OA 
ENDBRANCH  11  14
ENDBRANCH   8  11
ENDBRANCH   2   8
TORSDOF 3
ENDMDL
MODEL       69
REMARK 921   NORMALIZED FREE ENERGY PREDICTED BY IDOCK:   -4.43 KCAL/MOL
REMARK 922        TOTAL FREE ENERGY PREDICTED BY IDOCK:   -5.69 KCAL/MOL
REMARK 923 INTER-LIGAND FREE ENERGY PREDICTED BY IDOCK:   -5.45 KCAL/MOL
REMARK 924 INTRA-LIGAND FREE ENERGY PREDICTED BY IDOCK:   -0.24 KCAL/MOL
REMARK 927      BINDING AFFINITY PREDICTED BY RF-SCORE:    0.00 PKD
ROOT
HETATM    1 CA   UNL     1      -9.652  11.818  69.512  1.00  0.00    -0.383 Ca 
HETATM    2  C   UNL     2     -11.659  13.267  66.220  1.00  0.00    -0.346 C  
HETATM    3  H   UNL     2     -12.004  12.148  64.610  1.00  0.00     0.000 HD 
HETATM    4  C   UNL     2     -11.732  13.061  67.739  1.00  0.00    -0.359 C  
HETATM    5  O   UNL     2     -12.049  12.021  65.550  1.00  0.00    -0.479 OA 
HETATM    6  O   UNL     2     -12.158  13.981  68.464  1.00  0.00    -0.357 OA 
HETATM    7  O   UNL     2     -11.255  11.954  68.196  1.00  0.00    -0.221 OA 
ENDROOT
BRANCH   2   8
HETATM    8  C   UNL     2     -10.244  13.582  65.713  1.00  0.00    -0.297 C  
HETATM    9  H   UNL     2      -9.425  13.733  63.939  1.00  0.00     0.000 HD 
HETATM   10  O   UNL     2     -10.300  13.539  64.253  1.00  0.00    -0.406 OA 
BRANCH   8  11
HETATM   11  C   UNL     2      -9.563  14.935  66.077  1.00  0.00    -0.313 C  
HETATM   12  H   UNL     2      -8.840  15.709  67.711  1.00  0.00     0.000 HD 
HETATM   13  O   UNL     2      -9.256  14.884  67.489  1.00  0.00    -0.187 OA 
BRANCH  11  14
HETATM   14  C   UNL     2     -10.300  16.248  65.778  1.00  0.00    -0.374 C  
HETATM   15  C   UNL     2      -9.489  17.539  65.856  1.00  0.00     0.031 C  
HETATM   16  O   UNL     2     -11.033  16.183  64.532  1.00  0.00    -0.858 OA 
HETATM   17  H   UNL     2     -11.489  16.996  64.347  1.00  0.00     0.000 HD 
HETATM   18  O   UNL     2      -8.270  17.556  66.195  1.00  0.00    -0.426 OA 
HETATM   19  O   UNL     2     -10.103  18.652  66.030  1.00  0.00    -0.475 OA 
ENDBRANCH  11  14
ENDBRANCH   8  11
ENDBRANCH   2   8
TORSDOF 3
ENDMDL
MODEL       70
REMARK 921   NORMALIZED FREE ENERGY PREDICTED BY IDOCK:   -4.43 KCAL/MOL
REMARK 922        TOTAL FREE ENERGY PREDICTED BY IDOCK:   -5.68 KCAL/MOL
REMARK 923 INTER-LIGAND FREE ENERGY PREDICTED BY IDOCK:   -5.35 KCAL/MOL
REMARK 924 INTRA-LIGAND FREE ENERGY PREDICTED BY IDOCK:   -0.33 KCAL/MOL
REMARK 927      BINDING AFFINITY PREDICTED BY RF-SCORE:    0.00 PKD
ROOT
HETATM    1 CA   UNL     1     -12.815  16.068  63.458  1.00  0.00    -0.786 Ca 
HETATM    2  C   UNL     2     -11.288  13.579  66.363  1.00  0.00    -0.316 C  
HETATM    3  H   UNL     2     -12.422  12.820  67.813  1.00  0.00     0.000 HD 
HETATM    4  C   UNL     2     -11.434  13.794  64.851  1.00  0.00    -0.343 C  
HETATM    5  O   UNL     2     -12.512  12.953  66.877  1.00  0.00    -0.308 OA 
HETATM    6  O   UNL     2     -10.453  13.607  64.106  1.00  0.00    -0.305 OA 
HETATM    7  O   UNL     2     -12.567  14.253  64.438  1.00  0.00    -0.665 OA 
ENDROOT
BRANCH   2   8
HETATM    8  C   UNL     2     -11.132  14.887  67.155  1.00  0.00    -0.332 C  
HETATM    9  H   UNL     2     -12.062  15.684  68.683  1.00  0.00     0.000 HD 
HETATM   10  O   UNL     2     -12.159  14.876  68.194  1.00  0.00    -0.243 OA 
BRANCH   8  11
HETATM   11  C   UNL     2      -9.791  15.209  67.880  1.00  0.00    -0.216 C  
HETATM   12  H   UNL     2      -8.547  14.187  68.977  1.00  0.00     0.000 HD 
HETATM   13  O   UNL     2      -9.365  13.991  68.535  1.00  0.00    -0.206 OA 
BRANCH  11  14
HETATM   14  C   UNL     2      -9.746  16.359  68.896  1.00  0.00    -0.257 C  
HETATM   15  C   UNL     2     -10.162  17.742  68.405  1.00  0.00    -0.384 C  
HETATM   16  O   UNL     2     -10.441  16.023  70.120  1.00  0.00    -0.280 OA 
HETATM   17  H   UNL     2     -10.413  16.735  70.749  1.00  0.00     0.000 HD 
HETATM   18  O   UNL     2     -10.491  17.966  67.204  1.00  0.00    -0.360 OA 
HETATM   19  O   UNL     2      -9.764  18.779  69.047  1.00  0.00    -0.350 OA 
ENDBRANCH  11  14
ENDBRANCH   8  11
ENDBRANCH   2   8
TORSDOF 3
ENDMDL
MODEL       71
REMARK 921   NORMALIZED FREE ENERGY PREDICTED BY IDOCK:   -4.41 KCAL/MOL
REMARK 922        TOTAL FREE ENERGY PREDICTED BY IDOCK:   -5.66 KCAL/MOL
REMARK 923 INTER-LIGAND FREE ENERGY PREDICTED BY IDOCK:   -5.39 KCAL/MOL
REMARK 924 INTRA-LIGAND FREE ENERGY PREDICTED BY IDOCK:   -0.27 KCAL/MOL
REMARK 927      BINDING AFFINITY PREDICTED BY RF-SCORE:    0.00 PKD
ROOT
HETATM    1 CA   UNL     1     -12.105  10.953  67.379  1.00  0.00    -0.236 Ca 
HETATM    2  C   UNL     2     -11.411  13.923  64.611  1.00  0.00    -0.377 C  
HETATM    3  H   UNL     2      -9.572  14.490  64.102  1.00  0.00     0.000 HD 
HETATM    4  C   UNL     2     -12.121  12.585  64.858  1.00  0.00    -0.440 C  
HETATM    5  O   UNL     2     -10.012  13.662  64.255  1.00  0.00    -0.233 OA 
HETATM    6  O   UNL     2     -13.294  12.431  64.471  1.00  0.00    -0.800 OA 
HETATM    7  O   UNL     2     -11.475  11.707  65.548  1.00  0.00    -0.236 OA 
ENDROOT
BRANCH   2   8
HETATM    8  C   UNL     2     -11.359  14.827  65.852  1.00  0.00    -0.331 C  
HETATM    9  H   UNL     2     -10.282  14.849  67.488  1.00  0.00     0.000 HD 
HETATM   10  O   UNL     2     -10.314  14.289  66.721  1.00  0.00    -0.268 OA 
BRANCH   8  11
HETATM   11  C   UNL     2     -11.054  16.347  65.702  1.00  0.00     0.055 C  
HETATM   12  H   UNL     2     -11.013  17.596  64.208  1.00  0.00     0.000 HD 
HETATM   13  O   UNL     2     -11.198  16.669  64.300  1.00  0.00    -1.098 OA 
BRANCH  11  14
HETATM   14  C   UNL     2      -9.708  16.893  66.199  1.00  0.00    -0.272 C  
HETATM   15  C   UNL     2      -9.647  17.403  67.636  1.00  0.00    -0.261 C  
HETATM   16  O   UNL     2      -8.624  15.970  65.941  1.00  0.00    -0.270 OA 
HETATM   17  H   UNL     2      -7.790  16.308  66.248  1.00  0.00     0.000 HD 
HETATM   18  O   UNL     2     -10.662  17.427  68.391  1.00  0.00    -0.358 OA 
HETATM   19  O   UNL     2      -8.720  18.225  67.968  1.00  0.00    -0.263 OA 
ENDBRANCH  11  14
ENDBRANCH   8  11
ENDBRANCH   2   8
TORSDOF 3
ENDMDL
MODEL       72
REMARK 921   NORMALIZED FREE ENERGY PREDICTED BY IDOCK:   -4.40 KCAL/MOL
REMARK 922        TOTAL FREE ENERGY PREDICTED BY IDOCK:   -5.64 KCAL/MOL
REMARK 923 INTER-LIGAND FREE ENERGY PREDICTED BY IDOCK:   -5.02 KCAL/MOL
REMARK 924 INTRA-LIGAND FREE ENERGY PREDICTED BY IDOCK:   -0.62 KCAL/MOL
REMARK 927      BINDING AFFINITY PREDICTED BY RF-SCORE:    0.00 PKD
ROOT
HETATM    1 CA   UNL     1     -12.260  11.131  63.487  1.00  0.00    -0.509 Ca 
HETATM    2  C   UNL     2     -11.347  13.851  66.442  1.00  0.00    -0.328 C  
HETATM    3  H   UNL     2      -9.516  14.601  66.664  1.00  0.00     0.000 HD 
HETATM    4  C   UNL     2     -12.278  13.555  65.259  1.00  0.00    -0.441 C  
HETATM    5  O   UNL     2     -10.093  14.418  65.932  1.00  0.00    -0.296 OA 
HETATM    6  O   UNL     2     -13.500  13.772  65.369  1.00  0.00    -0.620 OA 
HETATM    7  O   UNL     2     -11.741  13.003  64.224  1.00  0.00    -0.346 OA 
ENDROOT
BRANCH   2   8
HETATM    8  C   UNL     2     -10.941  12.596  67.229  1.00  0.00    -0.256 C  
HETATM    9  H   UNL     2     -11.814  11.490  68.590  1.00  0.00     0.000 HD 
HETATM   10  O   UNL     2     -12.065  12.265  68.104  1.00  0.00    -0.407 OA 
BRANCH   8  11
HETATM   11  C   UNL     2     -10.580  11.280  66.477  1.00  0.00    -0.266 C  
HETATM   12  H   UNL     2     -10.727   9.382  66.889  1.00  0.00     0.000 HD 
HETATM   13  O   UNL     2     -10.946  10.185  67.348  1.00  0.00    -0.292 OA 
BRANCH  11  14
HETATM   14  C   UNL     2      -9.140  11.066  65.991  1.00  0.00    -0.195 C  
HETATM   15  C   UNL     2      -8.946  10.677  64.529  1.00  0.00    -0.196 C  
HETATM   16  O   UNL     2      -8.282  12.178  66.340  1.00  0.00    -0.391 OA 
HETATM   17  H   UNL     2      -7.391  12.046  66.039  1.00  0.00     0.000 HD 
HETATM   18  O   UNL     2      -9.918  10.489  63.741  1.00  0.00    -0.323 OA 
HETATM   19  O   UNL     2      -7.858  10.095  64.176  1.00  0.00    -0.151 OA 
ENDBRANCH  11  14
ENDBRANCH   8  11
ENDBRANCH   2   8
TORSDOF 3
ENDMDL
MODEL       73
REMARK 921   NORMALIZED FREE ENERGY PREDICTED BY IDOCK:   -4.38 KCAL/MOL
REMARK 922        TOTAL FREE ENERGY PREDICTED BY IDOCK:   -5.63 KCAL/MOL
REMARK 923 INTER-LIGAND FREE ENERGY PREDICTED BY IDOCK:   -5.44 KCAL/MOL
REMARK 924 INTRA-LIGAND FREE ENERGY PREDICTED BY IDOCK:   -0.18 KCAL/MOL
REMARK 927      BINDING AFFINITY PREDICTED BY RF-SCORE:    0.00 PKD
ROOT
HETATM    1 CA   UNL     1     -13.182  11.031  62.590  1.00  0.00    -0.704 Ca 
HETATM    2  C   UNL     2     -11.057  13.162  65.401  1.00  0.00    -0.278 C  
HETATM    3  H   UNL     2      -9.216  12.645  65.957  1.00  0.00     0.000 HD 
HETATM    4  C   UNL     2     -11.820  13.258  64.073  1.00  0.00    -0.455 C  
HETATM    5  O   UNL     2      -9.689  12.705  65.135  1.00  0.00    -0.144 OA 
HETATM    6  O   UNL     2     -12.612  14.201  63.886  1.00  0.00    -0.752 OA 
HETATM    7  O   UNL     2     -11.659  12.284  63.243  1.00  0.00    -0.424 OA 
ENDROOT
BRANCH   2   8
HETATM    8  C   UNL     2     -11.652  12.134  66.376  1.00  0.00    -0.364 C  
HETATM    9  H   UNL     2     -11.559  10.184  66.538  1.00  0.00     0.000 HD 
HETATM   10  O   UNL     2     -11.191  10.819  65.935  1.00  0.00     0.080 OA 
BRANCH   8  11
HETATM   11  C   UNL     2     -11.327  12.216  67.898  1.00  0.00    -0.300 C  
HETATM   12  H   UNL     2     -12.052  11.381  69.500  1.00  0.00     0.000 HD 
HETATM   13  O   UNL     2     -12.251  11.331  68.573  1.00  0.00    -0.588 OA 
BRANCH  11  14
HETATM   14  C   UNL     2     -11.351  13.583  68.596  1.00  0.00    -0.288 C  
HETATM   15  C   UNL     2     -10.047  14.375  68.627  1.00  0.00    -0.242 C  
HETATM   16  O   UNL     2     -12.438  14.411  68.122  1.00  0.00    -0.579 OA 
HETATM   17  H   UNL     2     -12.453  15.258  68.555  1.00  0.00     0.000 HD 
HETATM   18  O   UNL     2      -8.968  13.926  68.144  1.00  0.00    -0.173 OA 
HETATM   19  O   UNL     2      -9.890  15.285  69.517  1.00  0.00    -0.234 OA 
ENDBRANCH  11  14
ENDBRANCH   8  11
ENDBRANCH   2   8
TORSDOF 3
ENDMDL
MODEL       74
REMARK 921   NORMALIZED FREE ENERGY PREDICTED BY IDOCK:   -4.38 KCAL/MOL
REMARK 922        TOTAL FREE ENERGY PREDICTED BY IDOCK:   -5.62 KCAL/MOL
REMARK 923 INTER-LIGAND FREE ENERGY PREDICTED BY IDOCK:   -5.27 KCAL/MOL
REMARK 924 INTRA-LIGAND FREE ENERGY PREDICTED BY IDOCK:   -0.36 KCAL/MOL
REMARK 927      BINDING AFFINITY PREDICTED BY RF-SCORE:    0.00 PKD
ROOT
HETATM    1 CA   UNL     1     -10.930  19.850  69.369  1.00  0.00    -0.533 Ca 
HETATM    2  C   UNL     2      -9.425  17.534  66.313  1.00  0.00    -0.219 C  
HETATM    3  H   UNL     2     -10.603  16.629  64.989  1.00  0.00     0.000 HD 
HETATM    4  C   UNL     2      -9.373  18.917  66.976  1.00  0.00    -0.303 C  
HETATM    5  O   UNL     2     -10.571  17.485  65.399  1.00  0.00    -0.648 OA 
HETATM    6  O   UNL     2      -8.272  19.466  67.167  1.00  0.00    -0.261 OA 
HETATM    7  O   UNL     2     -10.495  19.404  67.386  1.00  0.00    -0.407 OA 
ENDROOT
BRANCH   2   8
HETATM    8  C   UNL     2      -9.643  16.386  67.310  1.00  0.00    -0.234 C  
HETATM    9  H   UNL     2      -9.118  16.066  69.170  1.00  0.00     0.000 HD 
HETATM   10  O   UNL     2      -8.982  16.776  68.554  1.00  0.00    -0.227 OA 
BRANCH   8  11
HETATM   11  C   UNL     2     -11.088  15.957  67.708  1.00  0.00    -0.288 C  
HETATM   12  H   UNL     2     -12.204  16.200  69.285  1.00  0.00     0.000 HD 
HETATM   13  O   UNL     2     -11.323  16.462  69.043  1.00  0.00    -0.317 OA 
BRANCH  11  14
HETATM   14  C   UNL     2     -11.464  14.469  67.668  1.00  0.00    -0.353 C  
HETATM   15  C   UNL     2     -11.798  13.869  66.305  1.00  0.00    -0.408 C  
HETATM   16  O   UNL     2     -10.495  13.649  68.362  1.00  0.00    -0.235 OA 
HETATM   17  H   UNL     2     -10.729  12.728  68.337  1.00  0.00     0.000 HD 
HETATM   18  O   UNL     2     -11.814  14.558  65.245  1.00  0.00    -0.356 OA 
HETATM   19  O   UNL     2     -12.500  12.796  66.250  1.00  0.00    -0.477 OA 
ENDBRANCH  11  14
ENDBRANCH   8  11
ENDBRANCH   2   8
TORSDOF 3
ENDMDL
MODEL       75
REMARK 921   NORMALIZED FREE ENERGY PREDICTED BY IDOCK:   -4.37 KCAL/MOL
REMARK 922        TOTAL FREE ENERGY PREDICTED BY IDOCK:   -5.61 KCAL/MOL
REMARK 923 INTER-LIGAND FREE ENERGY PREDICTED BY IDOCK:   -5.38 KCAL/MOL
REMARK 924 INTRA-LIGAND FREE ENERGY PREDICTED BY IDOCK:   -0.23 KCAL/MOL
REMARK 927      BINDING AFFINITY PREDICTED BY RF-SCORE:    0.00 PKD
ROOT
HETATM    1 CA   UNL     1     -13.346  11.018  70.342  1.00  0.00    -0.274 Ca 
HETATM    2  C   UNL     2      -9.970  11.165  67.988  1.00  0.00    -0.176 C  
HETATM    3  H   UNL     2      -8.895  12.828  67.777  1.00  0.00     0.000 HD 
HETATM    4  C   UNL     2     -10.651  10.436  69.153  1.00  0.00    -0.228 C  
HETATM    5  O   UNL     2      -9.316  12.376  68.498  1.00  0.00    -0.178 OA 
HETATM    6  O   UNL     2     -10.624   9.191  69.199  1.00  0.00    -0.223 OA 
HETATM    7  O   UNL     2     -11.303  11.168  69.991  1.00  0.00    -0.279 OA 
ENDROOT
BRANCH   2   8
HETATM    8  C   UNL     2     -10.954  11.651  66.912  1.00  0.00    -0.292 C  
HETATM    9  H   UNL     2     -11.751  13.384  66.465  1.00  0.00     0.000 HD 
HETATM   10  O   UNL     2     -11.143  13.084  67.130  1.00  0.00    -0.260 OA 
BRANCH   8  11
HETATM   11  C   UNL     2     -10.607  11.489  65.401  1.00  0.00    -0.282 C  
HETATM   12  H   UNL     2      -9.015  10.964  64.410  1.00  0.00     0.000 HD 
HETATM   13  O   UNL     2      -9.226  11.064  65.331  1.00  0.00    -0.203 OA 
BRANCH  11  14
HETATM   14  C   UNL     2     -10.806  12.681  64.455  1.00  0.00    -0.336 C  
HETATM   15  C   UNL     2     -12.240  13.129  64.187  1.00  0.00    -0.398 C  
HETATM   16  O   UNL     2      -9.982  13.810  64.830  1.00  0.00    -0.617 OA 
HETATM   17  H   UNL     2     -10.106  14.548  64.244  1.00  0.00     0.000 HD 
HETATM   18  O   UNL     2     -13.241  12.531  64.677  1.00  0.00    -0.848 OA 
HETATM   19  O   UNL     2     -12.495  13.809  63.129  1.00  0.00    -0.786 OA 
ENDBRANCH  11  14
ENDBRANCH   8  11
ENDBRANCH   2   8
TORSDOF 3
ENDMDL
MODEL       76
REMARK 921   NORMALIZED FREE ENERGY PREDICTED BY IDOCK:   -4.33 KCAL/MOL
REMARK 922        TOTAL FREE ENERGY PREDICTED BY IDOCK:   -5.57 KCAL/MOL
REMARK 923 INTER-LIGAND FREE ENERGY PREDICTED BY IDOCK:   -5.04 KCAL/MOL
REMARK 924 INTRA-LIGAND FREE ENERGY PREDICTED BY IDOCK:   -0.52 KCAL/MOL
REMARK 927      BINDING AFFINITY PREDICTED BY RF-SCORE:    0.00 PKD
ROOT
HETATM    1 CA   UNL     1      -7.248  11.423  64.874  1.00  0.00    -0.340 Ca 
HETATM    2  C   UNL     2     -10.216  12.707  67.424  1.00  0.00    -0.217 C  
HETATM    3  H   UNL     2     -11.482  11.444  68.301  1.00  0.00     0.000 HD 
HETATM    4  C   UNL     2      -8.708  12.736  67.145  1.00  0.00    -0.202 C  
HETATM    5  O   UNL     2     -10.548  11.463  68.129  1.00  0.00    -0.175 OA 
HETATM    6  O   UNL     2      -8.084  13.809  67.253  1.00  0.00    -0.175 OA 
HETATM    7  O   UNL     2      -8.177  11.641  66.720  1.00  0.00    -0.164 OA 
ENDROOT
BRANCH   2   8
HETATM    8  C   UNL     2     -11.074  12.699  66.149  1.00  0.00    -0.292 C  
HETATM    9  H   UNL     2     -12.671  11.718  65.577  1.00  0.00     0.000 HD 
HETATM   10  O   UNL     2     -12.141  11.723  66.365  1.00  0.00    -0.467 OA 
BRANCH   8  11
HETATM   11  C   UNL     2     -11.777  14.004  65.668  1.00  0.00    -0.354 C  
HETATM   12  H   UNL     2     -13.245  14.401  64.453  1.00  0.00     0.000 HD 
HETATM   13  O   UNL     2     -12.817  13.605  64.746  1.00  0.00    -0.680 OA 
BRANCH  11  14
HETATM   14  C   UNL     2     -10.936  15.111  65.017  1.00  0.00    -0.430 C  
HETATM   15  C   UNL     2     -10.456  16.245  65.918  1.00  0.00    -0.345 C  
HETATM   16  O   UNL     2      -9.834  14.570  64.249  1.00  0.00    -0.330 OA 
HETATM   17  H   UNL     2      -9.314  15.256  63.846  1.00  0.00     0.000 HD 
HETATM   18  O   UNL     2     -10.763  16.316  67.143  1.00  0.00    -0.309 OA 
HETATM   19  O   UNL     2     -10.128  17.367  65.388  1.00  0.00    -0.562 OA 
ENDBRANCH  11  14
ENDBRANCH   8  11
ENDBRANCH   2   8
TORSDOF 3
ENDMDL
MODEL       77
REMARK 921   NORMALIZED FREE ENERGY PREDICTED BY IDOCK:   -4.31 KCAL/MOL
REMARK 922        TOTAL FREE ENERGY PREDICTED BY IDOCK:   -5.54 KCAL/MOL
REMARK 923 INTER-LIGAND FREE ENERGY PREDICTED BY IDOCK:   -4.89 KCAL/MOL
REMARK 924 INTRA-LIGAND FREE ENERGY PREDICTED BY IDOCK:   -0.65 KCAL/MOL
REMARK 927      BINDING AFFINITY PREDICTED BY RF-SCORE:    0.00 PKD
ROOT
HETATM    1 CA   UNL     1     -12.404  11.965  67.796  1.00  0.00    -0.307 Ca 
HETATM    2  C   UNL     2     -11.351  13.680  64.202  1.00  0.00    -0.304 C  
HETATM    3  H   UNL     2     -10.153  12.766  62.901  1.00  0.00     0.000 HD 
HETATM    4  C   UNL     2     -12.530  13.265  65.092  1.00  0.00    -0.470 C  
HETATM    5  O   UNL     2     -10.883  12.509  63.451  1.00  0.00    -0.439 OA 
HETATM    6  O   UNL     2     -13.495  14.040  65.234  1.00  0.00    -0.622 OA 
HETATM    7  O   UNL     2     -12.411  12.148  65.726  1.00  0.00    -0.564 OA 
ENDROOT
BRANCH   2   8
HETATM    8  C   UNL     2     -10.131  14.175  64.995  1.00  0.00    -0.294 C  
HETATM    9  H   UNL     2      -9.516  15.930  65.611  1.00  0.00     0.000 HD 
HETATM   10  O   UNL     2     -10.270  15.624  65.121  1.00  0.00    -0.374 OA 
BRANCH   8  11
HETATM   11  C   UNL     2      -9.863  13.642  66.435  1.00  0.00    -0.296 C  
HETATM   12  H   UNL     2      -9.160  14.422  68.075  1.00  0.00     0.000 HD 
HETATM   13  O   UNL     2      -9.323  14.746  67.197  1.00  0.00    -0.208 OA 
BRANCH  11  14
HETATM   14  C   UNL     2      -8.953  12.420  66.623  1.00  0.00    -0.184 C  
HETATM   15  C   UNL     2      -9.144  11.595  67.893  1.00  0.00    -0.171 C  
HETATM   16  O   UNL     2      -8.952  11.564  65.456  1.00  0.00    -0.361 OA 
HETATM   17  H   UNL     2      -8.389  10.807  65.573  1.00  0.00     0.000 HD 
HETATM   18  O   UNL     2      -9.979  11.912  68.789  1.00  0.00    -0.184 OA 
HETATM   19  O   UNL     2      -8.184  10.849  68.303  1.00  0.00    -0.115 OA 
ENDBRANCH  11  14
ENDBRANCH   8  11
ENDBRANCH   2   8
TORSDOF 3
ENDMDL
MODEL       78
REMARK 921   NORMALIZED FREE ENERGY PREDICTED BY IDOCK:   -4.30 KCAL/MOL
REMARK 922        TOTAL FREE ENERGY PREDICTED BY IDOCK:   -5.53 KCAL/MOL
REMARK 923 INTER-LIGAND FREE ENERGY PREDICTED BY IDOCK:   -5.06 KCAL/MOL
REMARK 924 INTRA-LIGAND FREE ENERGY PREDICTED BY IDOCK:   -0.47 KCAL/MOL
REMARK 927      BINDING AFFINITY PREDICTED BY RF-SCORE:    0.00 PKD
ROOT
HETATM    1 CA   UNL     1     -10.802  19.969  70.153  1.00  0.00    -0.617 Ca 
HETATM    2  C   UNL     2      -8.861  18.246  66.955  1.00  0.00    -0.266 C  
HETATM    3  H   UNL     2      -9.802  17.799  65.258  1.00  0.00     0.000 HD 
HETATM    4  C   UNL     2      -8.856  19.430  67.931  1.00  0.00    -0.316 C  
HETATM    5  O   UNL     2      -9.798  18.532  65.863  1.00  0.00    -0.507 OA 
HETATM    6  O   UNL     2      -7.783  19.796  68.448  1.00  0.00    -0.324 OA 
HETATM    7  O   UNL     2     -10.003  19.934  68.235  1.00  0.00    -0.408 OA 
ENDROOT
BRANCH   2   8
HETATM    8  C   UNL     2      -9.352  16.935  67.587  1.00  0.00    -0.233 C  
HETATM    9  H   UNL     2     -11.117  16.169  67.959  1.00  0.00     0.000 HD 
HETATM   10  O   UNL     2     -10.813  16.980  67.569  1.00  0.00    -0.305 OA 
BRANCH   8  11
HETATM   11  C   UNL     2      -8.957  15.565  66.959  1.00  0.00    -0.226 C  
HETATM   12  H   UNL     2      -7.424  14.912  65.951  1.00  0.00     0.000 HD 
HETATM   13  O   UNL     2      -7.665  15.747  66.334  1.00  0.00    -0.111 OA 
BRANCH  11  14
HETATM   14  C   UNL     2      -9.905  14.902  65.950  1.00  0.00    -0.332 C  
HETATM   15  C   UNL     2     -11.047  14.061  66.512  1.00  0.00    -0.314 C  
HETATM   16  O   UNL     2     -10.403  15.849  64.975  1.00  0.00    -0.508 OA 
HETATM   17  H   UNL     2     -10.991  15.439  64.351  1.00  0.00     0.000 HD 
HETATM   18  O   UNL     2     -11.200  13.866  67.753  1.00  0.00    -0.273 OA 
HETATM   19  O   UNL     2     -11.597  13.174  65.765  1.00  0.00    -0.322 OA 
ENDBRANCH  11  14
ENDBRANCH   8  11
ENDBRANCH   2   8
TORSDOF 3
ENDMDL
MODEL       79
REMARK 921   NORMALIZED FREE ENERGY PREDICTED BY IDOCK:   -4.30 KCAL/MOL
REMARK 922        TOTAL FREE ENERGY PREDICTED BY IDOCK:   -5.53 KCAL/MOL
REMARK 923 INTER-LIGAND FREE ENERGY PREDICTED BY IDOCK:   -5.53 KCAL/MOL
REMARK 924 INTRA-LIGAND FREE ENERGY PREDICTED BY IDOCK:   -0.00 KCAL/MOL
REMARK 927      BINDING AFFINITY PREDICTED BY RF-SCORE:    0.00 PKD
ROOT
HETATM    1 CA   UNL     1     -13.057  15.665  63.872  1.00  0.00    -0.626 Ca 
HETATM    2  C   UNL     2     -11.694  12.280  65.782  1.00  0.00    -0.385 C  
HETATM    3  H   UNL     2     -11.632  12.133  67.767  1.00  0.00     0.000 HD 
HETATM    4  C   UNL     2     -12.694  12.817  64.749  1.00  0.00    -0.393 C  
HETATM    5  O   UNL     2     -12.251  12.465  67.127  1.00  0.00    -0.492 OA 
HETATM    6  O   UNL     2     -12.856  12.205  63.676  1.00  0.00    -0.746 OA 
HETATM    7  O   UNL     2     -13.256  13.945  65.021  1.00  0.00    -0.729 OA 
ENDROOT
BRANCH   2   8
HETATM    8  C   UNL     2     -10.354  13.032  65.785  1.00  0.00    -0.286 C  
HETATM    9  H   UNL     2      -9.438  14.206  64.511  1.00  0.00     0.000 HD 
HETATM   10  O   UNL     2     -10.266  13.741  64.509  1.00  0.00    -0.414 OA 
BRANCH   8  11
HETATM   11  C   UNL     2     -10.051  14.092  66.887  1.00  0.00    -0.259 C  
HETATM   12  H   UNL     2     -10.677  15.897  67.260  1.00  0.00     0.000 HD 
HETATM   13  O   UNL     2     -10.861  15.252  66.588  1.00  0.00    -0.308 OA 
BRANCH  11  14
HETATM   14  C   UNL     2      -8.602  14.545  67.111  1.00  0.00    -0.222 C  
HETATM   15  C   UNL     2      -7.542  13.456  67.248  1.00  0.00    -0.062 C  
HETATM   16  O   UNL     2      -8.190  15.536  66.140  1.00  0.00    -0.315 OA 
HETATM   17  H   UNL     2      -7.293  15.816  66.279  1.00  0.00     0.000 HD 
HETATM   18  O   UNL     2      -7.827  12.224  67.227  1.00  0.00    -0.160 OA 
HETATM   19  O   UNL     2      -6.434  13.733  67.834  1.00  0.00    -0.129 OA 
ENDBRANCH  11  14
ENDBRANCH   8  11
ENDBRANCH   2   8
TORSDOF 3
ENDMDL
MODEL       80
REMARK 921   NORMALIZED FREE ENERGY PREDICTED BY IDOCK:   -4.29 KCAL/MOL
REMARK 922        TOTAL FREE ENERGY PREDICTED BY IDOCK:   -5.52 KCAL/MOL
REMARK 923 INTER-LIGAND FREE ENERGY PREDICTED BY IDOCK:   -5.85 KCAL/MOL
REMARK 924 INTRA-LIGAND FREE ENERGY PREDICTED BY IDOCK:    0.33 KCAL/MOL
REMARK 927      BINDING AFFINITY PREDICTED BY RF-SCORE:    0.00 PKD
ROOT
HETATM    1 CA   UNL     1     -13.460  15.828  70.035  1.00  0.00    -0.611 Ca 
HETATM    2  C   UNL     2     -10.409  15.065  67.375  1.00  0.00    -0.238 C  
HETATM    3  H   UNL     2     -10.359  15.875  65.557  1.00  0.00     0.000 HD 
HETATM    4  C   UNL     2     -10.741  15.557  68.790  1.00  0.00    -0.249 C  
HETATM    5  O   UNL     2     -10.564  16.179  66.433  1.00  0.00    -0.308 OA 
HETATM    6  O   UNL     2     -10.065  15.153  69.755  1.00  0.00    -0.227 OA 
HETATM    7  O   UNL     2     -11.780  16.311  68.911  1.00  0.00    -0.313 OA 
ENDROOT
BRANCH   2   8
HETATM    8  C   UNL     2     -11.357  13.965  66.872  1.00  0.00    -0.328 C  
HETATM    9  H   UNL     2     -12.934  13.070  67.613  1.00  0.00     0.000 HD 
HETATM   10  O   UNL     2     -12.348  13.749  67.925  1.00  0.00    -0.245 OA 
BRANCH   8  11
HETATM   11  C   UNL     2     -12.166  14.169  65.556  1.00  0.00    -0.432 C  
HETATM   12  H   UNL     2     -13.882  13.533  64.890  1.00  0.00     0.000 HD 
HETATM   13  O   UNL     2     -13.389  13.409  65.693  1.00  0.00    -0.374 OA 
BRANCH  11  14
HETATM   14  C   UNL     2     -11.512  13.814  64.213  1.00  0.00    -0.340 C  
HETATM   15  C   UNL     2     -10.884  12.429  64.084  1.00  0.00    -0.372 C  
HETATM   16  O   UNL     2     -12.394  14.079  63.097  1.00  0.00    -1.133 OA 
HETATM   17  H   UNL     2     -11.988  13.860  62.266  1.00  0.00     0.000 HD 
HETATM   18  O   UNL     2     -10.853  11.606  65.045  1.00  0.00    -0.287 OA 
HETATM   19  O   UNL     2      -9.991  12.229  63.186  1.00  0.00    -0.389 OA 
ENDBRANCH  11  14
ENDBRANCH   8  11
ENDBRANCH   2   8
TORSDOF 3
ENDMDL
MODEL       81
REMARK 921   NORMALIZED FREE ENERGY PREDICTED BY IDOCK:   -4.28 KCAL/MOL
REMARK 922        TOTAL FREE ENERGY PREDICTED BY IDOCK:   -5.51 KCAL/MOL
REMARK 923 INTER-LIGAND FREE ENERGY PREDICTED BY IDOCK:   -5.27 KCAL/MOL
REMARK 924 INTRA-LIGAND FREE ENERGY PREDICTED BY IDOCK:   -0.24 KCAL/MOL
REMARK 927      BINDING AFFINITY PREDICTED BY RF-SCORE:    0.00 PKD
ROOT
HETATM    1 CA   UNL     1     -12.906  13.904  68.310  1.00  0.00    -0.466 Ca 
HETATM    2  C   UNL     2      -9.955  16.025  66.372  1.00  0.00    -0.295 C  
HETATM    3  H   UNL     2     -10.097  16.527  64.451  1.00  0.00     0.000 HD 
HETATM    4  C   UNL     2     -10.901  16.017  67.580  1.00  0.00    -0.292 C  
HETATM    5  O   UNL     2     -10.682  16.522  65.199  1.00  0.00    -0.606 OA 
HETATM    6  O   UNL     2     -10.470  16.347  68.701  1.00  0.00    -0.259 OA 
HETATM    7  O   UNL     2     -12.096  15.574  67.376  1.00  0.00     0.180 OA 
ENDROOT
BRANCH   2   8
HETATM    8  C   UNL     2      -9.450  14.628  65.982  1.00  0.00    -0.238 C  
HETATM    9  H   UNL     2      -8.010  13.462  66.620  1.00  0.00     0.000 HD 
HETATM   10  O   UNL     2      -8.322  14.326  66.862  1.00  0.00    -0.172 OA 
BRANCH   8  11
HETATM   11  C   UNL     2     -10.402  13.397  66.066  1.00  0.00    -0.297 C  
HETATM   12  H   UNL     2     -10.440  11.765  67.128  1.00  0.00     0.000 HD 
HETATM   13  O   UNL     2      -9.859  12.515  67.076  1.00  0.00    -0.210 OA 
BRANCH  11  14
HETATM   14  C   UNL     2     -10.685  12.581  64.797  1.00  0.00    -0.302 C  
HETATM   15  C   UNL     2     -11.985  12.872  64.054  1.00  0.00    -0.451 C  
HETATM   16  O   UNL     2      -9.562  12.596  63.884  1.00  0.00    -0.653 OA 
HETATM   17  H   UNL     2      -9.738  12.091  63.099  1.00  0.00     0.000 HD 
HETATM   18  O   UNL     2     -12.831  13.715  64.471  1.00  0.00    -0.645 OA 
HETATM   19  O   UNL     2     -12.468  11.982  63.267  1.00  0.00    -0.566 OA 
ENDBRANCH  11  14
ENDBRANCH   8  11
ENDBRANCH   2   8
TORSDOF 3
ENDMDL
MODEL       82
REMARK 921   NORMALIZED FREE ENERGY PREDICTED BY IDOCK:   -4.28 KCAL/MOL
REMARK 922        TOTAL FREE ENERGY PREDICTED BY IDOCK:   -5.51 KCAL/MOL
REMARK 923 INTER-LIGAND FREE ENERGY PREDICTED BY IDOCK:   -5.00 KCAL/MOL
REMARK 924 INTRA-LIGAND FREE ENERGY PREDICTED BY IDOCK:   -0.51 KCAL/MOL
REMARK 927      BINDING AFFINITY PREDICTED BY RF-SCORE:    0.00 PKD
ROOT
HETATM    1 CA   UNL     1      -8.246  14.013  69.528  1.00  0.00    -0.294 Ca 
HETATM    2  C   UNL     2     -11.088  15.460  66.922  1.00  0.00    -0.256 C  
HETATM    3  H   UNL     2     -11.285  14.757  65.070  1.00  0.00     0.000 HD 
HETATM    4  C   UNL     2     -10.860  14.851  68.311  1.00  0.00    -0.257 C  
HETATM    5  O   UNL     2     -11.145  14.380  65.930  1.00  0.00    -0.308 OA 
HETATM    6  O   UNL     2     -11.449  15.333  69.297  1.00  0.00    -0.280 OA 
HETATM    7  O   UNL     2      -9.983  13.908  68.393  1.00  0.00    -0.225 OA 
ENDROOT
BRANCH   2   8
HETATM    8  C   UNL     2      -9.947  16.381  66.463  1.00  0.00    -0.282 C  
HETATM    9  H   UNL     2      -9.612  17.454  64.858  1.00  0.00     0.000 HD 
HETATM   10  O   UNL     2     -10.317  16.884  65.142  1.00  0.00    -0.631 OA 
BRANCH   8  11
HETATM   11  C   UNL     2      -9.561  17.632  67.307  1.00  0.00    -0.271 C  
HETATM   12  H   UNL     2     -10.563  19.004  68.259  1.00  0.00     0.000 HD 
HETATM   13  O   UNL     2     -10.798  18.242  67.744  1.00  0.00    -0.386 OA 
BRANCH  11  14
HETATM   14  C   UNL     2      -8.671  18.714  66.679  1.00  0.00    -0.302 C  
HETATM   15  C   UNL     2      -7.929  19.649  67.630  1.00  0.00    -0.285 C  
HETATM   16  O   UNL     2      -7.762  18.162  65.698  1.00  0.00    -0.532 OA 
HETATM   17  H   UNL     2      -7.211  18.831  65.309  1.00  0.00     0.000 HD 
HETATM   18  O   UNL     2      -8.062  19.583  68.887  1.00  0.00    -0.355 OA 
HETATM   19  O   UNL     2      -7.526  20.787  67.199  1.00  0.00    -0.335 OA 
ENDBRANCH  11  14
ENDBRANCH   8  11
ENDBRANCH   2   8
TORSDOF 3
ENDMDL
MODEL       83
REMARK 921   NORMALIZED FREE ENERGY PREDICTED BY IDOCK:   -4.26 KCAL/MOL
REMARK 922        TOTAL FREE ENERGY PREDICTED BY IDOCK:   -5.48 KCAL/MOL
REMARK 923 INTER-LIGAND FREE ENERGY PREDICTED BY IDOCK:   -4.99 KCAL/MOL
REMARK 924 INTRA-LIGAND FREE ENERGY PREDICTED BY IDOCK:   -0.49 KCAL/MOL
REMARK 927      BINDING AFFINITY PREDICTED BY RF-SCORE:    0.00 PKD
ROOT
HETATM    1 CA   UNL     1     -10.741  18.523  70.177  1.00  0.00    -0.518 Ca 
HETATM    2  C   UNL     2      -9.434  16.226  67.018  1.00  0.00    -0.226 C  
HETATM    3  H   UNL     2      -9.632  16.813  65.126  1.00  0.00     0.000 HD 
HETATM    4  C   UNL     2      -9.019  16.889  68.338  1.00  0.00    -0.244 C  
HETATM    5  O   UNL     2      -9.375  17.223  65.943  1.00  0.00    -0.507 OA 
HETATM    6  O   UNL     2      -8.320  16.255  69.151  1.00  0.00    -0.242 OA 
HETATM    7  O   UNL     2      -9.503  18.062  68.573  1.00  0.00    -0.300 OA 
ENDROOT
BRANCH   2   8
HETATM    8  C   UNL     2     -10.881  15.710  67.022  1.00  0.00    -0.294 C  
HETATM    9  H   UNL     2     -12.041  14.871  65.684  1.00  0.00     0.000 HD 
HETATM   10  O   UNL     2     -11.146  15.190  65.682  1.00  0.00    -0.336 OA 
BRANCH   8  11
HETATM   11  C   UNL     2     -11.311  14.585  68.011  1.00  0.00    -0.306 C  
HETATM   12  H   UNL     2     -12.406  12.981  67.870  1.00  0.00     0.000 HD 
HETATM   13  O   UNL     2     -12.144  13.667  67.267  1.00  0.00    -0.380 OA 
BRANCH  11  14
HETATM   14  C   UNL     2     -12.033  14.967  69.311  1.00  0.00    -0.289 C  
HETATM   15  C   UNL     2     -12.284  13.855  70.325  1.00  0.00    -0.358 C  
HETATM   16  O   UNL     2     -11.421  16.111  69.952  1.00  0.00    -0.324 OA 
HETATM   17  H   UNL     2     -11.868  16.347  70.757  1.00  0.00     0.000 HD 
HETATM   18  O   UNL     2     -11.959  12.651  70.107  1.00  0.00    -0.346 OA 
HETATM   19  O   UNL     2     -13.211  14.003  71.198  1.00  0.00    -0.322 OA 
ENDBRANCH  11  14
ENDBRANCH   8  11
ENDBRANCH   2   8
TORSDOF 3
ENDMDL
MODEL       84
REMARK 921   NORMALIZED FREE ENERGY PREDICTED BY IDOCK:   -4.24 KCAL/MOL
REMARK 922        TOTAL FREE ENERGY PREDICTED BY IDOCK:   -5.46 KCAL/MOL
REMARK 923 INTER-LIGAND FREE ENERGY PREDICTED BY IDOCK:   -5.46 KCAL/MOL
REMARK 924 INTRA-LIGAND FREE ENERGY PREDICTED BY IDOCK:    0.00 KCAL/MOL
REMARK 927      BINDING AFFINITY PREDICTED BY RF-SCORE:    0.00 PKD
ROOT
HETATM    1 CA   UNL     1      -7.360  16.466  65.898  1.00  0.00    -0.226 Ca 
HETATM    2  C   UNL     2     -11.301  15.591  66.713  1.00  0.00    -0.054 C  
HETATM    3  H   UNL     2     -11.874  14.787  68.442  1.00  0.00     0.000 HD 
HETATM    4  C   UNL     2     -10.329  16.697  66.283  1.00  0.00    -0.317 C  
HETATM    5  O   UNL     2     -11.273  15.472  68.176  1.00  0.00    -0.316 OA 
HETATM    6  O   UNL     2     -10.641  17.461  65.350  1.00  0.00    -0.638 OA 
HETATM    7  O   UNL     2      -9.180  16.717  66.869  1.00  0.00    -0.218 OA 
ENDROOT
BRANCH   2   8
HETATM    8  C   UNL     2     -10.922  14.201  66.179  1.00  0.00    -0.309 C  
HETATM    9  H   UNL     2     -10.429  12.499  67.014  1.00  0.00     0.000 HD 
HETATM   10  O   UNL     2     -10.663  13.358  67.345  1.00  0.00    -0.258 OA 
BRANCH   8  11
HETATM   11  C   UNL     2     -11.920  13.405  65.286  1.00  0.00    -0.380 C  
HETATM   12  H   UNL     2     -12.937  11.758  65.501  1.00  0.00     0.000 HD 
HETATM   13  O   UNL     2     -12.328  12.244  66.045  1.00  0.00    -0.609 OA 
BRANCH  11  14
HETATM   14  C   UNL     2     -11.477  12.951  63.888  1.00  0.00    -0.446 C  
HETATM   15  C   UNL     2     -10.276  12.013  63.806  1.00  0.00    -0.422 C  
HETATM   16  O   UNL     2     -12.583  12.431  63.114  1.00  0.00    -0.743 OA 
HETATM   17  H   UNL     2     -12.308  12.150  62.248  1.00  0.00     0.000 HD 
HETATM   18  O   UNL     2      -9.630  11.646  64.830  1.00  0.00    -0.217 OA 
HETATM   19  O   UNL     2      -9.617  11.936  62.708  1.00  0.00    -0.307 OA 
ENDBRANCH  11  14
ENDBRANCH   8  11
ENDBRANCH   2   8
TORSDOF 3
ENDMDL
MODEL       85
REMARK 921   NORMALIZED FREE ENERGY PREDICTED BY IDOCK:   -4.22 KCAL/MOL
REMARK 922        TOTAL FREE ENERGY PREDICTED BY IDOCK:   -5.44 KCAL/MOL
REMARK 923 INTER-LIGAND FREE ENERGY PREDICTED BY IDOCK:   -4.79 KCAL/MOL
REMARK 924 INTRA-LIGAND FREE ENERGY PREDICTED BY IDOCK:   -0.64 KCAL/MOL
REMARK 927      BINDING AFFINITY PREDICTED BY RF-SCORE:    0.00 PKD
ROOT
HETATM    1 CA   UNL     1      -8.666  19.644  65.683  1.00  0.00    -0.320 Ca 
HETATM    2  C   UNL     2      -9.644  16.999  68.684  1.00  0.00    -0.275 C  
HETATM    3  H   UNL     2      -8.677  15.277  68.938  1.00  0.00     0.000 HD 
HETATM    4  C   UNL     2      -9.247  18.448  68.375  1.00  0.00    -0.322 C  
HETATM    5  O   UNL     2      -8.432  16.174  68.747  1.00  0.00    -0.208 OA 
HETATM    6  O   UNL     2      -9.849  19.383  68.937  1.00  0.00    -0.424 OA 
HETATM    7  O   UNL     2      -8.351  18.621  67.463  1.00  0.00    -0.261 OA 
ENDROOT
BRANCH   2   8
HETATM    8  C   UNL     2     -10.521  16.360  67.596  1.00  0.00    -0.302 C  
HETATM    9  H   UNL     2     -10.165  15.230  66.036  1.00  0.00     0.000 HD 
HETATM   10  O   UNL     2      -9.623  15.625  66.708  1.00  0.00    -0.224 OA 
BRANCH   8  11
HETATM   11  C   UNL     2     -11.651  15.360  67.987  1.00  0.00    -0.292 C  
HETATM   12  H   UNL     2     -12.874  15.196  69.493  1.00  0.00     0.000 HD 
HETATM   13  O   UNL     2     -12.185  15.805  69.255  1.00  0.00    -0.298 OA 
BRANCH  11  14
HETATM   14  C   UNL     2     -11.326  13.863  68.085  1.00  0.00    -0.295 C  
HETATM   15  C   UNL     2     -11.553  13.015  66.837  1.00  0.00    -0.366 C  
HETATM   16  O   UNL     2     -10.002  13.633  68.622  1.00  0.00    -0.290 OA 
HETATM   17  H   UNL     2      -9.800  12.706  68.682  1.00  0.00     0.000 HD 
HETATM   18  O   UNL     2     -12.031  13.494  65.768  1.00  0.00    -0.360 OA 
HETATM   19  O   UNL     2     -11.702  11.747  66.962  1.00  0.00    -0.555 OA 
ENDBRANCH  11  14
ENDBRANCH   8  11
ENDBRANCH   2   8
TORSDOF 3
ENDMDL
MODEL       86
REMARK 921   NORMALIZED FREE ENERGY PREDICTED BY IDOCK:   -4.22 KCAL/MOL
REMARK 922        TOTAL FREE ENERGY PREDICTED BY IDOCK:   -5.44 KCAL/MOL
REMARK 923 INTER-LIGAND FREE ENERGY PREDICTED BY IDOCK:   -5.26 KCAL/MOL
REMARK 924 INTRA-LIGAND FREE ENERGY PREDICTED BY IDOCK:   -0.17 KCAL/MOL
REMARK 927      BINDING AFFINITY PREDICTED BY RF-SCORE:    0.00 PKD
ROOT
HETATM    1 CA   UNL     1      -8.615  11.929  62.697  1.00  0.00    -0.416 Ca 
HETATM    2  C   UNL     2     -11.734  12.348  65.355  1.00  0.00    -0.402 C  
HETATM    3  H   UNL     2     -13.388  13.359  64.900  1.00  0.00     0.000 HD 
HETATM    4  C   UNL     2     -10.830  11.337  64.637  1.00  0.00    -0.265 C  
HETATM    5  O   UNL     2     -12.828  12.733  64.456  1.00  0.00    -0.701 OA 
HETATM    6  O   UNL     2     -10.351  10.380  65.275  1.00  0.00    -0.284 OA 
HETATM    7  O   UNL     2     -10.539  11.593  63.407  1.00  0.00    -0.387 OA 
ENDROOT
BRANCH   2   8
HETATM    8  C   UNL     2     -11.019  13.658  65.718  1.00  0.00    -0.278 C  
HETATM    9  H   UNL     2     -11.590  15.522  65.920  1.00  0.00     0.000 HD 
HETATM   10  O   UNL     2     -12.032  14.712  65.695  1.00  0.00    -0.329 OA 
BRANCH   8  11
HETATM   11  C   UNL     2     -10.285  13.798  67.086  1.00  0.00    -0.244 C  
HETATM   12  H   UNL     2      -9.605  12.543  68.410  1.00  0.00     0.000 HD 
HETATM   13  O   UNL     2     -10.053  12.458  67.577  1.00  0.00    -0.199 OA 
BRANCH  11  14
HETATM   14  C   UNL     2     -10.933  14.629  68.202  1.00  0.00    -0.261 C  
HETATM   15  C   UNL     2     -10.683  16.134  68.188  1.00  0.00    -0.315 C  
HETATM   16  O   UNL     2     -12.347  14.350  68.330  1.00  0.00    -0.600 OA 
HETATM   17  H   UNL     2     -12.748  14.864  69.021  1.00  0.00     0.000 HD 
HETATM   18  O   UNL     2      -9.939  16.692  67.329  1.00  0.00    -0.258 OA 
HETATM   19  O   UNL     2     -10.830  16.802  69.274  1.00  0.00    -0.325 OA 
ENDBRANCH  11  14
ENDBRANCH   8  11
ENDBRANCH   2   8
TORSDOF 3
ENDMDL
MODEL       87
REMARK 921   NORMALIZED FREE ENERGY PREDICTED BY IDOCK:   -4.22 KCAL/MOL
REMARK 922        TOTAL FREE ENERGY PREDICTED BY IDOCK:   -5.43 KCAL/MOL
REMARK 923 INTER-LIGAND FREE ENERGY PREDICTED BY IDOCK:   -5.35 KCAL/MOL
REMARK 924 INTRA-LIGAND FREE ENERGY PREDICTED BY IDOCK:   -0.08 KCAL/MOL
REMARK 927      BINDING AFFINITY PREDICTED BY RF-SCORE:    0.00 PKD
ROOT
HETATM    1 CA   UNL     1     -14.011   6.165  72.422  1.00  0.00    -0.472 Ca 
HETATM    2  C   UNL     2     -11.076   8.603  70.872  1.00  0.00    -0.264 C  
HETATM    3  H   UNL     2      -9.971   9.796  72.021  1.00  0.00     0.000 HD 
HETATM    4  C   UNL     2     -11.586   7.159  70.956  1.00  0.00    -0.309 C  
HETATM    5  O   UNL     2     -10.287   8.902  72.072  1.00  0.00    -0.339 OA 
HETATM    6  O   UNL     2     -11.613   6.456  69.928  1.00  0.00    -0.429 OA 
HETATM    7  O   UNL     2     -12.052   6.775  72.096  1.00  0.00    -0.300 OA 
ENDROOT
BRANCH   2   8
HETATM    8  C   UNL     2     -12.202   9.649  70.848  1.00  0.00    -0.285 C  
HETATM    9  H   UNL     2     -13.366  10.441  72.210  1.00  0.00     0.000 HD 
HETATM   10  O   UNL     2     -12.671   9.794  72.225  1.00  0.00    -0.342 OA 
BRANCH   8  11
HETATM   11  C   UNL     2     -11.919  11.094  70.336  1.00  0.00    -0.378 C  
HETATM   12  H   UNL     2     -12.543  12.870  70.834  1.00  0.00     0.000 HD 
HETATM   13  O   UNL     2     -12.715  11.989  71.146  1.00  0.00    -0.364 OA 
BRANCH  11  14
HETATM   14  C   UNL     2     -12.157  11.422  68.855  1.00  0.00    -0.219 C  
HETATM   15  C   UNL     2     -11.582  12.734  68.329  1.00  0.00    -0.334 C  
HETATM   16  O   UNL     2     -11.785  10.322  67.992  1.00  0.00    -0.712 OA 
HETATM   17  H   UNL     2     -11.932  10.526  67.076  1.00  0.00     0.000 HD 
HETATM   18  O   UNL     2     -10.970  13.554  69.074  1.00  0.00    -0.252 OA 
HETATM   19  O   UNL     2     -12.079  13.253  67.267  1.00  0.00    -0.357 OA 
ENDBRANCH  11  14
ENDBRANCH   8  11
ENDBRANCH   2   8
TORSDOF 3
ENDMDL
MODEL       88
REMARK 921   NORMALIZED FREE ENERGY PREDICTED BY IDOCK:   -4.22 KCAL/MOL
REMARK 922        TOTAL FREE ENERGY PREDICTED BY IDOCK:   -5.43 KCAL/MOL
REMARK 923 INTER-LIGAND FREE ENERGY PREDICTED BY IDOCK:   -5.14 KCAL/MOL
REMARK 924 INTRA-LIGAND FREE ENERGY PREDICTED BY IDOCK:   -0.30 KCAL/MOL
REMARK 927      BINDING AFFINITY PREDICTED BY RF-SCORE:    0.00 PKD
ROOT
HETATM    1 CA   UNL     1      -7.859  11.404  68.874  1.00  0.00    -0.099 Ca 
HETATM    2  C   UNL     2     -11.723  12.399  67.857  1.00  0.00    -0.360 C  
HETATM    3  H   UNL     2     -12.375  12.339  65.976  1.00  0.00     0.000 HD 
HETATM    4  C   UNL     2     -10.857  11.502  68.750  1.00  0.00    -0.216 C  
HETATM    5  O   UNL     2     -11.839  11.783  66.530  1.00  0.00    -0.550 OA 
HETATM    6  O   UNL     2     -11.160  11.353  69.949  1.00  0.00    -0.193 OA 
HETATM    7  O   UNL     2      -9.790  11.011  68.216  1.00  0.00    -0.166 OA 
ENDROOT
BRANCH   2   8
HETATM    8  C   UNL     2     -11.116  13.789  67.614  1.00  0.00    -0.273 C  
HETATM    9  H   UNL     2      -9.788  14.887  68.546  1.00  0.00     0.000 HD 
HETATM   10  O   UNL     2     -10.163  14.028  68.696  1.00  0.00    -0.236 OA 
BRANCH   8  11
HETATM   11  C   UNL     2     -10.349  14.091  66.292  1.00  0.00    -0.293 C  
HETATM   12  H   UNL     2      -8.474  14.313  65.816  1.00  0.00     0.000 HD 
HETATM   13  O   UNL     2      -8.942  14.129  66.623  1.00  0.00    -0.238 OA 
BRANCH  11  14
HETATM   14  C   UNL     2     -10.704  15.351  65.491  1.00  0.00    -0.384 C  
HETATM   15  C   UNL     2     -12.010  15.334  64.701  1.00  0.00    -0.233 C  
HETATM   16  O   UNL     2     -10.616  16.547  66.301  1.00  0.00    -0.294 OA 
HETATM   17  H   UNL     2     -10.835  17.328  65.805  1.00  0.00     0.000 HD 
HETATM   18  O   UNL     2     -12.763  14.318  64.657  1.00  0.00    -0.655 OA 
HETATM   19  O   UNL     2     -12.156  16.145  63.719  1.00  0.00    -0.946 OA 
ENDBRANCH  11  14
ENDBRANCH   8  11
ENDBRANCH   2   8
TORSDOF 3
ENDMDL
MODEL       89
REMARK 921   NORMALIZED FREE ENERGY PREDICTED BY IDOCK:   -4.21 KCAL/MOL
REMARK 922        TOTAL FREE ENERGY PREDICTED BY IDOCK:   -5.43 KCAL/MOL
REMARK 923 INTER-LIGAND FREE ENERGY PREDICTED BY IDOCK:   -4.49 KCAL/MOL
REMARK 924 INTRA-LIGAND FREE ENERGY PREDICTED BY IDOCK:   -0.94 KCAL/MOL
REMARK 927      BINDING AFFINITY PREDICTED BY RF-SCORE:    0.00 PKD
ROOT
HETATM    1 CA   UNL     1     -13.327   7.055  70.308  1.00  0.00    -0.623 Ca 
HETATM    2  C   UNL     2      -9.283   6.287  70.156  1.00  0.00    -0.157 C  
HETATM    3  H   UNL     2      -8.512   4.543  70.728  1.00  0.00     0.000 HD 
HETATM    4  C   UNL     2     -10.502   6.736  69.340  1.00  0.00    -0.217 C  
HETATM    5  O   UNL     2      -9.267   4.821  70.223  1.00  0.00    -0.117 OA 
HETATM    6  O   UNL     2     -10.397   7.701  68.560  1.00  0.00    -0.196 OA 
HETATM    7  O   UNL     2     -11.615   6.129  69.580  1.00  0.00    -0.407 OA 
ENDROOT
BRANCH   2   8
HETATM    8  C   UNL     2      -9.314   6.765  71.616  1.00  0.00    -0.151 C  
HETATM    9  H   UNL     2      -7.976   6.916  73.039  1.00  0.00     0.000 HD 
HETATM   10  O   UNL     2      -7.956   6.620  72.136  1.00  0.00    -0.097 OA 
BRANCH   8  11
HETATM   11  C   UNL     2      -9.750   8.223  71.955  1.00  0.00    -0.232 C  
HETATM   12  H   UNL     2      -9.165   9.563  73.240  1.00  0.00     0.000 HD 
HETATM   13  O   UNL     2      -8.900   8.675  73.034  1.00  0.00    -0.355 OA 
BRANCH  11  14
HETATM   14  C   UNL     2     -11.213   8.498  72.329  1.00  0.00    -0.362 C  
HETATM   15  C   UNL     2     -11.971   9.519  71.485  1.00  0.00    -0.399 C  
HETATM   16  O   UNL     2     -11.977   7.276  72.456  1.00  0.00    -0.472 OA 
HETATM   17  H   UNL     2     -12.883   7.447  72.688  1.00  0.00     0.000 HD 
HETATM   18  O   UNL     2     -11.425  10.157  70.539  1.00  0.00    -0.287 OA 
HETATM   19  O   UNL     2     -13.011  10.087  71.976  1.00  0.00    -0.419 OA 
ENDBRANCH  11  14
ENDBRANCH   8  11
ENDBRANCH   2   8
TORSDOF 3
ENDMDL
MODEL       90
REMARK 921   NORMALIZED FREE ENERGY PREDICTED BY IDOCK:   -4.21 KCAL/MOL
REMARK 922        TOTAL FREE ENERGY PREDICTED BY IDOCK:   -5.42 KCAL/MOL
REMARK 923 INTER-LIGAND FREE ENERGY PREDICTED BY IDOCK:   -5.77 KCAL/MOL
REMARK 924 INTRA-LIGAND FREE ENERGY PREDICTED BY IDOCK:    0.35 KCAL/MOL
REMARK 927      BINDING AFFINITY PREDICTED BY RF-SCORE:    0.00 PKD
ROOT
HETATM    1 CA   UNL     1     -10.724  18.796  67.951  1.00  0.00    -0.325 Ca 
HETATM    2  C   UNL     2     -10.896  14.765  67.123  1.00  0.00    -0.311 C  
HETATM    3  H   UNL     2      -9.397  13.799  66.237  1.00  0.00     0.000 HD 
HETATM    4  C   UNL     2     -11.023  15.821  68.229  1.00  0.00    -0.325 C  
HETATM    5  O   UNL     2      -9.476  14.452  66.922  1.00  0.00    -0.236 OA 
HETATM    6  O   UNL     2     -11.957  15.741  69.049  1.00  0.00    -0.385 OA 
HETATM    7  O   UNL     2     -10.187  16.803  68.190  1.00  0.00    -0.273 OA 
ENDROOT
BRANCH   2   8
HETATM    8  C   UNL     2     -11.409  15.245  65.756  1.00  0.00    -0.180 C  
HETATM    9  H   UNL     2     -10.612  16.228  64.261  1.00  0.00     0.000 HD 
HETATM   10  O   UNL     2     -10.294  15.932  65.105  1.00  0.00    -0.473 OA 
BRANCH   8  11
HETATM   11  C   UNL     2     -11.947  14.218  64.716  1.00  0.00    -0.440 C  
HETATM   12  H   UNL     2     -13.565  13.145  64.561  1.00  0.00     0.000 HD 
HETATM   13  O   UNL     2     -13.236  13.771  65.196  1.00  0.00    -0.757 OA 
BRANCH  11  14
HETATM   14  C   UNL     2     -11.096  12.989  64.367  1.00  0.00    -0.370 C  
HETATM   15  C   UNL     2     -11.274  11.746  65.233  1.00  0.00    -0.254 C  
HETATM   16  O   UNL     2     -11.190  12.649  62.964  1.00  0.00    -0.723 OA 
HETATM   17  H   UNL     2     -10.663  11.888  62.748  1.00  0.00     0.000 HD 
HETATM   18  O   UNL     2     -12.053  11.719  66.230  1.00  0.00    -0.446 OA 
HETATM   19  O   UNL     2     -10.339  10.869  65.268  1.00  0.00    -0.273 OA 
ENDBRANCH  11  14
ENDBRANCH   8  11
ENDBRANCH   2   8
TORSDOF 3
ENDMDL
MODEL       91
REMARK 921   NORMALIZED FREE ENERGY PREDICTED BY IDOCK:   -4.21 KCAL/MOL
REMARK 922        TOTAL FREE ENERGY PREDICTED BY IDOCK:   -5.42 KCAL/MOL
REMARK 923 INTER-LIGAND FREE ENERGY PREDICTED BY IDOCK:   -5.15 KCAL/MOL
REMARK 924 INTRA-LIGAND FREE ENERGY PREDICTED BY IDOCK:   -0.27 KCAL/MOL
REMARK 927      BINDING AFFINITY PREDICTED BY RF-SCORE:    0.00 PKD
ROOT
HETATM    1 CA   UNL     1     -10.153   9.424  63.805  1.00  0.00    -0.420 Ca 
HETATM    2  C   UNL     2     -10.517  11.992  67.004  1.00  0.00    -0.221 C  
HETATM    3  H   UNL     2     -12.213  12.174  68.031  1.00  0.00     0.000 HD 
HETATM    4  C   UNL     2      -9.704  10.830  66.420  1.00  0.00    -0.199 C  
HETATM    5  O   UNL     2     -11.709  11.454  67.670  1.00  0.00    -0.546 OA 
HETATM    6  O   UNL     2      -8.460  10.863  66.474  1.00  0.00    -0.147 OA 
HETATM    7  O   UNL     2     -10.369   9.905  65.815  1.00  0.00    -0.221 OA 
ENDROOT
BRANCH   2   8
HETATM    8  C   UNL     2     -11.045  12.966  65.939  1.00  0.00    -0.283 C  
HETATM    9  H   UNL     2     -12.800  13.298  65.133  1.00  0.00     0.000 HD 
HETATM   10  O   UNL     2     -12.474  12.696  65.792  1.00  0.00    -0.607 OA 
BRANCH   8  11
HETATM   11  C   UNL     2     -10.918  14.504  66.151  1.00  0.00    -0.322 C  
HETATM   12  H   UNL     2      -9.532  15.826  65.796  1.00  0.00     0.000 HD 
HETATM   13  O   UNL     2      -9.610  14.888  65.668  1.00  0.00    -0.325 OA 
BRANCH  11  14
HETATM   14  C   UNL     2     -11.115  15.085  67.558  1.00  0.00    -0.317 C  
HETATM   15  C   UNL     2     -10.877  16.581  67.737  1.00  0.00    -0.304 C  
HETATM   16  O   UNL     2     -12.390  14.702  68.125  1.00  0.00    -0.598 OA 
HETATM   17  H   UNL     2     -12.513  15.062  68.996  1.00  0.00     0.000 HD 
HETATM   18  O   UNL     2     -10.488  17.325  66.790  1.00  0.00    -0.313 OA 
HETATM   19  O   UNL     2     -10.619  17.037  68.908  1.00  0.00    -0.325 OA 
ENDBRANCH  11  14
ENDBRANCH   8  11
ENDBRANCH   2   8
TORSDOF 3
ENDMDL
MODEL       92
REMARK 921   NORMALIZED FREE ENERGY PREDICTED BY IDOCK:   -4.20 KCAL/MOL
REMARK 922        TOTAL FREE ENERGY PREDICTED BY IDOCK:   -5.41 KCAL/MOL
REMARK 923 INTER-LIGAND FREE ENERGY PREDICTED BY IDOCK:   -5.09 KCAL/MOL
REMARK 924 INTRA-LIGAND FREE ENERGY PREDICTED BY IDOCK:   -0.33 KCAL/MOL
REMARK 927      BINDING AFFINITY PREDICTED BY RF-SCORE:    0.00 PKD
ROOT
HETATM    1 CA   UNL     1      -6.542  17.101  67.168  1.00  0.00    -0.116 Ca 
HETATM    2  C   UNL     2     -10.188  18.895  67.837  1.00  0.00    -0.394 C  
HETATM    3  H   UNL     2     -10.843  19.316  69.670  1.00  0.00     0.000 HD 
HETATM    4  C   UNL     2      -8.853  19.016  67.091  1.00  0.00    -0.288 C  
HETATM    5  O   UNL     2     -10.017  19.392  69.208  1.00  0.00    -0.404 OA 
HETATM    6  O   UNL     2      -8.847  19.364  65.895  1.00  0.00    -0.425 OA 
HETATM    7  O   UNL     2      -7.795  18.658  67.737  1.00  0.00    -0.240 OA 
ENDROOT
BRANCH   2   8
HETATM    8  C   UNL     2     -10.678  17.446  67.983  1.00  0.00    -0.359 C  
HETATM    9  H   UNL     2     -10.248  15.757  67.089  1.00  0.00     0.000 HD 
HETATM   10  O   UNL     2      -9.945  16.652  66.998  1.00  0.00    -0.256 OA 
BRANCH   8  11
HETATM   11  C   UNL     2     -10.522  16.698  69.341  1.00  0.00    -0.320 C  
HETATM   12  H   UNL     2      -9.069  15.746  70.221  1.00  0.00     0.000 HD 
HETATM   13  O   UNL     2      -9.164  16.202  69.393  1.00  0.00    -0.248 OA 
BRANCH  11  14
HETATM   14  C   UNL     2     -11.482  15.547  69.676  1.00  0.00    -0.329 C  
HETATM   15  C   UNL     2     -12.220  15.618  71.010  1.00  0.00    -0.412 C  
HETATM   16  O   UNL     2     -12.408  15.285  68.596  1.00  0.00    -0.580 OA 
HETATM   17  H   UNL     2     -13.002  14.573  68.804  1.00  0.00     0.000 HD 
HETATM   18  O   UNL     2     -12.031  16.554  71.841  1.00  0.00    -0.409 OA 
HETATM   19  O   UNL     2     -12.688  14.540  71.523  1.00  0.00    -0.305 OA 
ENDBRANCH  11  14
ENDBRANCH   8  11
ENDBRANCH   2   8
TORSDOF 3
ENDMDL
MODEL       93
REMARK 921   NORMALIZED FREE ENERGY PREDICTED BY IDOCK:   -4.20 KCAL/MOL
REMARK 922        TOTAL FREE ENERGY PREDICTED BY IDOCK:   -5.41 KCAL/MOL
REMARK 923 INTER-LIGAND FREE ENERGY PREDICTED BY IDOCK:   -5.41 KCAL/MOL
REMARK 924 INTRA-LIGAND FREE ENERGY PREDICTED BY IDOCK:    0.01 KCAL/MOL
REMARK 927      BINDING AFFINITY PREDICTED BY RF-SCORE:    0.00 PKD
ROOT
HETATM    1 CA   UNL     1     -11.019   7.597  66.179  1.00  0.00    -0.456 Ca 
HETATM    2  C   UNL     2      -9.518  11.217  67.445  1.00  0.00    -0.165 C  
HETATM    3  H   UNL     2     -10.075  12.054  69.164  1.00  0.00     0.000 HD 
HETATM    4  C   UNL     2      -9.146   9.803  66.980  1.00  0.00    -0.138 C  
HETATM    5  O   UNL     2      -9.844  11.179  68.876  1.00  0.00    -0.200 OA 
HETATM    6  O   UNL     2      -8.219   9.650  66.163  1.00  0.00    -0.114 OA 
HETATM    7  O   UNL     2      -9.892   8.840  67.405  1.00  0.00    -0.169 OA 
ENDROOT
BRANCH   2   8
HETATM    8  C   UNL     2     -10.769  11.780  66.753  1.00  0.00    -0.253 C  
HETATM    9  H   UNL     2     -12.693  11.693  67.114  1.00  0.00     0.000 HD 
HETATM   10  O   UNL     2     -11.920  11.345  67.542  1.00  0.00    -0.626 OA 
BRANCH   8  11
HETATM   11  C   UNL     2     -10.935  13.318  66.563  1.00  0.00    -0.286 C  
HETATM   12  H   UNL     2     -12.156  14.661  67.269  1.00  0.00     0.000 HD 
HETATM   13  O   UNL     2     -12.055  13.724  67.384  1.00  0.00    -0.386 OA 
BRANCH  11  14
HETATM   14  C   UNL     2     -11.129  13.881  65.148  1.00  0.00    -0.334 C  
HETATM   15  C   UNL     2     -12.405  13.489  64.408  1.00  0.00    -0.337 C  
HETATM   16  O   UNL     2     -10.938  15.315  65.107  1.00  0.00    -0.368 OA 
HETATM   17  H   UNL     2     -11.059  15.663  64.231  1.00  0.00     0.000 HD 
HETATM   18  O   UNL     2     -13.261  12.698  64.902  1.00  0.00    -0.819 OA 
HETATM   19  O   UNL     2     -12.435  13.569  63.129  1.00  0.00    -0.759 OA 
ENDBRANCH  11  14
ENDBRANCH   8  11
ENDBRANCH   2   8
TORSDOF 3
ENDMDL
MODEL       94
REMARK 921   NORMALIZED FREE ENERGY PREDICTED BY IDOCK:   -4.19 KCAL/MOL
REMARK 922        TOTAL FREE ENERGY PREDICTED BY IDOCK:   -5.40 KCAL/MOL
REMARK 923 INTER-LIGAND FREE ENERGY PREDICTED BY IDOCK:   -4.55 KCAL/MOL
REMARK 924 INTRA-LIGAND FREE ENERGY PREDICTED BY IDOCK:   -0.84 KCAL/MOL
REMARK 927      BINDING AFFINITY PREDICTED BY RF-SCORE:    0.00 PKD
ROOT
HETATM    1 CA   UNL     1      -9.038  16.196  69.669  1.00  0.00    -0.217 Ca 
HETATM    2  C   UNL     2     -11.935  13.605  68.304  1.00  0.00    -0.350 C  
HETATM    3  H   UNL     2     -11.745  11.628  68.451  1.00  0.00     0.000 HD 
HETATM    4  C   UNL     2     -11.662  14.807  69.217  1.00  0.00    -0.316 C  
HETATM    5  O   UNL     2     -11.577  12.373  69.016  1.00  0.00    -0.268 OA 
HETATM    6  O   UNL     2     -12.455  15.768  69.221  1.00  0.00    -0.124 OA 
HETATM    7  O   UNL     2     -10.555  14.792  69.880  1.00  0.00    -0.176 OA 
ENDROOT
BRANCH   2   8
HETATM    8  C   UNL     2     -11.083  13.603  67.025  1.00  0.00    -0.301 C  
HETATM    9  H   UNL     2     -11.268  12.782  65.256  1.00  0.00     0.000 HD 
HETATM   10  O   UNL     2     -11.794  12.783  66.046  1.00  0.00    -0.397 OA 
BRANCH   8  11
HETATM   11  C   UNL     2     -10.752  14.943  66.301  1.00  0.00    -0.320 C  
HETATM   12  H   UNL     2     -10.889  15.579  64.466  1.00  0.00     0.000 HD 
HETATM   13  O   UNL     2     -11.091  14.763  64.907  1.00  0.00    -0.374 OA 
BRANCH  11  14
HETATM   14  C   UNL     2      -9.329  15.512  66.395  1.00  0.00    -0.298 C  
HETATM   15  C   UNL     2      -9.173  17.026  66.283  1.00  0.00    -0.247 C  
HETATM   16  O   UNL     2      -8.624  15.013  67.556  1.00  0.00    -0.162 OA 
HETATM   17  H   UNL     2      -7.743  15.365  67.614  1.00  0.00     0.000 HD 
HETATM   18  O   UNL     2     -10.155  17.797  66.076  1.00  0.00    -0.469 OA 
HETATM   19  O   UNL     2      -8.036  17.513  65.941  1.00  0.00    -0.536 OA 
ENDBRANCH  11  14
ENDBRANCH   8  11
ENDBRANCH   2   8
TORSDOF 3
ENDMDL
MODEL       95
REMARK 921   NORMALIZED FREE ENERGY PREDICTED BY IDOCK:   -4.19 KCAL/MOL
REMARK 922        TOTAL FREE ENERGY PREDICTED BY IDOCK:   -5.39 KCAL/MOL
REMARK 923 INTER-LIGAND FREE ENERGY PREDICTED BY IDOCK:   -4.87 KCAL/MOL
REMARK 924 INTRA-LIGAND FREE ENERGY PREDICTED BY IDOCK:   -0.52 KCAL/MOL
REMARK 927      BINDING AFFINITY PREDICTED BY RF-SCORE:    0.00 PKD
ROOT
HETATM    1 CA   UNL     1      -7.172  11.928  65.895  1.00  0.00    -0.348 Ca 
HETATM    2  C   UNL     2     -10.106  12.046  68.783  1.00  0.00    -0.099 C  
HETATM    3  H   UNL     2     -11.077  10.412  69.378  1.00  0.00     0.000 HD 
HETATM    4  C   UNL     2      -8.649  12.405  68.466  1.00  0.00    -0.060 C  
HETATM    5  O   UNL     2     -10.175  10.635  69.181  1.00  0.00    -0.204 OA 
HETATM    6  O   UNL     2      -8.202  13.517  68.805  1.00  0.00    -0.083 OA 
HETATM    7  O   UNL     2      -7.980  11.548  67.772  1.00  0.00    -0.118 OA 
ENDROOT
BRANCH   2   8
HETATM    8  C   UNL     2     -11.046  12.179  67.576  1.00  0.00    -0.275 C  
HETATM    9  H   UNL     2     -12.928  11.744  67.248  1.00  0.00     0.000 HD 
HETATM   10  O   UNL     2     -12.347  11.661  67.995  1.00  0.00    -0.429 OA 
BRANCH   8  11
HETATM   11  C   UNL     2     -11.322  13.578  66.947  1.00  0.00    -0.326 C  
HETATM   12  H   UNL     2     -11.933  15.293  67.639  1.00  0.00     0.000 HD 
HETATM   13  O   UNL     2     -11.765  14.440  68.021  1.00  0.00    -0.311 OA 
BRANCH  11  14
HETATM   14  C   UNL     2     -12.314  13.693  65.781  1.00  0.00    -0.482 C  
HETATM   15  C   UNL     2     -11.930  14.612  64.625  1.00  0.00    -0.462 C  
HETATM   16  O   UNL     2     -12.716  12.394  65.286  1.00  0.00    -0.617 OA 
HETATM   17  H   UNL     2     -13.330  12.465  64.564  1.00  0.00     0.000 HD 
HETATM   18  O   UNL     2     -10.866  15.296  64.626  1.00  0.00    -0.379 OA 
HETATM   19  O   UNL     2     -12.851  15.066  63.856  1.00  0.00    -0.679 OA 
ENDBRANCH  11  14
ENDBRANCH   8  11
ENDBRANCH   2   8
TORSDOF 3
ENDMDL
MODEL       96
REMARK 921   NORMALIZED FREE ENERGY PREDICTED BY IDOCK:   -4.18 KCAL/MOL
REMARK 922        TOTAL FREE ENERGY PREDICTED BY IDOCK:   -5.39 KCAL/MOL
REMARK 923 INTER-LIGAND FREE ENERGY PREDICTED BY IDOCK:   -5.57 KCAL/MOL
REMARK 924 INTRA-LIGAND FREE ENERGY PREDICTED BY IDOCK:    0.18 KCAL/MOL
REMARK 927      BINDING AFFINITY PREDICTED BY RF-SCORE:    0.00 PKD
ROOT
HETATM    1 CA   UNL     1      -6.161  17.767  67.633  1.00  0.00    -0.134 Ca 
HETATM    2  C   UNL     2     -10.014  18.098  66.219  1.00  0.00    -0.342 C  
HETATM    3  H   UNL     2     -11.593  17.554  67.304  1.00  0.00     0.000 HD 
HETATM    4  C   UNL     2      -8.709  18.860  66.482  1.00  0.00    -0.316 C  
HETATM    5  O   UNL     2     -10.785  18.026  67.466  1.00  0.00    -0.404 OA 
HETATM    6  O   UNL     2      -8.274  19.648  65.621  1.00  0.00    -0.398 OA 
HETATM    7  O   UNL     2      -8.077  18.567  67.567  1.00  0.00    -0.248 OA 
ENDROOT
BRANCH   2   8
HETATM    8  C   UNL     2      -9.795  16.640  65.786  1.00  0.00    -0.211 C  
HETATM    9  H   UNL     2      -8.340  15.347  66.009  1.00  0.00     0.000 HD 
HETATM   10  O   UNL     2      -8.475  16.249  66.277  1.00  0.00    -0.305 OA 
BRANCH   8  11
HETATM   11  C   UNL     2     -10.777  15.525  66.259  1.00  0.00    -0.307 C  
HETATM   12  H   UNL     2     -10.808  14.268  67.745  1.00  0.00     0.000 HD 
HETATM   13  O   UNL     2     -10.209  14.947  67.457  1.00  0.00    -0.232 OA 
BRANCH  11  14
HETATM   14  C   UNL     2     -11.146  14.393  65.290  1.00  0.00    -0.342 C  
HETATM   15  C   UNL     2     -11.938  14.771  64.042  1.00  0.00    -0.128 C  
HETATM   16  O   UNL     2      -9.996  13.588  64.938  1.00  0.00    -0.565 OA 
HETATM   17  H   UNL     2     -10.225  12.887  64.338  1.00  0.00     0.000 HD 
HETATM   18  O   UNL     2     -12.325  15.955  63.815  1.00  0.00    -0.791 OA 
HETATM   19  O   UNL     2     -12.616  13.867  63.435  1.00  0.00    -0.853 OA 
ENDBRANCH  11  14
ENDBRANCH   8  11
ENDBRANCH   2   8
TORSDOF 3
ENDMDL
MODEL       97
REMARK 921   NORMALIZED FREE ENERGY PREDICTED BY IDOCK:   -4.18 KCAL/MOL
REMARK 922        TOTAL FREE ENERGY PREDICTED BY IDOCK:   -5.39 KCAL/MOL
REMARK 923 INTER-LIGAND FREE ENERGY PREDICTED BY IDOCK:   -5.15 KCAL/MOL
REMARK 924 INTRA-LIGAND FREE ENERGY PREDICTED BY IDOCK:   -0.23 KCAL/MOL
REMARK 927      BINDING AFFINITY PREDICTED BY RF-SCORE:    0.00 PKD
ROOT
HETATM    1 CA   UNL     1      -6.026  11.885  65.582  1.00  0.00    -0.337 Ca 
HETATM    2  C   UNL     2      -9.791  10.623  66.675  1.00  0.00    -0.201 C  
HETATM    3  H   UNL     2     -10.847   9.349  65.567  1.00  0.00     0.000 HD 
HETATM    4  C   UNL     2      -8.330  10.737  67.128  1.00  0.00    -0.126 C  
HETATM    5  O   UNL     2      -9.943   9.420  65.848  1.00  0.00    -0.303 OA 
HETATM    6  O   UNL     2      -8.074  11.130  68.282  1.00  0.00    -0.117 OA 
HETATM    7  O   UNL     2      -7.428  10.498  66.238  1.00  0.00    -0.120 OA 
ENDROOT
BRANCH   2   8
HETATM    8  C   UNL     2     -10.250  11.792  65.789  1.00  0.00    -0.239 C  
HETATM    9  H   UNL     2     -10.980  11.934  63.976  1.00  0.00     0.000 HD 
HETATM   10  O   UNL     2     -10.696  11.212  64.524  1.00  0.00    -0.336 OA 
BRANCH   8  11
HETATM   11  C   UNL     2     -11.402  12.730  66.261  1.00  0.00    -0.320 C  
HETATM   12  H   UNL     2     -12.965  12.511  67.402  1.00  0.00     0.000 HD 
HETATM   13  O   UNL     2     -12.263  11.940  67.113  1.00  0.00    -0.501 OA 
BRANCH  11  14
HETATM   14  C   UNL     2     -12.264  13.444  65.211  1.00  0.00    -0.440 C  
HETATM   15  C   UNL     2     -11.637  14.626  64.479  1.00  0.00    -0.370 C  
HETATM   16  O   UNL     2     -12.848  12.514  64.269  1.00  0.00    -0.708 OA 
HETATM   17  H   UNL     2     -13.381  12.956  63.619  1.00  0.00     0.000 HD 
HETATM   18  O   UNL     2     -10.472  15.047  64.740  1.00  0.00    -0.381 OA 
HETATM   19  O   UNL     2     -12.401  15.494  63.924  1.00  0.00    -0.653 OA 
ENDBRANCH  11  14
ENDBRANCH   8  11
ENDBRANCH   2   8
TORSDOF 3
ENDMDL
MODEL       98
REMARK 921   NORMALIZED FREE ENERGY PREDICTED BY IDOCK:   -4.17 KCAL/MOL
REMARK 922        TOTAL FREE ENERGY PREDICTED BY IDOCK:   -5.37 KCAL/MOL
REMARK 923 INTER-LIGAND FREE ENERGY PREDICTED BY IDOCK:   -4.83 KCAL/MOL
REMARK 924 INTRA-LIGAND FREE ENERGY PREDICTED BY IDOCK:   -0.54 KCAL/MOL
REMARK 927      BINDING AFFINITY PREDICTED BY RF-SCORE:    0.00 PKD
ROOT
HETATM    1 CA   UNL     1      -7.453  11.688  66.574  1.00  0.00    -0.122 Ca 
HETATM    2  C   UNL     2     -10.937  11.128  64.451  1.00  0.00    -0.200 C  
HETATM    3  H   UNL     2     -11.316  12.102  62.756  1.00  0.00     0.000 HD 
HETATM    4  C   UNL     2      -9.721  10.423  65.066  1.00  0.00    -0.300 C  
HETATM    5  O   UNL     2     -10.563  11.666  63.138  1.00  0.00    -0.347 OA 
HETATM    6  O   UNL     2      -9.881   9.364  65.702  1.00  0.00    -0.296 OA 
HETATM    7  O   UNL     2      -8.587  11.030  64.962  1.00  0.00    -0.110 OA 
ENDROOT
BRANCH   2   8
HETATM    8  C   UNL     2     -11.423  12.335  65.267  1.00  0.00    -0.351 C  
HETATM    9  H   UNL     2     -13.173  13.154  65.594  1.00  0.00     0.000 HD 
HETATM   10  O   UNL     2     -12.872  12.408  65.089  1.00  0.00    -0.609 OA 
BRANCH   8  11
HETATM   11  C   UNL     2     -11.177  12.392  66.805  1.00  0.00    -0.310 C  
HETATM   12  H   UNL     2     -11.967  11.513  68.353  1.00  0.00     0.000 HD 
HETATM   13  O   UNL     2     -12.118  11.479  67.415  1.00  0.00    -0.593 OA 
BRANCH  11  14
HETATM   14  C   UNL     2     -11.261  13.744  67.527  1.00  0.00    -0.294 C  
HETATM   15  C   UNL     2     -10.081  14.698  67.364  1.00  0.00    -0.232 C  
HETATM   16  O   UNL     2     -12.507  14.426  67.251  1.00  0.00    -0.601 OA 
HETATM   17  H   UNL     2     -12.559  15.263  67.698  1.00  0.00     0.000 HD 
HETATM   18  O   UNL     2      -9.046  14.392  66.705  1.00  0.00    -0.260 OA 
HETATM   19  O   UNL     2      -9.899  15.620  68.237  1.00  0.00    -0.207 OA 
ENDBRANCH  11  14
ENDBRANCH   8  11
ENDBRANCH   2   8
TORSDOF 3
ENDMDL
MODEL       99
REMARK 921   NORMALIZED FREE ENERGY PREDICTED BY IDOCK:   -4.16 KCAL/MOL
REMARK 922        TOTAL FREE ENERGY PREDICTED BY IDOCK:   -5.37 KCAL/MOL
REMARK 923 INTER-LIGAND FREE ENERGY PREDICTED BY IDOCK:   -4.94 KCAL/MOL
REMARK 924 INTRA-LIGAND FREE ENERGY PREDICTED BY IDOCK:   -0.42 KCAL/MOL
REMARK 927      BINDING AFFINITY PREDICTED BY RF-SCORE:    0.00 PKD
ROOT
HETATM    1 CA   UNL     1      -9.667  13.090  63.639  1.00  0.00    -0.482 Ca 
HETATM    2  C   UNL     2     -12.128  13.649  66.894  1.00  0.00    -0.386 C  
HETATM    3  H   UNL     2     -11.802  15.083  68.237  1.00  0.00     0.000 HD 
HETATM    4  C   UNL     2     -12.083  13.545  65.364  1.00  0.00    -0.415 C  
HETATM    5  O   UNL     2     -11.774  15.018  67.290  1.00  0.00    -0.330 OA 
HETATM    6  O   UNL     2     -12.943  12.868  64.769  1.00  0.00    -0.743 OA 
HETATM    7  O   UNL     2     -11.081  14.104  64.775  1.00  0.00    -0.358 OA 
ENDROOT
BRANCH   2   8
HETATM    8  C   UNL     2     -11.110  12.740  67.600  1.00  0.00    -0.258 C  
HETATM    9  H   UNL     2      -9.915  12.955  69.137  1.00  0.00     0.000 HD 
HETATM   10  O   UNL     2     -10.544  13.517  68.701  1.00  0.00    -0.244 OA 
BRANCH   8  11
HETATM   11  C   UNL     2     -11.567  11.386  68.221  1.00  0.00    -0.306 C  
HETATM   12  H   UNL     2     -12.554  10.875  69.820  1.00  0.00     0.000 HD 
HETATM   13  O   UNL     2     -12.275  11.701  69.442  1.00  0.00    -0.271 OA 
BRANCH  11  14
HETATM   14  C   UNL     2     -10.515  10.309  68.523  1.00  0.00    -0.192 C  
HETATM   15  C   UNL     2      -9.897   9.581  67.332  1.00  0.00    -0.170 C  
HETATM   16  O   UNL     2      -9.483  10.797  69.412  1.00  0.00    -0.384 OA 
HETATM   17  H   UNL     2      -8.832  10.130  69.599  1.00  0.00     0.000 HD 
HETATM   18  O   UNL     2     -10.253   9.807  66.139  1.00  0.00    -0.259 OA 
HETATM   19  O   UNL     2      -9.355   8.433  67.515  1.00  0.00    -0.143 OA 
ENDBRANCH  11  14
ENDBRANCH   8  11
ENDBRANCH   2   8
TORSDOF 3
ENDMDL
MODEL      100
REMARK 921   NORMALIZED FREE ENERGY PREDICTED BY IDOCK:   -4.16 KCAL/MOL
REMARK 922        TOTAL FREE ENERGY PREDICTED BY IDOCK:   -5.36 KCAL/MOL
REMARK 923 INTER-LIGAND FREE ENERGY PREDICTED BY IDOCK:   -4.81 KCAL/MOL
REMARK 924 INTRA-LIGAND FREE ENERGY PREDICTED BY IDOCK:   -0.55 KCAL/MOL
REMARK 927      BINDING AFFINITY PREDICTED BY RF-SCORE:    0.00 PKD
ROOT
HETATM    1 CA   UNL     1     -13.803   7.234  70.497  1.00  0.00    -0.599 Ca 
HETATM    2  C   UNL     2     -11.549  10.668  70.804  1.00  0.00    -0.292 C  
HETATM    3  H   UNL     2     -12.337  12.480  70.562  1.00  0.00     0.000 HD 
HETATM    4  C   UNL     2     -11.961   9.375  71.519  1.00  0.00    -0.382 C  
HETATM    5  O   UNL     2     -12.592  11.679  71.006  1.00  0.00    -0.378 OA 
HETATM    6  O   UNL     2     -11.099   8.698  72.111  1.00  0.00    -0.340 OA 
HETATM    7  O   UNL     2     -13.191   9.009  71.389  1.00  0.00    -0.326 OA 
ENDROOT
BRANCH   2   8
HETATM    8  C   UNL     2     -11.418  10.509  69.281  1.00  0.00    -0.256 C  
HETATM    9  H   UNL     2     -12.382  11.237  67.739  1.00  0.00     0.000 HD 
HETATM   10  O   UNL     2     -12.463  11.335  68.680  1.00  0.00    -0.442 OA 
BRANCH   8  11
HETATM   11  C   UNL     2     -10.092  10.904  68.563  1.00  0.00    -0.183 C  
HETATM   12  H   UNL     2      -8.199  10.704  68.974  1.00  0.00     0.000 HD 
HETATM   13  O   UNL     2      -9.007  10.464  69.412  1.00  0.00    -0.194 OA 
BRANCH  11  14
HETATM   14  C   UNL     2      -9.857  12.372  68.180  1.00  0.00    -0.213 C  
HETATM   15  C   UNL     2     -10.206  12.787  66.754  1.00  0.00    -0.239 C  
HETATM   16  O   UNL     2     -10.454  13.280  69.135  1.00  0.00    -0.425 OA 
HETATM   17  H   UNL     2     -10.308  14.189  68.898  1.00  0.00     0.000 HD 
HETATM   18  O   UNL     2     -10.632  11.964  65.892  1.00  0.00    -0.249 OA 
HETATM   19  O   UNL     2      -9.665  13.840  66.259  1.00  0.00    -0.286 OA 
ENDBRANCH  11  14
ENDBRANCH   8  11
ENDBRANCH   2   8
TORSDOF 3
ENDMDL
MODEL      101
REMARK 921   NORMALIZED FREE ENERGY PREDICTED BY IDOCK:   -4.15 KCAL/MOL
REMARK 922        TOTAL FREE ENERGY PREDICTED BY IDOCK:   -5.35 KCAL/MOL
REMARK 923 INTER-LIGAND FREE ENERGY PREDICTED BY IDOCK:   -5.36 KCAL/MOL
REMARK 924 INTRA-LIGAND FREE ENERGY PREDICTED BY IDOCK:    0.01 KCAL/MOL
REMARK 927      BINDING AFFINITY PREDICTED BY RF-SCORE:    0.00 PKD
ROOT
HETATM    1 CA   UNL     1      -8.695  15.800  69.813  1.00  0.00    -0.217 Ca 
HETATM    2  C   UNL     2     -12.106  13.637  69.007  1.00  0.00    -0.309 C  
HETATM    3  H   UNL     2     -12.545  11.949  69.968  1.00  0.00     0.000 HD 
HETATM    4  C   UNL     2     -11.565  15.018  69.400  1.00  0.00    -0.315 C  
HETATM    5  O   UNL     2     -12.210  12.805  70.211  1.00  0.00    -0.334 OA 
HETATM    6  O   UNL     2     -12.022  16.037  68.848  1.00  0.00    -0.348 OA 
HETATM    7  O   UNL     2     -10.582  15.037  70.235  1.00  0.00    -0.192 OA 
ENDROOT
BRANCH   2   8
HETATM    8  C   UNL     2     -11.183  12.866  68.052  1.00  0.00    -0.268 C  
HETATM    9  H   UNL     2     -11.278  11.125  67.158  1.00  0.00     0.000 HD 
HETATM   10  O   UNL     2     -11.850  11.602  67.749  1.00  0.00    -0.564 OA 
BRANCH   8  11
HETATM   11  C   UNL     2     -10.787  13.483  66.676  1.00  0.00    -0.283 C  
HETATM   12  H   UNL     2      -9.519  14.844  66.099  1.00  0.00     0.000 HD 
HETATM   13  O   UNL     2      -9.761  14.469  66.938  1.00  0.00    -0.237 OA 
BRANCH  11  14
HETATM   14  C   UNL     2     -11.874  14.120  65.801  1.00  0.00    -0.380 C  
HETATM   15  C   UNL     2     -12.060  13.556  64.395  1.00  0.00    -0.420 C  
HETATM   16  O   UNL     2     -13.144  14.198  66.490  1.00  0.00    -0.302 OA 
HETATM   17  H   UNL     2     -13.818  14.593  65.947  1.00  0.00     0.000 HD 
HETATM   18  O   UNL     2     -11.331  12.632  63.932  1.00  0.00    -0.377 OA 
HETATM   19  O   UNL     2     -12.628  14.281  63.502  1.00  0.00    -0.814 OA 
ENDBRANCH  11  14
ENDBRANCH   8  11
ENDBRANCH   2   8
TORSDOF 3
ENDMDL
MODEL      102
REMARK 921   NORMALIZED FREE ENERGY PREDICTED BY IDOCK:   -4.15 KCAL/MOL
REMARK 922        TOTAL FREE ENERGY PREDICTED BY IDOCK:   -5.35 KCAL/MOL
REMARK 923 INTER-LIGAND FREE ENERGY PREDICTED BY IDOCK:   -4.87 KCAL/MOL
REMARK 924 INTRA-LIGAND FREE ENERGY PREDICTED BY IDOCK:   -0.49 KCAL/MOL
REMARK 927      BINDING AFFINITY PREDICTED BY RF-SCORE:    0.00 PKD
ROOT
HETATM    1 CA   UNL     1      -9.858  16.306  69.103  1.00  0.00    -0.185 Ca 
HETATM    2  C   UNL     2     -10.677  14.295  65.603  1.00  0.00    -0.316 C  
HETATM    3  H   UNL     2     -11.878  15.046  64.204  1.00  0.00     0.000 HD 
HETATM    4  C   UNL     2      -9.557  14.840  66.499  1.00  0.00    -0.284 C  
HETATM    5  O   UNL     2     -11.185  15.383  64.759  1.00  0.00    -0.413 OA 
HETATM    6  O   UNL     2      -8.554  14.137  66.725  1.00  0.00    -0.181 OA 
HETATM    7  O   UNL     2      -9.765  15.987  67.051  1.00  0.00    -0.223 OA 
ENDROOT
BRANCH   2   8
HETATM    8  C   UNL     2     -11.893  13.780  66.388  1.00  0.00    -0.404 C  
HETATM    9  H   UNL     2     -13.339  12.516  66.001  1.00  0.00     0.000 HD 
HETATM   10  O   UNL     2     -12.588  12.835  65.516  1.00  0.00    -0.611 OA 
BRANCH   8  11
HETATM   11  C   UNL     2     -11.695  13.045  67.747  1.00  0.00    -0.359 C  
HETATM   12  H   UNL     2     -12.033  11.238  68.389  1.00  0.00     0.000 HD 
HETATM   13  O   UNL     2     -12.154  11.686  67.561  1.00  0.00    -0.611 OA 
BRANCH  11  14
HETATM   14  C   UNL     2     -12.351  13.619  69.011  1.00  0.00    -0.041 C  
HETATM   15  C   UNL     2     -12.097  12.887  70.325  1.00  0.00    -0.302 C  
HETATM   16  O   UNL     2     -12.089  15.035  69.159  1.00  0.00    -0.466 OA 
HETATM   17  H   UNL     2     -12.495  15.390  69.941  1.00  0.00     0.000 HD 
HETATM   18  O   UNL     2     -11.415  11.823  70.389  1.00  0.00    -0.145 OA 
HETATM   19  O   UNL     2     -12.915  13.051  71.300  1.00  0.00    -0.324 OA 
ENDBRANCH  11  14
ENDBRANCH   8  11
ENDBRANCH   2   8
TORSDOF 3
ENDMDL
MODEL      103
REMARK 921   NORMALIZED FREE ENERGY PREDICTED BY IDOCK:   -4.14 KCAL/MOL
REMARK 922        TOTAL FREE ENERGY PREDICTED BY IDOCK:   -5.34 KCAL/MOL
REMARK 923 INTER-LIGAND FREE ENERGY PREDICTED BY IDOCK:   -4.87 KCAL/MOL
REMARK 924 INTRA-LIGAND FREE ENERGY PREDICTED BY IDOCK:   -0.46 KCAL/MOL
REMARK 927      BINDING AFFINITY PREDICTED BY RF-SCORE:    0.00 PKD
ROOT
HETATM    1 CA   UNL     1     -12.170  16.128  63.238  1.00  0.00    -0.896 Ca 
HETATM    2  C   UNL     2     -10.962  14.406  66.779  1.00  0.00    -0.314 C  
HETATM    3  H   UNL     2     -12.157  14.299  68.369  1.00  0.00     0.000 HD 
HETATM    4  C   UNL     2     -11.118  14.183  65.269  1.00  0.00    -0.331 C  
HETATM    5  O   UNL     2     -12.252  14.160  67.434  1.00  0.00    -0.380 OA 
HETATM    6  O   UNL     2     -10.200  13.631  64.632  1.00  0.00    -0.404 OA 
HETATM    7  O   UNL     2     -12.178  14.670  64.718  1.00  0.00    -0.423 OA 
ENDROOT
BRANCH   2   8
HETATM    8  C   UNL     2     -10.581  15.848  67.148  1.00  0.00    -0.316 C  
HETATM    9  H   UNL     2     -11.228  17.141  68.470  1.00  0.00     0.000 HD 
HETATM   10  O   UNL     2     -11.464  16.250  68.242  1.00  0.00    -0.333 OA 
BRANCH   8  11
HETATM   11  C   UNL     2      -9.134  16.181  67.620  1.00  0.00    -0.196 C  
HETATM   12  H   UNL     2      -8.119  15.868  69.252  1.00  0.00     0.000 HD 
HETATM   13  O   UNL     2      -9.001  15.665  68.964  1.00  0.00    -0.202 OA 
BRANCH  11  14
HETATM   14  C   UNL     2      -8.657  17.640  67.600  1.00  0.00    -0.224 C  
HETATM   15  C   UNL     2      -7.908  18.114  66.358  1.00  0.00    -0.262 C  
HETATM   16  O   UNL     2      -9.723  18.560  67.934  1.00  0.00    -0.294 OA 
HETATM   17  H   UNL     2      -9.427  19.463  67.921  1.00  0.00     0.000 HD 
HETATM   18  O   UNL     2      -7.641  17.343  65.391  1.00  0.00    -0.089 OA 
HETATM   19  O   UNL     2      -7.146  19.142  66.442  1.00  0.00    -0.207 OA 
ENDBRANCH  11  14
ENDBRANCH   8  11
ENDBRANCH   2   8
TORSDOF 3
ENDMDL
MODEL      104
REMARK 921   NORMALIZED FREE ENERGY PREDICTED BY IDOCK:   -4.12 KCAL/MOL
REMARK 922        TOTAL FREE ENERGY PREDICTED BY IDOCK:   -5.32 KCAL/MOL
REMARK 923 INTER-LIGAND FREE ENERGY PREDICTED BY IDOCK:   -5.04 KCAL/MOL
REMARK 924 INTRA-LIGAND FREE ENERGY PREDICTED BY IDOCK:   -0.29 KCAL/MOL
REMARK 927      BINDING AFFINITY PREDICTED BY RF-SCORE:    0.00 PKD
ROOT
HETATM    1 CA   UNL     1      -7.137  18.063  65.124  1.00  0.00    -0.244 Ca 
HETATM    2  C   UNL     2     -10.545  18.158  67.434  1.00  0.00    -0.388 C  
HETATM    3  H   UNL     2     -10.766  17.013  69.048  1.00  0.00     0.000 HD 
HETATM    4  C   UNL     2      -9.417  19.008  66.834  1.00  0.00    -0.316 C  
HETATM    5  O   UNL     2     -10.068  17.539  68.676  1.00  0.00    -0.322 OA 
HETATM    6  O   UNL     2      -9.687  20.102  66.304  1.00  0.00    -0.412 OA 
HETATM    7  O   UNL     2      -8.237  18.486  66.835  1.00  0.00    -0.243 OA 
ENDROOT
BRANCH   2   8
HETATM    8  C   UNL     2     -10.979  16.992  66.533  1.00  0.00     0.191 C  
HETATM    9  H   UNL     2     -10.806  16.599  64.622  1.00  0.00     0.000 HD 
HETATM   10  O   UNL     2     -10.538  17.320  65.179  1.00  0.00    -0.686 OA 
BRANCH   8  11
HETATM   11  C   UNL     2     -10.464  15.549  66.815  1.00  0.00    -0.295 C  
HETATM   12  H   UNL     2      -8.744  14.650  66.644  1.00  0.00     0.000 HD 
HETATM   13  O   UNL     2      -9.059  15.530  66.472  1.00  0.00    -0.252 OA 
BRANCH  11  14
HETATM   14  C   UNL     2     -11.155  14.361  66.133  1.00  0.00    -0.330 C  
HETATM   15  C   UNL     2     -11.906  13.380  67.029  1.00  0.00    -0.394 C  
HETATM   16  O   UNL     2     -11.991  14.783  65.030  1.00  0.00    -0.366 OA 
HETATM   17  H   UNL     2     -12.419  14.048  64.608  1.00  0.00     0.000 HD 
HETATM   18  O   UNL     2     -11.934  13.496  68.289  1.00  0.00    -0.356 OA 
HETATM   19  O   UNL     2     -12.136  12.193  66.601  1.00  0.00    -0.622 OA 
ENDBRANCH  11  14
ENDBRANCH   8  11
ENDBRANCH   2   8
TORSDOF 3
ENDMDL
MODEL      105
REMARK 921   NORMALIZED FREE ENERGY PREDICTED BY IDOCK:   -4.09 KCAL/MOL
REMARK 922        TOTAL FREE ENERGY PREDICTED BY IDOCK:   -5.28 KCAL/MOL
REMARK 923 INTER-LIGAND FREE ENERGY PREDICTED BY IDOCK:   -5.00 KCAL/MOL
REMARK 924 INTRA-LIGAND FREE ENERGY PREDICTED BY IDOCK:   -0.28 KCAL/MOL
REMARK 927      BINDING AFFINITY PREDICTED BY RF-SCORE:    0.00 PKD
ROOT
HETATM    1 CA   UNL     1      -7.848  10.396  68.227  1.00  0.00    -0.089 Ca 
HETATM    2  C   UNL     2      -9.045  14.204  67.212  1.00  0.00    -0.213 C  
HETATM    3  H   UNL     2     -10.644  15.067  68.025  1.00  0.00     0.000 HD 
HETATM    4  C   UNL     2      -7.873  13.356  67.723  1.00  0.00    -0.158 C  
HETATM    5  O   UNL     2      -9.918  14.542  68.341  1.00  0.00    -0.227 OA 
HETATM    6  O   UNL     2      -6.733  13.537  67.253  1.00  0.00    -0.211 OA 
HETATM    7  O   UNL     2      -8.158  12.423  68.566  1.00  0.00    -0.148 OA 
ENDROOT
BRANCH   2   8
HETATM    8  C   UNL     2      -9.940  13.466  66.204  1.00  0.00    -0.294 C  
HETATM    9  H   UNL     2     -11.668  12.550  66.320  1.00  0.00     0.000 HD 
HETATM   10  O   UNL     2     -11.114  13.006  66.943  1.00  0.00    -0.264 OA 
BRANCH   8  11
HETATM   11  C   UNL     2     -10.487  14.210  64.949  1.00  0.00    -0.438 C  
HETATM   12  H   UNL     2     -10.809  16.076  64.495  1.00  0.00     0.000 HD 
HETATM   13  O   UNL     2     -10.476  15.623  65.260  1.00  0.00    -0.379 OA 
BRANCH  11  14
HETATM   14  C   UNL     2     -11.870  13.835  64.400  1.00  0.00    -0.427 C  
HETATM   15  C   UNL     2     -12.026  12.446  63.787  1.00  0.00    -0.514 C  
HETATM   16  O   UNL     2     -12.919  14.086  65.364  1.00  0.00    -0.726 OA 
HETATM   17  H   UNL     2     -13.776  13.854  65.024  1.00  0.00     0.000 HD 
HETATM   18  O   UNL     2     -11.059  11.637  63.684  1.00  0.00    -0.395 OA 
HETATM   19  O   UNL     2     -12.987  12.231  62.965  1.00  0.00    -0.516 OA 
ENDBRANCH  11  14
ENDBRANCH   8  11
ENDBRANCH   2   8
TORSDOF 3
ENDMDL
MODEL      106
REMARK 921   NORMALIZED FREE ENERGY PREDICTED BY IDOCK:   -4.08 KCAL/MOL
REMARK 922        TOTAL FREE ENERGY PREDICTED BY IDOCK:   -5.27 KCAL/MOL
REMARK 923 INTER-LIGAND FREE ENERGY PREDICTED BY IDOCK:   -5.28 KCAL/MOL
REMARK 924 INTRA-LIGAND FREE ENERGY PREDICTED BY IDOCK:    0.01 KCAL/MOL
REMARK 927      BINDING AFFINITY PREDICTED BY RF-SCORE:    0.00 PKD
ROOT
HETATM    1 CA   UNL     1      -8.377  12.161  62.889  1.00  0.00    -0.453 Ca 
HETATM    2  C   UNL     2     -11.493  13.966  64.887  1.00  0.00    -0.350 C  
HETATM    3  H   UNL     2     -12.574  15.425  64.070  1.00  0.00     0.000 HD 
HETATM    4  C   UNL     2     -10.922  12.623  64.414  1.00  0.00    -0.351 C  
HETATM    5  O   UNL     2     -12.221  14.594  63.777  1.00  0.00    -0.581 OA 
HETATM    6  O   UNL     2     -10.929  11.646  65.186  1.00  0.00    -0.294 OA 
HETATM    7  O   UNL     2     -10.375  12.607  63.246  1.00  0.00    -0.308 OA 
ENDROOT
BRANCH   2   8
HETATM    8  C   UNL     2     -10.414  14.980  65.297  1.00  0.00    -0.403 C  
HETATM    9  H   UNL     2     -10.079  16.867  64.889  1.00  0.00     0.000 HD 
HETATM   10  O   UNL     2     -10.746  16.241  64.636  1.00  0.00    -0.670 OA 
BRANCH   8  11
HETATM   11  C   UNL     2     -10.194  15.328  66.800  1.00  0.00    -0.272 C  
HETATM   12  H   UNL     2     -10.449  16.922  67.888  1.00  0.00     0.000 HD 
HETATM   13  O   UNL     2     -10.582  16.710  66.972  1.00  0.00    -0.311 OA 
BRANCH  11  14
HETATM   14  C   UNL     2      -8.805  15.123  67.421  1.00  0.00    -0.186 C  
HETATM   15  C   UNL     2      -7.672  16.005  66.905  1.00  0.00    -0.244 C  
HETATM   16  O   UNL     2      -8.852  15.148  68.867  1.00  0.00    -0.183 OA 
HETATM   17  H   UNL     2      -7.992  15.021  69.251  1.00  0.00     0.000 HD 
HETATM   18  O   UNL     2      -7.835  16.845  65.974  1.00  0.00    -0.376 OA 
HETATM   19  O   UNL     2      -6.459  15.618  67.062  1.00  0.00    -0.295 OA 
ENDBRANCH  11  14
ENDBRANCH   8  11
ENDBRANCH   2   8
TORSDOF 3
ENDMDL
MODEL      107
REMARK 921   NORMALIZED FREE ENERGY PREDICTED BY IDOCK:   -4.08 KCAL/MOL
REMARK 922        TOTAL FREE ENERGY PREDICTED BY IDOCK:   -5.27 KCAL/MOL
REMARK 923 INTER-LIGAND FREE ENERGY PREDICTED BY IDOCK:   -5.83 KCAL/MOL
REMARK 924 INTRA-LIGAND FREE ENERGY PREDICTED BY IDOCK:    0.56 KCAL/MOL
REMARK 927      BINDING AFFINITY PREDICTED BY RF-SCORE:    0.00 PKD
ROOT
HETATM    1 CA   UNL     1     -11.428  17.010  64.250  1.00  0.00    -0.499 Ca 
HETATM    2  C   UNL     2     -10.341  16.785  68.217  1.00  0.00    -0.319 C  
HETATM    3  H   UNL     2      -9.120  15.371  68.904  1.00  0.00     0.000 HD 
HETATM    4  C   UNL     2     -10.386  17.695  66.982  1.00  0.00    -0.330 C  
HETATM    5  O   UNL     2      -9.148  15.934  68.140  1.00  0.00    -0.180 OA 
HETATM    6  O   UNL     2     -10.764  18.876  67.102  1.00  0.00    -0.439 OA 
HETATM    7  O   UNL     2     -10.107  17.146  65.849  1.00  0.00    -0.472 OA 
ENDROOT
BRANCH   2   8
HETATM    8  C   UNL     2     -11.532  15.818  68.308  1.00  0.00    -0.337 C  
HETATM    9  H   UNL     2     -12.193  14.349  67.193  1.00  0.00     0.000 HD 
HETATM   10  O   UNL     2     -11.457  14.947  67.136  1.00  0.00    -0.352 OA 
BRANCH   8  11
HETATM   11  C   UNL     2     -11.682  14.873  69.537  1.00  0.00    -0.320 C  
HETATM   12  H   UNL     2     -12.259  13.029  69.786  1.00  0.00     0.000 HD 
HETATM   13  O   UNL     2     -12.167  13.606  69.036  1.00  0.00    -0.334 OA 
BRANCH  11  14
HETATM   14  C   UNL     2     -12.566  15.310  70.714  1.00  0.00    -0.417 C  
HETATM   15  C   UNL     2     -13.091  14.216  71.639  1.00  0.00    -0.351 C  
HETATM   16  O   UNL     2     -11.955  16.374  71.481  1.00  0.00    -0.640 OA 
HETATM   17  H   UNL     2     -12.502  16.645  72.209  1.00  0.00     0.000 HD 
HETATM   18  O   UNL     2     -12.858  12.989  71.439  1.00  0.00    -0.363 OA 
HETATM   19  O   UNL     2     -14.130  14.448  72.355  1.00  0.00    -0.477 OA 
ENDBRANCH  11  14
ENDBRANCH   8  11
ENDBRANCH   2   8
TORSDOF 3
ENDMDL
MODEL      108
REMARK 921   NORMALIZED FREE ENERGY PREDICTED BY IDOCK:   -4.08 KCAL/MOL
REMARK 922        TOTAL FREE ENERGY PREDICTED BY IDOCK:   -5.27 KCAL/MOL
REMARK 923 INTER-LIGAND FREE ENERGY PREDICTED BY IDOCK:   -4.79 KCAL/MOL
REMARK 924 INTRA-LIGAND FREE ENERGY PREDICTED BY IDOCK:   -0.47 KCAL/MOL
REMARK 927      BINDING AFFINITY PREDICTED BY RF-SCORE:    0.00 PKD
ROOT
HETATM    1 CA   UNL     1     -11.705  11.701  63.070  1.00  0.00    -0.434 Ca 
HETATM    2  C   UNL     2     -11.532  15.189  65.253  1.00  0.00    -0.266 C  
HETATM    3  H   UNL     2     -10.657  16.836  64.555  1.00  0.00     0.000 HD 
HETATM    4  C   UNL     2     -12.469  14.116  64.684  1.00  0.00    -0.350 C  
HETATM    5  O   UNL     2     -11.237  16.171  64.203  1.00  0.00    -0.661 OA 
HETATM    6  O   UNL     2     -13.384  13.659  65.395  1.00  0.00    -0.615 OA 
HETATM    7  O   UNL     2     -12.193  13.674  63.504  1.00  0.00    -0.618 OA 
ENDROOT
BRANCH   2   8
HETATM    8  C   UNL     2     -10.168  14.639  65.697  1.00  0.00    -0.359 C  
HETATM    9  H   UNL     2      -8.488  15.453  66.292  1.00  0.00     0.000 HD 
HETATM   10  O   UNL     2      -9.331  15.794  66.017  1.00  0.00    -0.317 OA 
BRANCH   8  11
HETATM   11  C   UNL     2     -10.069  13.683  66.924  1.00  0.00    -0.260 C  
HETATM   12  H   UNL     2     -10.550  13.817  68.806  1.00  0.00     0.000 HD 
HETATM   13  O   UNL     2     -10.610  14.399  68.058  1.00  0.00    -0.236 OA 
BRANCH  11  14
HETATM   14  C   UNL     2      -8.703  13.101  67.311  1.00  0.00    -0.210 C  
HETATM   15  C   UNL     2      -8.171  11.946  66.468  1.00  0.00    -0.026 C  
HETATM   16  O   UNL     2      -7.698  14.132  67.453  1.00  0.00    -0.180 OA 
HETATM   17  H   UNL     2      -6.852  13.772  67.693  1.00  0.00     0.000 HD 
HETATM   18  O   UNL     2      -8.830  11.442  65.513  1.00  0.00    -0.148 OA 
HETATM   19  O   UNL     2      -7.281  11.167  66.967  1.00  0.00    -0.112 OA 
ENDBRANCH  11  14
ENDBRANCH   8  11
ENDBRANCH   2   8
TORSDOF 3
ENDMDL
MODEL      109
REMARK 921   NORMALIZED FREE ENERGY PREDICTED BY IDOCK:   -4.06 KCAL/MOL
REMARK 922        TOTAL FREE ENERGY PREDICTED BY IDOCK:   -5.25 KCAL/MOL
REMARK 923 INTER-LIGAND FREE ENERGY PREDICTED BY IDOCK:   -4.88 KCAL/MOL
REMARK 924 INTRA-LIGAND FREE ENERGY PREDICTED BY IDOCK:   -0.37 KCAL/MOL
REMARK 927      BINDING AFFINITY PREDICTED BY RF-SCORE:    0.00 PKD
ROOT
HETATM    1 CA   UNL     1      -9.542  19.665  69.894  1.00  0.00    -0.317 Ca 
HETATM    2  C   UNL     2      -8.413  17.075  66.898  1.00  0.00    -0.216 C  
HETATM    3  H   UNL     2      -8.186  17.669  65.011  1.00  0.00     0.000 HD 
HETATM    4  C   UNL     2      -8.038  17.629  68.278  1.00  0.00    -0.278 C  
HETATM    5  O   UNL     2      -7.954  18.012  65.866  1.00  0.00    -0.521 OA 
HETATM    6  O   UNL     2      -7.644  16.850  69.167  1.00  0.00    -0.233 OA 
HETATM    7  O   UNL     2      -8.242  18.888  68.471  1.00  0.00    -0.331 OA 
ENDROOT
BRANCH   2   8
HETATM    8  C   UNL     2      -9.928  16.938  66.684  1.00  0.00    -0.296 C  
HETATM    9  H   UNL     2     -11.085  16.807  65.108  1.00  0.00     0.000 HD 
HETATM   10  O   UNL     2     -10.148  16.892  65.240  1.00  0.00    -0.577 OA 
BRANCH   8  11
HETATM   11  C   UNL     2     -10.696  15.717  67.274  1.00  0.00    -0.305 C  
HETATM   12  H   UNL     2     -11.410  15.265  69.029  1.00  0.00     0.000 HD 
HETATM   13  O   UNL     2     -10.941  16.009  68.669  1.00  0.00    -0.285 OA 
BRANCH  11  14
HETATM   14  C   UNL     2     -10.076  14.317  67.164  1.00  0.00    -0.254 C  
HETATM   15  C   UNL     2     -10.956  13.130  67.543  1.00  0.00    -0.263 C  
HETATM   16  O   UNL     2      -9.459  14.102  65.873  1.00  0.00    -0.484 OA 
HETATM   17  H   UNL     2      -9.075  13.235  65.804  1.00  0.00     0.000 HD 
HETATM   18  O   UNL     2     -12.136  13.270  67.975  1.00  0.00    -0.332 OA 
HETATM   19  O   UNL     2     -10.401  12.020  67.868  1.00  0.00    -0.189 OA 
ENDBRANCH  11  14
ENDBRANCH   8  11
ENDBRANCH   2   8
TORSDOF 3
ENDMDL
MODEL      110
REMARK 921   NORMALIZED FREE ENERGY PREDICTED BY IDOCK:   -4.05 KCAL/MOL
REMARK 922        TOTAL FREE ENERGY PREDICTED BY IDOCK:   -5.24 KCAL/MOL
REMARK 923 INTER-LIGAND FREE ENERGY PREDICTED BY IDOCK:   -4.70 KCAL/MOL
REMARK 924 INTRA-LIGAND FREE ENERGY PREDICTED BY IDOCK:   -0.54 KCAL/MOL
REMARK 927      BINDING AFFINITY PREDICTED BY RF-SCORE:    0.00 PKD
ROOT
HETATM    1 CA   UNL     1      -9.751   8.519  74.439  1.00  0.00    -0.141 Ca 
HETATM    2  C   UNL     2     -11.838   8.972  70.918  1.00  0.00    -0.253 C  
HETATM    3  H   UNL     2     -11.197   8.200  69.198  1.00  0.00     0.000 HD 
HETATM    4  C   UNL     2     -11.929   8.493  72.372  1.00  0.00    -0.364 C  
HETATM    5  O   UNL     2     -11.254   7.904  70.098  1.00  0.00    -0.242 OA 
HETATM    6  O   UNL     2     -12.924   8.795  73.057  1.00  0.00    -0.286 OA 
HETATM    7  O   UNL     2     -10.904   7.864  72.839  1.00  0.00    -0.362 OA 
ENDROOT
BRANCH   2   8
HETATM    8  C   UNL     2     -10.914  10.186  70.730  1.00  0.00    -0.242 C  
HETATM    9  H   UNL     2      -9.162  10.460  69.899  1.00  0.00     0.000 HD 
HETATM   10  O   UNL     2      -9.732   9.710  70.015  1.00  0.00    -0.213 OA 
BRANCH   8  11
HETATM   11  C   UNL     2     -11.414  11.438  69.948  1.00  0.00    -0.273 C  
HETATM   12  H   UNL     2     -12.829  12.748  70.220  1.00  0.00     0.000 HD 
HETATM   13  O   UNL     2     -12.525  11.984  70.696  1.00  0.00    -0.315 OA 
BRANCH  11  14
HETATM   14  C   UNL     2     -11.834  11.285  68.479  1.00  0.00    -0.285 C  
HETATM   15  C   UNL     2     -11.402  12.382  67.511  1.00  0.00    -0.315 C  
HETATM   16  O   UNL     2     -11.493   9.981  67.954  1.00  0.00    -0.595 OA 
HETATM   17  H   UNL     2     -11.753   9.886  67.045  1.00  0.00     0.000 HD 
HETATM   18  O   UNL     2     -10.762  13.407  67.887  1.00  0.00    -0.238 OA 
HETATM   19  O   UNL     2     -12.044  12.533  66.411  1.00  0.00    -0.576 OA 
ENDBRANCH  11  14
ENDBRANCH   8  11
ENDBRANCH   2   8
TORSDOF 3
ENDMDL
MODEL      111
REMARK 921   NORMALIZED FREE ENERGY PREDICTED BY IDOCK:   -4.05 KCAL/MOL
REMARK 922        TOTAL FREE ENERGY PREDICTED BY IDOCK:   -5.23 KCAL/MOL
REMARK 923 INTER-LIGAND FREE ENERGY PREDICTED BY IDOCK:   -4.59 KCAL/MOL
REMARK 924 INTRA-LIGAND FREE ENERGY PREDICTED BY IDOCK:   -0.64 KCAL/MOL
REMARK 927      BINDING AFFINITY PREDICTED BY RF-SCORE:    0.00 PKD
ROOT
HETATM    1 CA   UNL     1     -11.570  17.310  64.186  1.00  0.00    -0.378 Ca 
HETATM    2  C   UNL     2     -10.103  16.162  67.859  1.00  0.00    -0.244 C  
HETATM    3  H   UNL     2      -8.611  14.856  68.045  1.00  0.00     0.000 HD 
HETATM    4  C   UNL     2     -10.407  17.363  66.954  1.00  0.00    -0.317 C  
HETATM    5  O   UNL     2      -8.800  15.600  67.485  1.00  0.00    -0.175 OA 
HETATM    6  O   UNL     2     -10.959  18.371  67.436  1.00  0.00    -0.351 OA 
HETATM    7  O   UNL     2     -10.148  17.221  65.699  1.00  0.00    -0.566 OA 
ENDROOT
BRANCH   2   8
HETATM    8  C   UNL     2     -11.107  15.010  67.706  1.00  0.00    -0.310 C  
HETATM    9  H   UNL     2     -11.233  13.447  66.531  1.00  0.00     0.000 HD 
HETATM   10  O   UNL     2     -10.612  14.159  66.625  1.00  0.00    -0.275 OA 
BRANCH   8  11
HETATM   11  C   UNL     2     -11.396  14.056  68.904  1.00  0.00    -0.280 C  
HETATM   12  H   UNL     2     -11.456  14.268  70.839  1.00  0.00     0.000 HD 
HETATM   13  O   UNL     2     -11.279  14.849  70.109  1.00  0.00    -0.248 OA 
BRANCH  11  14
HETATM   14  C   UNL     2     -10.556  12.782  69.067  1.00  0.00    -0.045 C  
HETATM   15  C   UNL     2     -11.128  11.489  68.491  1.00  0.00    -0.236 C  
HETATM   16  O   UNL     2      -9.192  12.976  68.625  1.00  0.00    -0.375 OA 
HETATM   17  H   UNL     2      -8.672  12.187  68.726  1.00  0.00     0.000 HD 
HETATM   18  O   UNL     2     -12.264  11.436  67.939  1.00  0.00    -0.592 OA 
HETATM   19  O   UNL     2     -10.704  10.365  68.941  1.00  0.00    -0.197 OA 
ENDBRANCH  11  14
ENDBRANCH   8  11
ENDBRANCH   2   8
TORSDOF 3
ENDMDL
MODEL      112
REMARK 921   NORMALIZED FREE ENERGY PREDICTED BY IDOCK:   -4.03 KCAL/MOL
REMARK 922        TOTAL FREE ENERGY PREDICTED BY IDOCK:   -5.21 KCAL/MOL
REMARK 923 INTER-LIGAND FREE ENERGY PREDICTED BY IDOCK:   -4.74 KCAL/MOL
REMARK 924 INTRA-LIGAND FREE ENERGY PREDICTED BY IDOCK:   -0.47 KCAL/MOL
REMARK 927      BINDING AFFINITY PREDICTED BY RF-SCORE:    0.00 PKD
ROOT
HETATM    1 CA   UNL     1      -6.728  17.965  70.029  1.00  0.00    -0.226 Ca 
HETATM    2  C   UNL     2      -8.658  18.817  66.492  1.00  0.00    -0.305 C  
HETATM    3  H   UNL     2     -10.027  20.255  66.350  1.00  0.00     0.000 HD 
HETATM    4  C   UNL     2      -7.287  18.666  67.164  1.00  0.00    -0.210 C  
HETATM    5  O   UNL     2      -9.178  20.161  66.765  1.00  0.00    -0.355 OA 
HETATM    6  O   UNL     2      -6.379  18.047  66.576  1.00  0.00    -0.175 OA 
HETATM    7  O   UNL     2      -7.177  19.124  68.364  1.00  0.00    -0.271 OA 
ENDROOT
BRANCH   2   8
HETATM    8  C   UNL     2      -9.717  17.846  67.038  1.00  0.00    -0.298 C  
HETATM    9  H   UNL     2     -11.565  18.041  67.657  1.00  0.00     0.000 HD 
HETATM   10  O   UNL     2     -10.911  18.641  67.320  1.00  0.00    -0.426 OA 
BRANCH   8  11
HETATM   11  C   UNL     2     -10.196  16.641  66.174  1.00  0.00    -0.348 C  
HETATM   12  H   UNL     2     -11.065  16.458  64.441  1.00  0.00     0.000 HD 
HETATM   13  O   UNL     2     -10.773  17.192  64.968  1.00  0.00    -0.712 OA 
BRANCH  11  14
HETATM   14  C   UNL     2     -11.183  15.633  66.779  1.00  0.00    -0.083 C  
HETATM   15  C   UNL     2     -10.972  14.159  66.441  1.00  0.00    -0.311 C  
HETATM   16  O   UNL     2     -11.329  15.811  68.207  1.00  0.00    -0.344 OA 
HETATM   17  H   UNL     2     -11.940  15.186  68.581  1.00  0.00     0.000 HD 
HETATM   18  O   UNL     2     -10.056  13.766  65.662  1.00  0.00    -0.302 OA 
HETATM   19  O   UNL     2     -11.957  13.345  66.555  1.00  0.00    -0.374 OA 
ENDBRANCH  11  14
ENDBRANCH   8  11
ENDBRANCH   2   8
TORSDOF 3
ENDMDL
MODEL      113
REMARK 921   NORMALIZED FREE ENERGY PREDICTED BY IDOCK:   -4.03 KCAL/MOL
REMARK 922        TOTAL FREE ENERGY PREDICTED BY IDOCK:   -5.21 KCAL/MOL
REMARK 923 INTER-LIGAND FREE ENERGY PREDICTED BY IDOCK:   -4.80 KCAL/MOL
REMARK 924 INTRA-LIGAND FREE ENERGY PREDICTED BY IDOCK:   -0.41 KCAL/MOL
REMARK 927      BINDING AFFINITY PREDICTED BY RF-SCORE:    0.00 PKD
ROOT
HETATM    1 CA   UNL     1     -11.254   7.184  74.156  1.00  0.00    -0.502 Ca 
HETATM    2  C   UNL     2     -11.578   6.671  70.083  1.00  0.00    -0.386 C  
HETATM    3  H   UNL     2     -10.411   5.411  69.075  1.00  0.00     0.000 HD 
HETATM    4  C   UNL     2     -12.344   6.638  71.412  1.00  0.00    -0.294 C  
HETATM    5  O   UNL     2     -10.886   5.391  69.898  1.00  0.00    -0.298 OA 
HETATM    6  O   UNL     2     -13.472   7.161  71.485  1.00  0.00    -0.383 OA 
HETATM    7  O   UNL     2     -11.723   6.135  72.425  1.00  0.00    -0.304 OA 
ENDROOT
BRANCH   2   8
HETATM    8  C   UNL     2     -10.480   7.744  70.036  1.00  0.00    -0.230 C  
HETATM    9  H   UNL     2      -8.635   7.790  69.378  1.00  0.00     0.000 HD 
HETATM   10  O   UNL     2      -9.314   7.127  69.407  1.00  0.00    -0.148 OA 
BRANCH   8  11
HETATM   11  C   UNL     2     -10.722   9.082  69.273  1.00  0.00    -0.174 C  
HETATM   12  H   UNL     2      -9.644  10.206  68.104  1.00  0.00     0.000 HD 
HETATM   13  O   UNL     2      -9.496   9.391  68.570  1.00  0.00    -0.144 OA 
BRANCH  11  14
HETATM   14  C   UNL     2     -11.167  10.322  70.060  1.00  0.00    -0.311 C  
HETATM   15  C   UNL     2     -11.938  11.395  69.297  1.00  0.00    -0.332 C  
HETATM   16  O   UNL     2     -11.861   9.967  71.279  1.00  0.00    -0.354 OA 
HETATM   17  H   UNL     2     -12.137  10.735  71.766  1.00  0.00     0.000 HD 
HETATM   18  O   UNL     2     -12.174  11.309  68.057  1.00  0.00    -0.621 OA 
HETATM   19  O   UNL     2     -11.969  12.591  69.760  1.00  0.00    -0.314 OA 
ENDBRANCH  11  14
ENDBRANCH   8  11
ENDBRANCH   2   8
TORSDOF 3
ENDMDL
MODEL      114
REMARK 921   NORMALIZED FREE ENERGY PREDICTED BY IDOCK:   -4.01 KCAL/MOL
REMARK 922        TOTAL FREE ENERGY PREDICTED BY IDOCK:   -5.19 KCAL/MOL
REMARK 923 INTER-LIGAND FREE ENERGY PREDICTED BY IDOCK:   -4.56 KCAL/MOL
REMARK 924 INTRA-LIGAND FREE ENERGY PREDICTED BY IDOCK:   -0.63 KCAL/MOL
REMARK 927      BINDING AFFINITY PREDICTED BY RF-SCORE:    0.00 PKD
ROOT
HETATM    1 CA   UNL     1     -12.506  11.616  68.534  1.00  0.00    -0.318 Ca 
HETATM    2  C   UNL     2      -9.578  11.052  65.692  1.00  0.00    -0.226 C  
HETATM    3  H   UNL     2      -8.005  12.262  65.534  1.00  0.00     0.000 HD 
HETATM    4  C   UNL     2     -10.347  10.391  66.844  1.00  0.00    -0.240 C  
HETATM    5  O   UNL     2      -8.481  11.852  66.247  1.00  0.00    -0.104 OA 
HETATM    6  O   UNL     2     -10.766   9.225  66.714  1.00  0.00    -0.176 OA 
HETATM    7  O   UNL     2     -10.597  11.130  67.871  1.00  0.00    -0.180 OA 
ENDROOT
BRANCH   2   8
HETATM    8  C   UNL     2     -10.430  12.033  64.872  1.00  0.00    -0.285 C  
HETATM    9  H   UNL     2     -11.782  11.833  63.469  1.00  0.00     0.000 HD 
HETATM   10  O   UNL     2     -11.256  11.226  63.976  1.00  0.00    -0.340 OA 
BRANCH   8  11
HETATM   11  C   UNL     2     -11.405  13.014  65.589  1.00  0.00    -0.301 C  
HETATM   12  H   UNL     2     -13.133  13.795  65.146  1.00  0.00     0.000 HD 
HETATM   13  O   UNL     2     -12.538  13.198  64.708  1.00  0.00    -0.575 OA 
BRANCH  11  14
HETATM   14  C   UNL     2     -10.892  14.392  66.028  1.00  0.00    -0.309 C  
HETATM   15  C   UNL     2     -11.146  14.805  67.475  1.00  0.00    -0.319 C  
HETATM   16  O   UNL     2      -9.500  14.585  65.681  1.00  0.00    -0.522 OA 
HETATM   17  H   UNL     2      -9.183  15.439  65.953  1.00  0.00     0.000 HD 
HETATM   18  O   UNL     2     -11.789  14.077  68.286  1.00  0.00    -0.341 OA 
HETATM   19  O   UNL     2     -11.125  16.050  67.783  1.00  0.00    -0.327 OA 
ENDBRANCH  11  14
ENDBRANCH   8  11
ENDBRANCH   2   8
TORSDOF 3
ENDMDL
MODEL      115
REMARK 921   NORMALIZED FREE ENERGY PREDICTED BY IDOCK:   -4.01 KCAL/MOL
REMARK 922        TOTAL FREE ENERGY PREDICTED BY IDOCK:   -5.19 KCAL/MOL
REMARK 923 INTER-LIGAND FREE ENERGY PREDICTED BY IDOCK:   -5.52 KCAL/MOL
REMARK 924 INTRA-LIGAND FREE ENERGY PREDICTED BY IDOCK:    0.34 KCAL/MOL
REMARK 927      BINDING AFFINITY PREDICTED BY RF-SCORE:    0.00 PKD
ROOT
HETATM    1 CA   UNL     1      -9.755   7.140  65.133  1.00  0.00    -0.346 Ca 
HETATM    2  C   UNL     2      -9.475  11.235  65.475  1.00  0.00    -0.229 C  
HETATM    3  H   UNL     2      -8.578  12.112  67.022  1.00  0.00     0.000 HD 
HETATM    4  C   UNL     2      -9.179  10.033  64.569  1.00  0.00    -0.262 C  
HETATM    5  O   UNL     2      -8.395  11.368  66.460  1.00  0.00    -0.168 OA 
HETATM    6  O   UNL     2      -9.435  10.104  63.352  1.00  0.00    -0.290 OA 
HETATM    7  O   UNL     2      -8.755   8.962  65.149  1.00  0.00    -0.178 OA 
ENDROOT
BRANCH   2   8
HETATM    8  C   UNL     2     -10.764  11.080  66.297  1.00  0.00    -0.212 C  
HETATM    9  H   UNL     2     -11.364   9.834  67.685  1.00  0.00     0.000 HD 
HETATM   10  O   UNL     2     -10.567   9.930  67.177  1.00  0.00    -0.245 OA 
BRANCH   8  11
HETATM   11  C   UNL     2     -11.256  12.242  67.211  1.00  0.00    -0.300 C  
HETATM   12  H   UNL     2     -12.575  12.399  68.635  1.00  0.00     0.000 HD 
HETATM   13  O   UNL     2     -12.275  11.691  68.077  1.00  0.00    -0.551 OA 
BRANCH  11  14
HETATM   14  C   UNL     2     -11.797  13.525  66.565  1.00  0.00    -0.399 C  
HETATM   15  C   UNL     2     -12.709  13.366  65.351  1.00  0.00    -0.426 C  
HETATM   16  O   UNL     2     -12.398  14.408  67.540  1.00  0.00    -0.621 OA 
HETATM   17  H   UNL     2     -12.733  15.202  67.140  1.00  0.00     0.000 HD 
HETATM   18  O   UNL     2     -12.986  12.237  64.853  1.00  0.00    -0.662 OA 
HETATM   19  O   UNL     2     -12.847  14.351  64.541  1.00  0.00    -0.634 OA 
ENDBRANCH  11  14
ENDBRANCH   8  11
ENDBRANCH   2   8
TORSDOF 3
ENDMDL
MODEL      116
REMARK 921   NORMALIZED FREE ENERGY PREDICTED BY IDOCK:   -4.00 KCAL/MOL
REMARK 922        TOTAL FREE ENERGY PREDICTED BY IDOCK:   -5.17 KCAL/MOL
REMARK 923 INTER-LIGAND FREE ENERGY PREDICTED BY IDOCK:   -4.88 KCAL/MOL
REMARK 924 INTRA-LIGAND FREE ENERGY PREDICTED BY IDOCK:   -0.29 KCAL/MOL
REMARK 927      BINDING AFFINITY PREDICTED BY RF-SCORE:    0.00 PKD
ROOT
HETATM    1 CA   UNL     1     -13.080   5.361  72.951  1.00  0.00    -0.528 Ca 
HETATM    2  C   UNL     2      -9.778   7.061  71.170  1.00  0.00    -0.172 C  
HETATM    3  H   UNL     2      -7.951   6.890  71.941  1.00  0.00     0.000 HD 
HETATM    4  C   UNL     2     -10.972   6.122  70.952  1.00  0.00    -0.297 C  
HETATM    5  O   UNL     2      -8.690   6.309  71.805  1.00  0.00    -0.133 OA 
HETATM    6  O   UNL     2     -11.644   6.215  69.907  1.00  0.00    -0.404 OA 
HETATM    7  O   UNL     2     -11.272   5.332  71.926  1.00  0.00    -0.127 OA 
ENDROOT
BRANCH   2   8
HETATM    8  C   UNL     2     -10.083   8.228  72.121  1.00  0.00    -0.274 C  
HETATM    9  H   UNL     2      -9.003   9.629  72.963  1.00  0.00     0.000 HD 
HETATM   10  O   UNL     2      -8.814   8.907  72.375  1.00  0.00    -0.396 OA 
BRANCH   8  11
HETATM   11  C   UNL     2     -11.089   9.342  71.699  1.00  0.00    -0.368 C  
HETATM   12  H   UNL     2     -13.030   9.486  71.647  1.00  0.00     0.000 HD 
HETATM   13  O   UNL     2     -12.417   8.807  71.904  1.00  0.00    -0.325 OA 
BRANCH  11  14
HETATM   14  C   UNL     2     -11.005   9.929  70.283  1.00  0.00    -0.309 C  
HETATM   15  C   UNL     2     -11.979  11.049  69.932  1.00  0.00    -0.351 C  
HETATM   16  O   UNL     2      -9.651  10.304  69.934  1.00  0.00    -0.375 OA 
HETATM   17  H   UNL     2      -9.600  10.667  69.057  1.00  0.00     0.000 HD 
HETATM   18  O   UNL     2     -12.858  11.464  70.742  1.00  0.00    -0.265 OA 
HETATM   19  O   UNL     2     -12.243  11.284  68.698  1.00  0.00    -0.562 OA 
ENDBRANCH  11  14
ENDBRANCH   8  11
ENDBRANCH   2   8
TORSDOF 3
ENDMDL
MODEL      117
REMARK 921   NORMALIZED FREE ENERGY PREDICTED BY IDOCK:   -3.99 KCAL/MOL
REMARK 922        TOTAL FREE ENERGY PREDICTED BY IDOCK:   -5.17 KCAL/MOL
REMARK 923 INTER-LIGAND FREE ENERGY PREDICTED BY IDOCK:   -4.79 KCAL/MOL
REMARK 924 INTRA-LIGAND FREE ENERGY PREDICTED BY IDOCK:   -0.38 KCAL/MOL
REMARK 927      BINDING AFFINITY PREDICTED BY RF-SCORE:    0.00 PKD
ROOT
HETATM    1 CA   UNL     1     -13.905   7.821  70.354  1.00  0.00    -0.547 Ca 
HETATM    2  C   UNL     2     -11.797  11.345  70.658  1.00  0.00    -0.226 C  
HETATM    3  H   UNL     2     -12.699  13.105  70.892  1.00  0.00     0.000 HD 
HETATM    4  C   UNL     2     -11.967   9.936  71.239  1.00  0.00    -0.402 C  
HETATM    5  O   UNL     2     -12.804  12.232  71.252  1.00  0.00    -0.352 OA 
HETATM    6  O   UNL     2     -10.958   9.254  71.502  1.00  0.00    -0.336 OA 
HETATM    7  O   UNL     2     -13.175   9.495  71.344  1.00  0.00    -0.360 OA 
ENDROOT
BRANCH   2   8
HETATM    8  C   UNL     2     -12.032  11.414  69.141  1.00  0.00    -0.328 C  
HETATM    9  H   UNL     2     -12.329  12.869  67.864  1.00  0.00     0.000 HD 
HETATM   10  O   UNL     2     -12.184  12.827  68.801  1.00  0.00    -0.188 OA 
BRANCH   8  11
HETATM   11  C   UNL     2     -10.965  10.848  68.156  1.00  0.00    -0.249 C  
HETATM   12  H   UNL     2      -9.038  10.581  68.230  1.00  0.00     0.000 HD 
HETATM   13  O   UNL     2      -9.688  10.926  68.830  1.00  0.00    -0.179 OA 
BRANCH  11  14
HETATM   14  C   UNL     2     -10.827  11.474  66.761  1.00  0.00    -0.282 C  
HETATM   15  C   UNL     2     -10.194  10.617  65.669  1.00  0.00    -0.253 C  
HETATM   16  O   UNL     2     -12.075  12.044  66.300  1.00  0.00    -0.596 OA 
HETATM   17  H   UNL     2     -11.990  12.432  65.437  1.00  0.00     0.000 HD 
HETATM   18  O   UNL     2      -9.752   9.452  65.891  1.00  0.00    -0.253 OA 
HETATM   19  O   UNL     2      -9.682  11.191  64.643  1.00  0.00    -0.236 OA 
ENDBRANCH  11  14
ENDBRANCH   8  11
ENDBRANCH   2   8
TORSDOF 3
ENDMDL
MODEL      118
REMARK 921   NORMALIZED FREE ENERGY PREDICTED BY IDOCK:   -3.99 KCAL/MOL
REMARK 922        TOTAL FREE ENERGY PREDICTED BY IDOCK:   -5.16 KCAL/MOL
REMARK 923 INTER-LIGAND FREE ENERGY PREDICTED BY IDOCK:   -4.60 KCAL/MOL
REMARK 924 INTRA-LIGAND FREE ENERGY PREDICTED BY IDOCK:   -0.56 KCAL/MOL
REMARK 927      BINDING AFFINITY PREDICTED BY RF-SCORE:    0.00 PKD
ROOT
HETATM    1 CA   UNL     1     -12.592   6.831  69.339  1.00  0.00    -0.608 Ca 
HETATM    2  C   UNL     2     -10.209  10.002  68.229  1.00  0.00    -0.173 C  
HETATM    3  H   UNL     2      -9.264  11.137  69.564  1.00  0.00     0.000 HD 
HETATM    4  C   UNL     2     -10.458   8.499  68.043  1.00  0.00    -0.191 C  
HETATM    5  O   UNL     2      -9.418  10.207  69.448  1.00  0.00    -0.204 OA 
HETATM    6  O   UNL     2     -10.420   8.008  66.899  1.00  0.00    -0.330 OA 
HETATM    7  O   UNL     2     -10.787   7.832  69.097  1.00  0.00    -0.171 OA 
ENDROOT
BRANCH   2   8
HETATM    8  C   UNL     2     -11.497  10.815  68.432  1.00  0.00    -0.288 C  
HETATM    9  H   UNL     2     -12.421  11.553  69.994  1.00  0.00     0.000 HD 
HETATM   10  O   UNL     2     -11.625  11.050  69.869  1.00  0.00    -0.279 OA 
BRANCH   8  11
HETATM   11  C   UNL     2     -11.661  12.207  67.753  1.00  0.00    -0.342 C  
HETATM   12  H   UNL     2     -12.078  12.811  65.948  1.00  0.00     0.000 HD 
HETATM   13  O   UNL     2     -11.978  11.962  66.363  1.00  0.00    -0.572 OA 
BRANCH  11  14
HETATM   14  C   UNL     2     -10.506  13.216  67.826  1.00  0.00    -0.228 C  
HETATM   15  C   UNL     2     -10.779  14.629  67.318  1.00  0.00    -0.290 C  
HETATM   16  O   UNL     2      -9.908  13.256  69.142  1.00  0.00    -0.393 OA 
HETATM   17  H   UNL     2      -9.193  13.881  69.188  1.00  0.00     0.000 HD 
HETATM   18  O   UNL     2     -11.888  14.967  66.812  1.00  0.00    -0.304 OA 
HETATM   19  O   UNL     2      -9.791  15.369  66.969  1.00  0.00    -0.227 OA 
ENDBRANCH  11  14
ENDBRANCH   8  11
ENDBRANCH   2   8
TORSDOF 3
ENDMDL
MODEL      119
REMARK 921   NORMALIZED FREE ENERGY PREDICTED BY IDOCK:   -3.97 KCAL/MOL
REMARK 922        TOTAL FREE ENERGY PREDICTED BY IDOCK:   -5.14 KCAL/MOL
REMARK 923 INTER-LIGAND FREE ENERGY PREDICTED BY IDOCK:   -4.77 KCAL/MOL
REMARK 924 INTRA-LIGAND FREE ENERGY PREDICTED BY IDOCK:   -0.37 KCAL/MOL
REMARK 927      BINDING AFFINITY PREDICTED BY RF-SCORE:    0.00 PKD
ROOT
HETATM    1 CA   UNL     1     -12.278  16.556  63.936  1.00  0.00    -0.546 Ca 
HETATM    2  C   UNL     2      -9.806  15.359  67.005  1.00  0.00    -0.232 C  
HETATM    3  H   UNL     2      -8.539  13.835  66.814  1.00  0.00     0.000 HD 
HETATM    4  C   UNL     2     -10.235  16.549  66.136  1.00  0.00    -0.346 C  
HETATM    5  O   UNL     2      -8.804  14.572  66.276  1.00  0.00    -0.129 OA 
HETATM    6  O   UNL     2     -10.440  17.656  66.669  1.00  0.00    -0.335 OA 
HETATM    7  O   UNL     2     -10.448  16.306  64.887  1.00  0.00    -0.624 OA 
ENDROOT
BRANCH   2   8
HETATM    8  C   UNL     2     -10.952  14.383  67.313  1.00  0.00    -0.297 C  
HETATM    9  H   UNL     2     -12.797  14.588  67.938  1.00  0.00     0.000 HD 
HETATM   10  O   UNL     2     -12.089  15.191  67.747  1.00  0.00    -0.157 OA 
BRANCH   8  11
HETATM   11  C   UNL     2     -11.497  13.436  66.202  1.00  0.00    -0.327 C  
HETATM   12  H   UNL     2     -13.115  13.382  65.121  1.00  0.00     0.000 HD 
HETATM   13  O   UNL     2     -12.783  13.959  65.798  1.00  0.00    -0.504 OA 
BRANCH  11  14
HETATM   14  C   UNL     2     -11.644  11.937  66.501  1.00  0.00    -0.255 C  
HETATM   15  C   UNL     2     -10.525  11.016  66.022  1.00  0.00    -0.245 C  
HETATM   16  O   UNL     2     -11.943  11.692  67.895  1.00  0.00    -0.599 OA 
HETATM   17  H   UNL     2     -12.034  10.765  68.080  1.00  0.00     0.000 HD 
HETATM   18  O   UNL     2      -9.530  11.440  65.366  1.00  0.00    -0.221 OA 
HETATM   19  O   UNL     2     -10.769   9.767  65.866  1.00  0.00     0.053 OA 
ENDBRANCH  11  14
ENDBRANCH   8  11
ENDBRANCH   2   8
TORSDOF 3
ENDMDL
MODEL      120
REMARK 921   NORMALIZED FREE ENERGY PREDICTED BY IDOCK:   -3.97 KCAL/MOL
REMARK 922        TOTAL FREE ENERGY PREDICTED BY IDOCK:   -5.14 KCAL/MOL
REMARK 923 INTER-LIGAND FREE ENERGY PREDICTED BY IDOCK:   -4.49 KCAL/MOL
REMARK 924 INTRA-LIGAND FREE ENERGY PREDICTED BY IDOCK:   -0.65 KCAL/MOL
REMARK 927      BINDING AFFINITY PREDICTED BY RF-SCORE:    0.00 PKD
ROOT
HETATM    1 CA   UNL     1     -11.137  12.667  70.208  1.00  0.00    -0.454 Ca 
HETATM    2  C   UNL     2     -11.453  14.586  66.578  1.00  0.00    -0.362 C  
HETATM    3  H   UNL     2     -12.323  13.738  65.000  1.00  0.00     0.000 HD 
HETATM    4  C   UNL     2     -11.757  14.691  68.078  1.00  0.00    -0.342 C  
HETATM    5  O   UNL     2     -12.511  13.802  65.929  1.00  0.00    -0.457 OA 
HETATM    6  O   UNL     2     -11.531  15.759  68.677  1.00  0.00    -0.351 OA 
HETATM    7  O   UNL     2     -12.156  13.613  68.663  1.00  0.00    -0.360 OA 
ENDROOT
BRANCH   2   8
HETATM    8  C   UNL     2     -10.143  13.845  66.269  1.00  0.00    -0.300 C  
HETATM    9  H   UNL     2      -8.250  14.351  66.263  1.00  0.00     0.000 HD 
HETATM   10  O   UNL     2      -9.060  14.809  66.454  1.00  0.00    -0.271 OA 
BRANCH   8  11
HETATM   11  C   UNL     2      -9.742  12.585  67.092  1.00  0.00    -0.205 C  
HETATM   12  H   UNL     2      -8.057  11.842  67.727  1.00  0.00     0.000 HD 
HETATM   13  O   UNL     2      -8.302  12.611  67.225  1.00  0.00    -0.176 OA 
BRANCH  11  14
HETATM   14  C   UNL     2     -10.168  11.197  66.592  1.00  0.00    -0.232 C  
HETATM   15  C   UNL     2     -10.852  10.272  67.594  1.00  0.00    -0.307 C  
HETATM   16  O   UNL     2     -10.934  11.277  65.367  1.00  0.00    -0.230 OA 
HETATM   17  H   UNL     2     -11.198  10.418  65.057  1.00  0.00     0.000 HD 
HETATM   18  O   UNL     2     -11.033  10.596  68.803  1.00  0.00    -0.213 OA 
HETATM   19  O   UNL     2     -10.851   9.008  67.378  1.00  0.00    -0.230 OA 
ENDBRANCH  11  14
ENDBRANCH   8  11
ENDBRANCH   2   8
TORSDOF 3
ENDMDL
MODEL      121
REMARK 921   NORMALIZED FREE ENERGY PREDICTED BY IDOCK:   -3.96 KCAL/MOL
REMARK 922        TOTAL FREE ENERGY PREDICTED BY IDOCK:   -5.13 KCAL/MOL
REMARK 923 INTER-LIGAND FREE ENERGY PREDICTED BY IDOCK:   -4.50 KCAL/MOL
REMARK 924 INTRA-LIGAND FREE ENERGY PREDICTED BY IDOCK:   -0.62 KCAL/MOL
REMARK 927      BINDING AFFINITY PREDICTED BY RF-SCORE:    0.00 PKD
ROOT
HETATM    1 CA   UNL     1     -13.843   9.980  72.885  1.00  0.00    -0.597 Ca 
HETATM    2  C   UNL     2     -10.511   8.207  71.237  1.00  0.00    -0.209 C  
HETATM    3  H   UNL     2      -8.728   8.270  72.121  1.00  0.00     0.000 HD 
HETATM    4  C   UNL     2     -11.957   7.971  71.692  1.00  0.00    -0.298 C  
HETATM    5  O   UNL     2      -9.624   8.123  72.403  1.00  0.00    -0.210 OA 
HETATM    6  O   UNL     2     -12.726   7.305  70.973  1.00  0.00    -0.322 OA 
HETATM    7  O   UNL     2     -12.326   8.564  72.776  1.00  0.00    -0.327 OA 
ENDROOT
BRANCH   2   8
HETATM    8  C   UNL     2     -10.277   9.604  70.641  1.00  0.00    -0.278 C  
HETATM    9  H   UNL     2      -8.769  10.479  69.747  1.00  0.00     0.000 HD 
HETATM   10  O   UNL     2      -8.913   9.615  70.116  1.00  0.00    -0.218 OA 
BRANCH   8  11
HETATM   11  C   UNL     2     -11.186  10.127  69.488  1.00  0.00    -0.238 C  
HETATM   12  H   UNL     2     -11.226   9.880  67.556  1.00  0.00     0.000 HD 
HETATM   13  O   UNL     2     -10.672   9.562  68.259  1.00  0.00    -0.226 OA 
BRANCH  11  14
HETATM   14  C   UNL     2     -11.362  11.640  69.301  1.00  0.00    -0.290 C  
HETATM   15  C   UNL     2     -12.110  12.397  70.394  1.00  0.00    -0.297 C  
HETATM   16  O   UNL     2     -10.109  12.295  68.995  1.00  0.00    -0.420 OA 
HETATM   17  H   UNL     2     -10.218  13.232  68.879  1.00  0.00     0.000 HD 
HETATM   18  O   UNL     2     -12.612  11.817  71.400  1.00  0.00    -0.337 OA 
HETATM   19  O   UNL     2     -12.642  13.531  70.117  1.00  0.00    -0.235 OA 
ENDBRANCH  11  14
ENDBRANCH   8  11
ENDBRANCH   2   8
TORSDOF 3
ENDMDL
MODEL      122
REMARK 921   NORMALIZED FREE ENERGY PREDICTED BY IDOCK:   -3.94 KCAL/MOL
REMARK 922        TOTAL FREE ENERGY PREDICTED BY IDOCK:   -5.11 KCAL/MOL
REMARK 923 INTER-LIGAND FREE ENERGY PREDICTED BY IDOCK:   -4.49 KCAL/MOL
REMARK 924 INTRA-LIGAND FREE ENERGY PREDICTED BY IDOCK:   -0.61 KCAL/MOL
REMARK 927      BINDING AFFINITY PREDICTED BY RF-SCORE:    0.00 PKD
ROOT
HETATM    1 CA   UNL     1     -10.774   8.123  65.739  1.00  0.00    -0.403 Ca 
HETATM    2  C   UNL     2     -10.241  12.206  65.726  1.00  0.00    -0.254 C  
HETATM    3  H   UNL     2      -8.913  13.107  66.905  1.00  0.00     0.000 HD 
HETATM    4  C   UNL     2     -10.259  10.945  64.853  1.00  0.00    -0.316 C  
HETATM    5  O   UNL     2      -8.924  12.326  66.364  1.00  0.00    -0.195 OA 
HETATM    6  O   UNL     2     -10.841  10.969  63.752  1.00  0.00    -0.339 OA 
HETATM    7  O   UNL     2      -9.735   9.882  65.361  1.00  0.00    -0.269 OA 
ENDROOT
BRANCH   2   8
HETATM    8  C   UNL     2     -11.255  12.168  66.879  1.00  0.00    -0.320 C  
HETATM    9  H   UNL     2     -11.169  11.641  68.764  1.00  0.00     0.000 HD 
HETATM   10  O   UNL     2     -10.542  11.665  68.052  1.00  0.00    -0.189 OA 
BRANCH   8  11
HETATM   11  C   UNL     2     -11.971  13.473  67.339  1.00  0.00    -0.357 C  
HETATM   12  H   UNL     2     -12.824  14.964  66.421  1.00  0.00     0.000 HD 
HETATM   13  O   UNL     2     -12.387  14.168  66.141  1.00  0.00    -0.450 OA 
BRANCH  11  14
HETATM   14  C   UNL     2     -11.220  14.459  68.246  1.00  0.00    -0.275 C  
HETATM   15  C   UNL     2     -11.675  14.557  69.699  1.00  0.00    -0.307 C  
HETATM   16  O   UNL     2      -9.787  14.274  68.174  1.00  0.00    -0.214 OA 
HETATM   17  H   UNL     2      -9.322  14.884  68.735  1.00  0.00     0.000 HD 
HETATM   18  O   UNL     2     -12.657  13.898  70.149  1.00  0.00    -0.314 OA 
HETATM   19  O   UNL     2     -11.393  15.612  70.372  1.00  0.00    -0.292 OA 
ENDBRANCH  11  14
ENDBRANCH   8  11
ENDBRANCH   2   8
TORSDOF 3
ENDMDL
MODEL      123
REMARK 921   NORMALIZED FREE ENERGY PREDICTED BY IDOCK:   -3.93 KCAL/MOL
REMARK 922        TOTAL FREE ENERGY PREDICTED BY IDOCK:   -5.10 KCAL/MOL
REMARK 923 INTER-LIGAND FREE ENERGY PREDICTED BY IDOCK:   -4.67 KCAL/MOL
REMARK 924 INTRA-LIGAND FREE ENERGY PREDICTED BY IDOCK:   -0.43 KCAL/MOL
REMARK 927      BINDING AFFINITY PREDICTED BY RF-SCORE:    0.00 PKD
ROOT
HETATM    1 CA   UNL     1     -11.283   6.795  65.970  1.00  0.00    -0.454 Ca 
HETATM    2  C   UNL     2     -10.297   9.757  68.656  1.00  0.00    -0.201 C  
HETATM    3  H   UNL     2     -11.487  10.253  70.174  1.00  0.00     0.000 HD 
HETATM    4  C   UNL     2      -9.826   8.448  68.010  1.00  0.00    -0.169 C  
HETATM    5  O   UNL     2     -11.195   9.443  69.773  1.00  0.00    -0.211 OA 
HETATM    6  O   UNL     2      -8.649   8.346  67.616  1.00  0.00    -0.128 OA 
HETATM    7  O   UNL     2     -10.722   7.538  67.828  1.00  0.00    -0.220 OA 
ENDROOT
BRANCH   2   8
HETATM    8  C   UNL     2     -11.115  10.648  67.708  1.00  0.00    -0.321 C  
HETATM    9  H   UNL     2     -12.733  11.735  67.903  1.00  0.00     0.000 HD 
HETATM   10  O   UNL     2     -12.228  11.184  68.490  1.00  0.00    -0.600 OA 
BRANCH   8  11
HETATM   11  C   UNL     2     -10.448  11.873  67.013  1.00  0.00    -0.224 C  
HETATM   12  H   UNL     2     -10.088  13.715  67.532  1.00  0.00     0.000 HD 
HETATM   13  O   UNL     2     -10.495  12.968  67.956  1.00  0.00    -0.216 OA 
BRANCH  11  14
HETATM   14  C   UNL     2     -10.998  12.358  65.664  1.00  0.00    -0.286 C  
HETATM   15  C   UNL     2     -10.646  11.535  64.428  1.00  0.00    -0.334 C  
HETATM   16  O   UNL     2     -12.422  12.607  65.720  1.00  0.00    -0.607 OA 
HETATM   17  H   UNL     2     -12.762  12.908  64.885  1.00  0.00     0.000 HD 
HETATM   18  O   UNL     2      -9.897  10.516  64.482  1.00  0.00    -0.288 OA 
HETATM   19  O   UNL     2     -10.709  12.086  63.272  1.00  0.00    -0.408 OA 
ENDBRANCH  11  14
ENDBRANCH   8  11
ENDBRANCH   2   8
TORSDOF 3
ENDMDL
MODEL      124
REMARK 921   NORMALIZED FREE ENERGY PREDICTED BY IDOCK:   -3.92 KCAL/MOL
REMARK 922        TOTAL FREE ENERGY PREDICTED BY IDOCK:   -5.09 KCAL/MOL
REMARK 923 INTER-LIGAND FREE ENERGY PREDICTED BY IDOCK:   -4.74 KCAL/MOL
REMARK 924 INTRA-LIGAND FREE ENERGY PREDICTED BY IDOCK:   -0.34 KCAL/MOL
REMARK 927      BINDING AFFINITY PREDICTED BY RF-SCORE:    0.00 PKD
ROOT
HETATM    1 CA   UNL     1     -10.727  10.581  68.964  1.00  0.00    -0.163 Ca 
HETATM    2  C   UNL     2     -11.788  13.424  66.179  1.00  0.00    -0.385 C  
HETATM    3  H   UNL     2     -12.467  12.938  64.372  1.00  0.00     0.000 HD 
HETATM    4  C   UNL     2     -12.022  12.929  67.612  1.00  0.00    -0.289 C  
HETATM    5  O   UNL     2     -12.612  12.632  65.259  1.00  0.00    -0.630 OA 
HETATM    6  O   UNL     2     -12.078  13.753  68.546  1.00  0.00    -0.363 OA 
HETATM    7  O   UNL     2     -12.062  11.651  67.784  1.00  0.00    -0.613 OA 
ENDROOT
BRANCH   2   8
HETATM    8  C   UNL     2     -10.341  13.241  65.698  1.00  0.00    -0.287 C  
HETATM    9  H   UNL     2      -8.589  13.804  66.372  1.00  0.00     0.000 HD 
HETATM   10  O   UNL     2      -9.484  13.917  66.670  1.00  0.00    -0.270 OA 
BRANCH   8  11
HETATM   11  C   UNL     2      -9.747  11.811  65.524  1.00  0.00    -0.224 C  
HETATM   12  H   UNL     2      -8.156  10.899  66.179  1.00  0.00     0.000 HD 
HETATM   13  O   UNL     2      -8.518  11.771  66.285  1.00  0.00    -0.135 OA 
BRANCH  11  14
HETATM   14  C   UNL     2      -9.471  11.282  64.110  1.00  0.00    -0.177 C  
HETATM   15  C   UNL     2      -9.124   9.802  63.972  1.00  0.00    -0.237 C  
HETATM   16  O   UNL     2     -10.521  11.646  63.183  1.00  0.00    -0.591 OA 
HETATM   17  H   UNL     2     -10.349  11.319  62.307  1.00  0.00     0.000 HD 
HETATM   18  O   UNL     2      -9.019   9.033  64.971  1.00  0.00    -0.202 OA 
HETATM   19  O   UNL     2      -8.495   9.403  62.928  1.00  0.00    -0.177 OA 
ENDBRANCH  11  14
ENDBRANCH   8  11
ENDBRANCH   2   8
TORSDOF 3
ENDMDL
MODEL      125
REMARK 921   NORMALIZED FREE ENERGY PREDICTED BY IDOCK:   -3.92 KCAL/MOL
REMARK 922        TOTAL FREE ENERGY PREDICTED BY IDOCK:   -5.08 KCAL/MOL
REMARK 923 INTER-LIGAND FREE ENERGY PREDICTED BY IDOCK:   -5.18 KCAL/MOL
REMARK 924 INTRA-LIGAND FREE ENERGY PREDICTED BY IDOCK:    0.11 KCAL/MOL
REMARK 927      BINDING AFFINITY PREDICTED BY RF-SCORE:    0.00 PKD
ROOT
HETATM    1 CA   UNL     1     -12.337  10.118  68.400  1.00  0.00    -0.511 Ca 
HETATM    2  C   UNL     2      -8.767   9.717  66.385  1.00  0.00    -0.131 C  
HETATM    3  H   UNL     2      -7.130  10.717  66.918  1.00  0.00     0.000 HD 
HETATM    4  C   UNL     2      -9.881   8.959  67.119  1.00  0.00    -0.207 C  
HETATM    5  O   UNL     2      -7.819  10.247  67.372  1.00  0.00    -0.102 OA 
HETATM    6  O   UNL     2     -10.330   7.904  66.631  1.00  0.00    -0.291 OA 
HETATM    7  O   UNL     2     -10.360   9.517  68.178  1.00  0.00    -0.188 OA 
ENDROOT
BRANCH   2   8
HETATM    8  C   UNL     2      -9.272  10.940  65.603  1.00  0.00    -0.203 C  
HETATM    9  H   UNL     2      -8.873  11.702  63.843  1.00  0.00     0.000 HD 
HETATM   10  O   UNL     2      -8.561  10.946  64.326  1.00  0.00    -0.089 OA 
BRANCH   8  11
HETATM   11  C   UNL     2     -10.785  11.076  65.252  1.00  0.00    -0.164 C  
HETATM   12  H   UNL     2     -11.801  11.207  63.596  1.00  0.00     0.000 HD 
HETATM   13  O   UNL     2     -10.879  11.124  63.810  1.00  0.00    -0.376 OA 
BRANCH  11  14
HETATM   14  C   UNL     2     -11.586  12.247  65.839  1.00  0.00    -0.393 C  
HETATM   15  C   UNL     2     -12.690  12.843  64.971  1.00  0.00    -0.404 C  
HETATM   16  O   UNL     2     -12.086  11.948  67.163  1.00  0.00    -0.590 OA 
HETATM   17  H   UNL     2     -12.582  12.673  67.526  1.00  0.00     0.000 HD 
HETATM   18  O   UNL     2     -12.925  12.436  63.796  1.00  0.00    -0.751 OA 
HETATM   19  O   UNL     2     -13.096  14.037  65.209  1.00  0.00    -0.782 OA 
ENDBRANCH  11  14
ENDBRANCH   8  11
ENDBRANCH   2   8
TORSDOF 3
ENDMDL
MODEL      126
REMARK 921   NORMALIZED FREE ENERGY PREDICTED BY IDOCK:   -3.91 KCAL/MOL
REMARK 922        TOTAL FREE ENERGY PREDICTED BY IDOCK:   -5.07 KCAL/MOL
REMARK 923 INTER-LIGAND FREE ENERGY PREDICTED BY IDOCK:   -4.61 KCAL/MOL
REMARK 924 INTRA-LIGAND FREE ENERGY PREDICTED BY IDOCK:   -0.46 KCAL/MOL
REMARK 927      BINDING AFFINITY PREDICTED BY RF-SCORE:    0.00 PKD
ROOT
HETATM    1 CA   UNL     1     -11.527   5.420  70.538  1.00  0.00    -0.251 Ca 
HETATM    2  C   UNL     2     -12.087   9.157  72.175  1.00  0.00    -0.318 C  
HETATM    3  H   UNL     2     -13.885  10.006  72.291  1.00  0.00     0.000 HD 
HETATM    4  C   UNL     2     -11.514   7.756  72.424  1.00  0.00    -0.363 C  
HETATM    5  O   UNL     2     -13.529   9.139  72.446  1.00  0.00    -0.442 OA 
HETATM    6  O   UNL     2     -10.396   7.636  72.960  1.00  0.00    -0.273 OA 
HETATM    7  O   UNL     2     -12.201   6.761  71.974  1.00  0.00    -0.321 OA 
ENDROOT
BRANCH   2   8
HETATM    8  C   UNL     2     -11.948   9.625  70.718  1.00  0.00    -0.277 C  
HETATM    9  H   UNL     2     -11.871  11.375  69.841  1.00  0.00     0.000 HD 
HETATM   10  O   UNL     2     -11.957  11.086  70.741  1.00  0.00    -0.333 OA 
BRANCH   8  11
HETATM   11  C   UNL     2     -10.699   9.217  69.879  1.00  0.00    -0.231 C  
HETATM   12  H   UNL     2      -8.782   9.510  70.046  1.00  0.00     0.000 HD 
HETATM   13  O   UNL     2      -9.543   9.759  70.557  1.00  0.00    -0.239 OA 
BRANCH  11  14
HETATM   14  C   UNL     2     -10.633   9.608  68.396  1.00  0.00    -0.225 C  
HETATM   15  C   UNL     2     -10.613   8.476  67.374  1.00  0.00    -0.234 C  
HETATM   16  O   UNL     2     -11.642  10.587  68.051  1.00  0.00    -0.640 OA 
HETATM   17  H   UNL     2     -11.601  10.829  67.133  1.00  0.00     0.000 HD 
HETATM   18  O   UNL     2     -10.605   7.257  67.711  1.00  0.00    -0.217 OA 
HETATM   19  O   UNL     2     -10.151   8.703  66.199  1.00  0.00    -0.250 OA 
ENDBRANCH  11  14
ENDBRANCH   8  11
ENDBRANCH   2   8
TORSDOF 3
ENDMDL
MODEL      127
REMARK 921   NORMALIZED FREE ENERGY PREDICTED BY IDOCK:   -3.90 KCAL/MOL
REMARK 922        TOTAL FREE ENERGY PREDICTED BY IDOCK:   -5.06 KCAL/MOL
REMARK 923 INTER-LIGAND FREE ENERGY PREDICTED BY IDOCK:   -4.66 KCAL/MOL
REMARK 924 INTRA-LIGAND FREE ENERGY PREDICTED BY IDOCK:   -0.40 KCAL/MOL
REMARK 927      BINDING AFFINITY PREDICTED BY RF-SCORE:    0.00 PKD
ROOT
HETATM    1 CA   UNL     1     -12.081  11.999  70.534  1.00  0.00    -0.257 Ca 
HETATM    2  C   UNL     2     -11.188  13.644  66.866  1.00  0.00    -0.312 C  
HETATM    3  H   UNL     2     -12.550  14.596  65.769  1.00  0.00     0.000 HD 
HETATM    4  C   UNL     2     -10.798  13.610  68.349  1.00  0.00    -0.256 C  
HETATM    5  O   UNL     2     -12.308  14.575  66.687  1.00  0.00    -0.342 OA 
HETATM    6  O   UNL     2      -9.595  13.545  68.667  1.00  0.00    -0.179 OA 
HETATM    7  O   UNL     2     -11.766  13.561  69.201  1.00  0.00    -0.282 OA 
ENDROOT
BRANCH   2   8
HETATM    8  C   UNL     2     -11.687  12.292  66.333  1.00  0.00    -0.365 C  
HETATM    9  H   UNL     2     -13.200  11.729  65.223  1.00  0.00     0.000 HD 
HETATM   10  O   UNL     2     -12.891  12.565  65.552  1.00  0.00    -0.478 OA 
BRANCH   8  11
HETATM   11  C   UNL     2     -10.771  11.422  65.420  1.00  0.00    -0.253 C  
HETATM   12  H   UNL     2      -9.120  10.424  65.688  1.00  0.00     0.000 HD 
HETATM   13  O   UNL     2      -9.679  10.955  66.245  1.00  0.00    -0.191 OA 
BRANCH  11  14
HETATM   14  C   UNL     2     -10.194  12.036  64.137  1.00  0.00    -0.339 C  
HETATM   15  C   UNL     2      -9.429  11.106  63.199  1.00  0.00    -0.357 C  
HETATM   16  O   UNL     2     -11.189  12.790  63.405  1.00  0.00    -0.552 OA 
HETATM   17  H   UNL     2     -10.832  13.170  62.610  1.00  0.00     0.000 HD 
HETATM   18  O   UNL     2      -9.228   9.886  63.468  1.00  0.00    -0.258 OA 
HETATM   19  O   UNL     2      -8.596  11.609  62.363  1.00  0.00    -0.241 OA 
ENDBRANCH  11  14
ENDBRANCH   8  11
ENDBRANCH   2   8
TORSDOF 3
ENDMDL
MODEL      128
REMARK 921   NORMALIZED FREE ENERGY PREDICTED BY IDOCK:   -3.89 KCAL/MOL
REMARK 922        TOTAL FREE ENERGY PREDICTED BY IDOCK:   -5.05 KCAL/MOL
REMARK 923 INTER-LIGAND FREE ENERGY PREDICTED BY IDOCK:   -4.36 KCAL/MOL
REMARK 924 INTRA-LIGAND FREE ENERGY PREDICTED BY IDOCK:   -0.68 KCAL/MOL
REMARK 927      BINDING AFFINITY PREDICTED BY RF-SCORE:    0.00 PKD
ROOT
HETATM    1 CA   UNL     1     -11.911   7.279  67.568  1.00  0.00    -0.499 Ca 
HETATM    2  C   UNL     2     -10.548  10.448  69.819  1.00  0.00    -0.258 C  
HETATM    3  H   UNL     2      -8.878  10.343  70.898  1.00  0.00     0.000 HD 
HETATM    4  C   UNL     2     -10.980  10.006  68.415  1.00  0.00    -0.217 C  
HETATM    5  O   UNL     2      -9.146  10.069  70.028  1.00  0.00    -0.202 OA 
HETATM    6  O   UNL     2     -11.725  10.742  67.741  1.00  0.00    -0.547 OA 
HETATM    7  O   UNL     2     -10.609   8.829  68.039  1.00  0.00    -0.219 OA 
ENDROOT
BRANCH   2   8
HETATM    8  C   UNL     2     -11.333   9.760  70.946  1.00  0.00    -0.365 C  
HETATM    9  H   UNL     2     -13.058  10.089  71.814  1.00  0.00     0.000 HD 
HETATM   10  O   UNL     2     -12.573  10.515  71.118  1.00  0.00    -0.344 OA 
BRANCH   8  11
HETATM   11  C   UNL     2     -11.756   8.266  70.808  1.00  0.00    -0.202 C  
HETATM   12  H   UNL     2     -13.300   7.222  71.372  1.00  0.00     0.000 HD 
HETATM   13  O   UNL     2     -13.042   8.132  71.456  1.00  0.00    -0.319 OA 
BRANCH  11  14
HETATM   14  C   UNL     2     -10.819   7.171  71.337  1.00  0.00    -0.231 C  
HETATM   15  C   UNL     2     -10.619   5.938  70.461  1.00  0.00    -0.275 C  
HETATM   16  O   UNL     2      -9.543   7.709  71.756  1.00  0.00    -0.147 OA 
HETATM   17  H   UNL     2      -8.963   7.031  72.084  1.00  0.00     0.000 HD 
HETATM   18  O   UNL     2     -11.224   5.781  69.361  1.00  0.00    -0.321 OA 
HETATM   19  O   UNL     2     -10.210   4.848  71.000  1.00  0.00    -0.217 OA 
ENDBRANCH  11  14
ENDBRANCH   8  11
ENDBRANCH   2   8
TORSDOF 3
ENDMDL
MODEL      129
REMARK 921   NORMALIZED FREE ENERGY PREDICTED BY IDOCK:   -3.88 KCAL/MOL
REMARK 922        TOTAL FREE ENERGY PREDICTED BY IDOCK:   -5.04 KCAL/MOL
REMARK 923 INTER-LIGAND FREE ENERGY PREDICTED BY IDOCK:   -4.84 KCAL/MOL
REMARK 924 INTRA-LIGAND FREE ENERGY PREDICTED BY IDOCK:   -0.19 KCAL/MOL
REMARK 927      BINDING AFFINITY PREDICTED BY RF-SCORE:    0.00 PKD
ROOT
HETATM    1 CA   UNL     1      -5.792  11.590  68.381  1.00  0.00    -0.047 Ca 
HETATM    2  C   UNL     2      -9.038  14.040  67.729  1.00  0.00    -0.192 C  
HETATM    3  H   UNL     2     -10.622  14.047  68.935  1.00  0.00     0.000 HD 
HETATM    4  C   UNL     2      -7.516  14.004  67.913  1.00  0.00    -0.149 C  
HETATM    5  O   UNL     2      -9.679  14.025  69.049  1.00  0.00    -0.098 OA 
HETATM    6  O   UNL     2      -6.790  14.685  67.163  1.00  0.00    -0.225 OA 
HETATM    7  O   UNL     2      -7.059  13.184  68.797  1.00  0.00    -0.100 OA 
ENDROOT
BRANCH   2   8
HETATM    8  C   UNL     2      -9.594  12.814  66.987  1.00  0.00    -0.229 C  
HETATM    9  H   UNL     2      -9.997  10.967  67.501  1.00  0.00     0.000 HD 
HETATM   10  O   UNL     2      -9.654  11.725  67.960  1.00  0.00    -0.175 OA 
BRANCH   8  11
HETATM   11  C   UNL     2     -11.001  12.873  66.320  1.00  0.00    -0.281 C  
HETATM   12  H   UNL     2     -12.571  11.720  66.330  1.00  0.00     0.000 HD 
HETATM   13  O   UNL     2     -11.713  11.685  66.737  1.00  0.00    -0.541 OA 
BRANCH  11  14
HETATM   14  C   UNL     2     -11.101  12.999  64.793  1.00  0.00    -0.322 C  
HETATM   15  C   UNL     2     -12.214  13.882  64.236  1.00  0.00    -0.408 C  
HETATM   16  O   UNL     2      -9.829  13.346  64.197  1.00  0.00    -0.735 OA 
HETATM   17  H   UNL     2      -9.891  13.425  63.252  1.00  0.00     0.000 HD 
HETATM   18  O   UNL     2     -13.058  14.460  64.980  1.00  0.00    -0.615 OA 
HETATM   19  O   UNL     2     -12.605  13.705  63.027  1.00  0.00    -0.729 OA 
ENDBRANCH  11  14
ENDBRANCH   8  11
ENDBRANCH   2   8
TORSDOF 3
ENDMDL
MODEL      130
REMARK 921   NORMALIZED FREE ENERGY PREDICTED BY IDOCK:   -3.86 KCAL/MOL
REMARK 922        TOTAL FREE ENERGY PREDICTED BY IDOCK:   -5.02 KCAL/MOL
REMARK 923 INTER-LIGAND FREE ENERGY PREDICTED BY IDOCK:   -4.71 KCAL/MOL
REMARK 924 INTRA-LIGAND FREE ENERGY PREDICTED BY IDOCK:   -0.31 KCAL/MOL
REMARK 927      BINDING AFFINITY PREDICTED BY RF-SCORE:    0.00 PKD
ROOT
HETATM    1 CA   UNL     1      -7.314  13.633  70.166  1.00  0.00    -0.335 Ca 
HETATM    2  C   UNL     2      -8.293  16.399  67.275  1.00  0.00    -0.177 C  
HETATM    3  H   UNL     2      -9.342  18.040  67.688  1.00  0.00     0.000 HD 
HETATM    4  C   UNL     2      -7.137  15.637  67.936  1.00  0.00    -0.138 C  
HETATM    5  O   UNL     2      -8.626  17.568  68.097  1.00  0.00    -0.242 OA 
HETATM    6  O   UNL     2      -6.244  15.138  67.225  1.00  0.00    -0.318 OA 
HETATM    7  O   UNL     2      -7.205  15.477  69.214  1.00  0.00    -0.164 OA 
ENDROOT
BRANCH   2   8
HETATM    8  C   UNL     2      -9.589  15.580  67.178  1.00  0.00    -0.222 C  
HETATM    9  H   UNL     2     -11.434  15.858  67.777  1.00  0.00     0.000 HD 
HETATM   10  O   UNL     2     -10.633  16.364  67.837  1.00  0.00    -0.299 OA 
BRANCH   8  11
HETATM   11  C   UNL     2     -10.164  15.184  65.785  1.00  0.00    -0.341 C  
HETATM   12  H   UNL     2     -10.665  16.166  64.180  1.00  0.00     0.000 HD 
HETATM   13  O   UNL     2     -10.315  16.407  65.029  1.00  0.00    -0.615 OA 
BRANCH  11  14
HETATM   14  C   UNL     2     -11.479  14.394  65.716  1.00  0.00    -0.335 C  
HETATM   15  C   UNL     2     -11.381  12.895  65.445  1.00  0.00    -0.303 C  
HETATM   16  O   UNL     2     -12.323  14.650  66.863  1.00  0.00    -0.475 OA 
HETATM   17  H   UNL     2     -13.137  14.161  66.819  1.00  0.00     0.000 HD 
HETATM   18  O   UNL     2     -10.277  12.313  65.240  1.00  0.00    -0.270 OA 
HETATM   19  O   UNL     2     -12.401  12.278  64.973  1.00  0.00    -0.477 OA 
ENDBRANCH  11  14
ENDBRANCH   8  11
ENDBRANCH   2   8
TORSDOF 3
ENDMDL
MODEL      131
REMARK 921   NORMALIZED FREE ENERGY PREDICTED BY IDOCK:   -3.86 KCAL/MOL
REMARK 922        TOTAL FREE ENERGY PREDICTED BY IDOCK:   -5.01 KCAL/MOL
REMARK 923 INTER-LIGAND FREE ENERGY PREDICTED BY IDOCK:   -4.18 KCAL/MOL
REMARK 924 INTRA-LIGAND FREE ENERGY PREDICTED BY IDOCK:   -0.83 KCAL/MOL
REMARK 927      BINDING AFFINITY PREDICTED BY RF-SCORE:    0.00 PKD
ROOT
HETATM    1 CA   UNL     1     -13.227   6.096  71.876  1.00  0.00    -0.315 Ca 
HETATM    2  C   UNL     2     -11.315   9.712  71.391  1.00  0.00    -0.374 C  
HETATM    3  H   UNL     2     -12.290  11.366  70.867  1.00  0.00     0.000 HD 
HETATM    4  C   UNL     2     -11.563   8.549  72.360  1.00  0.00    -0.354 C  
HETATM    5  O   UNL     2     -12.444  10.646  71.467  1.00  0.00    -0.377 OA 
HETATM    6  O   UNL     2     -10.612   8.078  73.012  1.00  0.00    -0.353 OA 
HETATM    7  O   UNL     2     -12.755   8.056  72.380  1.00  0.00    -0.248 OA 
ENDROOT
BRANCH   2   8
HETATM    8  C   UNL     2     -11.239   9.276  69.920  1.00  0.00    -0.126 C  
HETATM    9  H   UNL     2     -10.823  10.192  68.239  1.00  0.00     0.000 HD 
HETATM   10  O   UNL     2     -10.870  10.462  69.148  1.00  0.00    -0.207 OA 
BRANCH   8  11
HETATM   11  C   UNL     2     -10.249   8.154  69.484  1.00  0.00    -0.213 C  
HETATM   12  H   UNL     2      -9.131   7.847  67.919  1.00  0.00     0.000 HD 
HETATM   13  O   UNL     2      -9.735   8.530  68.185  1.00  0.00    -0.148 OA 
BRANCH  11  14
HETATM   14  C   UNL     2     -10.745   6.703  69.418  1.00  0.00    -0.259 C  
HETATM   15  C   UNL     2      -9.944   5.656  70.187  1.00  0.00    -0.207 C  
HETATM   16  O   UNL     2     -12.153   6.599  69.733  1.00  0.00    -0.638 OA 
HETATM   17  H   UNL     2     -12.460   5.700  69.693  1.00  0.00     0.000 HD 
HETATM   18  O   UNL     2      -8.888   5.940  70.823  1.00  0.00    -0.135 OA 
HETATM   19  O   UNL     2     -10.044   4.422  69.850  1.00  0.00    -0.222 OA 
ENDBRANCH  11  14
ENDBRANCH   8  11
ENDBRANCH   2   8
TORSDOF 3
ENDMDL
MODEL      132
REMARK 921   NORMALIZED FREE ENERGY PREDICTED BY IDOCK:   -3.86 KCAL/MOL
REMARK 922        TOTAL FREE ENERGY PREDICTED BY IDOCK:   -5.01 KCAL/MOL
REMARK 923 INTER-LIGAND FREE ENERGY PREDICTED BY IDOCK:   -4.52 KCAL/MOL
REMARK 924 INTRA-LIGAND FREE ENERGY PREDICTED BY IDOCK:   -0.49 KCAL/MOL
REMARK 927      BINDING AFFINITY PREDICTED BY RF-SCORE:    0.00 PKD
ROOT
HETATM    1 CA   UNL     1     -14.334   7.521  70.499  1.00  0.00    -0.628 Ca 
HETATM    2  C   UNL     2     -10.312   8.386  70.309  1.00  0.00    -0.205 C  
HETATM    3  H   UNL     2      -9.453   9.711  71.522  1.00  0.00     0.000 HD 
HETATM    4  C   UNL     2     -11.343   7.260  70.463  1.00  0.00    -0.280 C  
HETATM    5  O   UNL     2     -10.091   9.014  71.617  1.00  0.00    -0.316 OA 
HETATM    6  O   UNL     2     -11.194   6.200  69.827  1.00  0.00    -0.384 OA 
HETATM    7  O   UNL     2     -12.375   7.517  71.193  1.00  0.00    -0.320 OA 
ENDROOT
BRANCH   2   8
HETATM    8  C   UNL     2     -10.777   9.519  69.382  1.00  0.00    -0.225 C  
HETATM    9  H   UNL     2     -11.479  11.326  69.669  1.00  0.00     0.000 HD 
HETATM   10  O   UNL     2     -11.191  10.626  70.243  1.00  0.00    -0.298 OA 
BRANCH   8  11
HETATM   11  C   UNL     2      -9.796  10.131  68.337  1.00  0.00    -0.151 C  
HETATM   12  H   UNL     2      -8.293  11.367  68.430  1.00  0.00     0.000 HD 
HETATM   13  O   UNL     2      -8.892  10.994  69.067  1.00  0.00    -0.145 OA 
BRANCH  11  14
HETATM   14  C   UNL     2     -10.364  10.908  67.142  1.00  0.00    -0.220 C  
HETATM   15  C   UNL     2     -10.241  10.261  65.765  1.00  0.00    -0.219 C  
HETATM   16  O   UNL     2     -11.723  11.345  67.379  1.00  0.00    -0.574 OA 
HETATM   17  H   UNL     2     -12.074  11.826  66.638  1.00  0.00     0.000 HD 
HETATM   18  O   UNL     2      -9.659   9.152  65.586  1.00  0.00    -0.262 OA 
HETATM   19  O   UNL     2     -10.305  11.001  64.719  1.00  0.00    -0.294 OA 
ENDBRANCH  11  14
ENDBRANCH   8  11
ENDBRANCH   2   8
TORSDOF 3
ENDMDL
MODEL      133
REMARK 921   NORMALIZED FREE ENERGY PREDICTED BY IDOCK:   -3.84 KCAL/MOL
REMARK 922        TOTAL FREE ENERGY PREDICTED BY IDOCK:   -4.99 KCAL/MOL
REMARK 923 INTER-LIGAND FREE ENERGY PREDICTED BY IDOCK:   -4.32 KCAL/MOL
REMARK 924 INTRA-LIGAND FREE ENERGY PREDICTED BY IDOCK:   -0.68 KCAL/MOL
REMARK 927      BINDING AFFINITY PREDICTED BY RF-SCORE:    0.00 PKD
ROOT
HETATM    1 CA   UNL     1     -13.489  10.202  69.466  1.00  0.00    -0.600 Ca 
HETATM    2  C   UNL     2     -11.449   7.534  71.850  1.00  0.00    -0.270 C  
HETATM    3  H   UNL     2      -9.823   8.055  72.875  1.00  0.00     0.000 HD 
HETATM    4  C   UNL     2     -12.819   8.163  71.567  1.00  0.00    -0.301 C  
HETATM    5  O   UNL     2     -10.672   8.444  72.699  1.00  0.00    -0.339 OA 
HETATM    6  O   UNL     2     -13.834   7.441  71.544  1.00  0.00    -0.390 OA 
HETATM    7  O   UNL     2     -12.829   9.420  71.274  1.00  0.00    -0.324 OA 
ENDROOT
BRANCH   2   8
HETATM    8  C   UNL     2     -10.599   7.324  70.587  1.00  0.00    -0.226 C  
HETATM    9  H   UNL     2     -10.469   5.904  69.244  1.00  0.00     0.000 HD 
HETATM   10  O   UNL     2     -10.994   6.034  70.024  1.00  0.00    -0.324 OA 
BRANCH   8  11
HETATM   11  C   UNL     2     -10.673   8.345  69.413  1.00  0.00    -0.152 C  
HETATM   12  H   UNL     2     -10.501   8.222  67.477  1.00  0.00     0.000 HD 
HETATM   13  O   UNL     2     -10.456   7.599  68.193  1.00  0.00    -0.203 OA 
BRANCH  11  14
HETATM   14  C   UNL     2      -9.739   9.563  69.421  1.00  0.00    -0.183 C  
HETATM   15  C   UNL     2     -10.294  10.874  68.871  1.00  0.00    -0.204 C  
HETATM   16  O   UNL     2      -9.136   9.772  70.719  1.00  0.00    -0.321 OA 
HETATM   17  H   UNL     2      -8.557  10.526  70.724  1.00  0.00     0.000 HD 
HETATM   18  O   UNL     2     -11.458  10.967  68.382  1.00  0.00    -0.278 OA 
HETATM   19  O   UNL     2      -9.478  11.779  68.471  1.00  0.00    -0.200 OA 
ENDBRANCH  11  14
ENDBRANCH   8  11
ENDBRANCH   2   8
TORSDOF 3
ENDMDL
MODEL      134
REMARK 921   NORMALIZED FREE ENERGY PREDICTED BY IDOCK:   -3.84 KCAL/MOL
REMARK 922        TOTAL FREE ENERGY PREDICTED BY IDOCK:   -4.98 KCAL/MOL
REMARK 923 INTER-LIGAND FREE ENERGY PREDICTED BY IDOCK:   -4.96 KCAL/MOL
REMARK 924 INTRA-LIGAND FREE ENERGY PREDICTED BY IDOCK:   -0.03 KCAL/MOL
REMARK 927      BINDING AFFINITY PREDICTED BY RF-SCORE:    0.00 PKD
ROOT
HETATM    1 CA   UNL     1     -11.358   6.265  69.897  1.00  0.00    -0.229 Ca 
HETATM    2  C   UNL     2     -11.981   9.937  71.655  1.00  0.00    -0.346 C  
HETATM    3  H   UNL     2     -13.553  11.075  71.208  1.00  0.00     0.000 HD 
HETATM    4  C   UNL     2     -11.744   8.446  71.925  1.00  0.00    -0.334 C  
HETATM    5  O   UNL     2     -13.406  10.151  71.376  1.00  0.00    -0.367 OA 
HETATM    6  O   UNL     2     -10.941   8.103  72.813  1.00  0.00    -0.369 OA 
HETATM    7  O   UNL     2     -12.337   7.614  71.138  1.00  0.00    -0.312 OA 
ENDROOT
BRANCH   2   8
HETATM    8  C   UNL     2     -11.236  10.461  70.417  1.00  0.00    -0.321 C  
HETATM    9  H   UNL     2     -10.345   9.613  68.892  1.00  0.00     0.000 HD 
HETATM   10  O   UNL     2     -10.805   9.289  69.657  1.00  0.00    -0.232 OA 
BRANCH   8  11
HETATM   11  C   UNL     2     -11.963  11.390  69.399  1.00  0.00    -0.339 C  
HETATM   12  H   UNL     2     -12.330  11.306  67.488  1.00  0.00     0.000 HD 
HETATM   13  O   UNL     2     -11.887  10.740  68.109  1.00  0.00    -0.533 OA 
BRANCH  11  14
HETATM   14  C   UNL     2     -11.497  12.845  69.248  1.00  0.00    -0.282 C  
HETATM   15  C   UNL     2     -12.122  13.880  70.178  1.00  0.00    -0.349 C  
HETATM   16  O   UNL     2     -10.054  12.953  69.263  1.00  0.00    -0.352 OA 
HETATM   17  H   UNL     2      -9.766  13.854  69.170  1.00  0.00     0.000 HD 
HETATM   18  O   UNL     2     -13.022  13.583  71.017  1.00  0.00    -0.280 OA 
HETATM   19  O   UNL     2     -12.100  15.117  69.841  1.00  0.00    -0.311 OA 
ENDBRANCH  11  14
ENDBRANCH   8  11
ENDBRANCH   2   8
TORSDOF 3
ENDMDL
MODEL      135
REMARK 921   NORMALIZED FREE ENERGY PREDICTED BY IDOCK:   -3.82 KCAL/MOL
REMARK 922        TOTAL FREE ENERGY PREDICTED BY IDOCK:   -4.96 KCAL/MOL
REMARK 923 INTER-LIGAND FREE ENERGY PREDICTED BY IDOCK:   -4.52 KCAL/MOL
REMARK 924 INTRA-LIGAND FREE ENERGY PREDICTED BY IDOCK:   -0.44 KCAL/MOL
REMARK 927      BINDING AFFINITY PREDICTED BY RF-SCORE:    0.00 PKD
ROOT
HETATM    1 CA   UNL     1      -8.700  16.989  65.497  1.00  0.00    -0.217 Ca 
HETATM    2  C   UNL     2      -8.599  14.090  68.421  1.00  0.00    -0.174 C  
HETATM    3  H   UNL     2      -7.604  12.382  68.188  1.00  0.00     0.000 HD 
HETATM    4  C   UNL     2      -8.331  15.570  68.118  1.00  0.00    -0.145 C  
HETATM    5  O   UNL     2      -7.438  13.298  68.001  1.00  0.00    -0.108 OA 
HETATM    6  O   UNL     2      -8.705  16.441  68.926  1.00  0.00    -0.238 OA 
HETATM    7  O   UNL     2      -7.798  15.839  66.974  1.00  0.00    -0.195 OA 
ENDROOT
BRANCH   2   8
HETATM    8  C   UNL     2      -9.794  13.514  67.646  1.00  0.00    -0.228 C  
HETATM    9  H   UNL     2     -11.274  12.314  68.103  1.00  0.00     0.000 HD 
HETATM   10  O   UNL     2     -10.536  12.671  68.582  1.00  0.00    -0.237 OA 
BRANCH   8  11
HETATM   11  C   UNL     2     -10.844  14.467  67.001  1.00  0.00    -0.297 C  
HETATM   12  H   UNL     2     -12.386  15.456  67.663  1.00  0.00     0.000 HD 
HETATM   13  O   UNL     2     -11.745  14.874  68.056  1.00  0.00    -0.333 OA 
BRANCH  11  14
HETATM   14  C   UNL     2     -11.672  13.970  65.808  1.00  0.00    -0.363 C  
HETATM   15  C   UNL     2     -11.770  14.890  64.593  1.00  0.00    -0.404 C  
HETATM   16  O   UNL     2     -11.289  12.635  65.404  1.00  0.00    -0.293 OA 
HETATM   17  H   UNL     2     -11.802  12.327  64.665  1.00  0.00     0.000 HD 
HETATM   18  O   UNL     2     -11.237  16.037  64.566  1.00  0.00    -0.521 OA 
HETATM   19  O   UNL     2     -12.743  14.738  63.772  1.00  0.00    -0.767 OA 
ENDBRANCH  11  14
ENDBRANCH   8  11
ENDBRANCH   2   8
TORSDOF 3
ENDMDL
MODEL      136
REMARK 921   NORMALIZED FREE ENERGY PREDICTED BY IDOCK:   -3.81 KCAL/MOL
REMARK 922        TOTAL FREE ENERGY PREDICTED BY IDOCK:   -4.96 KCAL/MOL
REMARK 923 INTER-LIGAND FREE ENERGY PREDICTED BY IDOCK:   -5.19 KCAL/MOL
REMARK 924 INTRA-LIGAND FREE ENERGY PREDICTED BY IDOCK:    0.24 KCAL/MOL
REMARK 927      BINDING AFFINITY PREDICTED BY RF-SCORE:    0.00 PKD
ROOT
HETATM    1 CA   UNL     1     -10.726  18.437  69.910  1.00  0.00    -0.522 Ca 
HETATM    2  C   UNL     2      -9.178  15.481  67.497  1.00  0.00    -0.198 C  
HETATM    3  H   UNL     2      -9.829  15.178  65.640  1.00  0.00     0.000 HD 
HETATM    4  C   UNL     2      -8.831  16.704  68.355  1.00  0.00    -0.226 C  
HETATM    5  O   UNL     2      -9.613  15.935  66.171  1.00  0.00    -0.281 OA 
HETATM    6  O   UNL     2      -7.851  16.658  69.123  1.00  0.00    -0.237 OA 
HETATM    7  O   UNL     2      -9.645  17.703  68.295  1.00  0.00    -0.281 OA 
ENDROOT
BRANCH   2   8
HETATM    8  C   UNL     2     -10.348  14.655  68.054  1.00  0.00    -0.235 C  
HETATM    9  H   UNL     2     -12.297  14.747  67.877  1.00  0.00     0.000 HD 
HETATM   10  O   UNL     2     -11.574  15.258  67.533  1.00  0.00    -0.316 OA 
BRANCH   8  11
HETATM   11  C   UNL     2     -10.452  13.132  67.742  1.00  0.00    -0.228 C  
HETATM   12  H   UNL     2      -9.412  11.878  66.675  1.00  0.00     0.000 HD 
HETATM   13  O   UNL     2      -9.349  12.807  66.865  1.00  0.00    -0.220 OA 
BRANCH  11  14
HETATM   14  C   UNL     2     -11.748  12.579  67.133  1.00  0.00    -0.355 C  
HETATM   15  C   UNL     2     -11.920  12.703  65.622  1.00  0.00    -0.452 C  
HETATM   16  O   UNL     2     -12.012  11.223  67.565  1.00  0.00    -0.612 OA 
HETATM   17  H   UNL     2     -12.814  10.881  67.188  1.00  0.00     0.000 HD 
HETATM   18  O   UNL     2     -11.063  13.274  64.886  1.00  0.00    -0.306 OA 
HETATM   19  O   UNL     2     -13.099  12.653  65.121  1.00  0.00    -0.726 OA 
ENDBRANCH  11  14
ENDBRANCH   8  11
ENDBRANCH   2   8
TORSDOF 3
ENDMDL
MODEL      137
REMARK 921   NORMALIZED FREE ENERGY PREDICTED BY IDOCK:   -3.81 KCAL/MOL
REMARK 922        TOTAL FREE ENERGY PREDICTED BY IDOCK:   -4.95 KCAL/MOL
REMARK 923 INTER-LIGAND FREE ENERGY PREDICTED BY IDOCK:   -4.40 KCAL/MOL
REMARK 924 INTRA-LIGAND FREE ENERGY PREDICTED BY IDOCK:   -0.55 KCAL/MOL
REMARK 927      BINDING AFFINITY PREDICTED BY RF-SCORE:    0.00 PKD
ROOT
HETATM    1 CA   UNL     1      -6.905  18.228  69.857  1.00  0.00    -0.237 Ca 
HETATM    2  C   UNL     2      -8.897  19.846  66.636  1.00  0.00    -0.358 C  
HETATM    3  H   UNL     2     -10.589  20.875  66.842  1.00  0.00     0.000 HD 
HETATM    4  C   UNL     2      -7.551  19.782  67.371  1.00  0.00    -0.267 C  
HETATM    5  O   UNL     2      -9.756  20.835  67.297  1.00  0.00    -0.479 OA 
HETATM    6  O   UNL     2      -6.499  19.652  66.717  1.00  0.00    -0.191 OA 
HETATM    7  O   UNL     2      -7.596  19.779  68.660  1.00  0.00    -0.330 OA 
ENDROOT
BRANCH   2   8
HETATM    8  C   UNL     2      -9.681  18.525  66.680  1.00  0.00    -0.341 C  
HETATM    9  H   UNL     2     -11.048  17.705  65.542  1.00  0.00     0.000 HD 
HETATM   10  O   UNL     2     -10.564  18.521  65.515  1.00  0.00    -0.621 OA 
BRANCH   8  11
HETATM   11  C   UNL     2      -8.925  17.163  66.650  1.00  0.00    -0.253 C  
HETATM   12  H   UNL     2      -9.078  15.534  65.594  1.00  0.00     0.000 HD 
HETATM   13  O   UNL     2      -9.539  16.364  65.613  1.00  0.00    -0.495 OA 
BRANCH  11  14
HETATM   14  C   UNL     2      -8.841  16.326  67.934  1.00  0.00    -0.183 C  
HETATM   15  C   UNL     2      -7.452  15.903  68.404  1.00  0.00    -0.127 C  
HETATM   16  O   UNL     2      -9.583  16.928  69.021  1.00  0.00    -0.260 OA 
HETATM   17  H   UNL     2      -9.531  16.410  69.815  1.00  0.00     0.000 HD 
HETATM   18  O   UNL     2      -6.402  16.181  67.755  1.00  0.00    -0.124 OA 
HETATM   19  O   UNL     2      -7.338  14.896  69.190  1.00  0.00    -0.135 OA 
ENDBRANCH  11  14
ENDBRANCH   8  11
ENDBRANCH   2   8
TORSDOF 3
ENDMDL
MODEL      138
REMARK 921   NORMALIZED FREE ENERGY PREDICTED BY IDOCK:   -3.80 KCAL/MOL
REMARK 922        TOTAL FREE ENERGY PREDICTED BY IDOCK:   -4.94 KCAL/MOL
REMARK 923 INTER-LIGAND FREE ENERGY PREDICTED BY IDOCK:   -4.35 KCAL/MOL
REMARK 924 INTRA-LIGAND FREE ENERGY PREDICTED BY IDOCK:   -0.59 KCAL/MOL
REMARK 927      BINDING AFFINITY PREDICTED BY RF-SCORE:    0.00 PKD
ROOT
HETATM    1 CA   UNL     1     -10.577  14.239  70.237  1.00  0.00    -0.399 Ca 
HETATM    2  C   UNL     2     -11.185  13.810  66.187  1.00  0.00    -0.300 C  
HETATM    3  H   UNL     2     -13.006  13.806  65.381  1.00  0.00     0.000 HD 
HETATM    4  C   UNL     2     -10.460  14.628  67.262  1.00  0.00    -0.266 C  
HETATM    5  O   UNL     2     -12.556  14.313  66.047  1.00  0.00    -0.447 OA 
HETATM    6  O   UNL     2      -9.263  14.933  67.099  1.00  0.00    -0.202 OA 
HETATM    7  O   UNL     2     -11.122  14.885  68.339  1.00  0.00    -0.253 OA 
ENDROOT
BRANCH   2   8
HETATM    8  C   UNL     2     -11.327  12.322  66.542  1.00  0.00    -0.351 C  
HETATM    9  H   UNL     2     -11.554  10.678  65.500  1.00  0.00     0.000 HD 
HETATM   10  O   UNL     2     -11.466  11.598  65.280  1.00  0.00    -0.230 OA 
BRANCH   8  11
HETATM   11  C   UNL     2     -10.200  11.593  67.334  1.00  0.00    -0.203 C  
HETATM   12  H   UNL     2      -8.538  10.703  66.844  1.00  0.00     0.000 HD 
HETATM   13  O   UNL     2      -9.226  11.147  66.362  1.00  0.00    -0.173 OA 
BRANCH  11  14
HETATM   14  C   UNL     2     -10.566  10.413  68.244  1.00  0.00    -0.212 C  
HETATM   15  C   UNL     2     -11.438  10.713  69.460  1.00  0.00    -0.291 C  
HETATM   16  O   UNL     2     -11.106   9.300  67.494  1.00  0.00    -0.455 OA 
HETATM   17  H   UNL     2     -11.333   8.570  68.058  1.00  0.00     0.000 HD 
HETATM   18  O   UNL     2     -11.818  11.884  69.752  1.00  0.00    -0.309 OA 
HETATM   19  O   UNL     2     -11.432   9.897  70.450  1.00  0.00    -0.265 OA 
ENDBRANCH  11  14
ENDBRANCH   8  11
ENDBRANCH   2   8
TORSDOF 3
ENDMDL
MODEL      139
REMARK 921   NORMALIZED FREE ENERGY PREDICTED BY IDOCK:   -3.80 KCAL/MOL
REMARK 922        TOTAL FREE ENERGY PREDICTED BY IDOCK:   -4.94 KCAL/MOL
REMARK 923 INTER-LIGAND FREE ENERGY PREDICTED BY IDOCK:   -5.16 KCAL/MOL
REMARK 924 INTRA-LIGAND FREE ENERGY PREDICTED BY IDOCK:    0.22 KCAL/MOL
REMARK 927      BINDING AFFINITY PREDICTED BY RF-SCORE:    0.00 PKD
ROOT
HETATM    1 CA   UNL     1      -9.729  14.138  68.946  1.00  0.00    -0.194 Ca 
HETATM    2  C   UNL     2     -10.314  11.491  65.845  1.00  0.00    -0.247 C  
HETATM    3  H   UNL     2      -9.985  11.991  63.947  1.00  0.00     0.000 HD 
HETATM    4  C   UNL     2      -9.594  11.712  67.182  1.00  0.00    -0.175 C  
HETATM    5  O   UNL     2      -9.539  12.128  64.774  1.00  0.00    -0.106 OA 
HETATM    6  O   UNL     2      -9.567  10.794  68.024  1.00  0.00    -0.157 OA 
HETATM    7  O   UNL     2      -9.123  12.893  67.397  1.00  0.00    -0.180 OA 
ENDROOT
BRANCH   2   8
HETATM    8  C   UNL     2     -11.707  12.138  65.787  1.00  0.00    -0.327 C  
HETATM    9  H   UNL     2     -12.880  12.990  67.105  1.00  0.00     0.000 HD 
HETATM   10  O   UNL     2     -12.019  12.590  67.141  1.00  0.00    -0.484 OA 
BRANCH   8  11
HETATM   11  C   UNL     2     -11.965  13.361  64.856  1.00  0.00    -0.378 C  
HETATM   12  H   UNL     2     -11.854  13.669  62.936  1.00  0.00     0.000 HD 
HETATM   13  O   UNL     2     -11.696  12.924  63.504  1.00  0.00    -0.490 OA 
BRANCH  11  14
HETATM   14  C   UNL     2     -11.206  14.670  65.112  1.00  0.00    -0.374 C  
HETATM   15  C   UNL     2     -11.807  15.951  64.541  1.00  0.00    -0.084 C  
HETATM   16  O   UNL     2     -10.883  14.841  66.513  1.00  0.00    -0.307 OA 
HETATM   17  H   UNL     2     -10.413  15.652  66.671  1.00  0.00     0.000 HD 
HETATM   18  O   UNL     2     -12.862  15.953  63.843  1.00  0.00    -0.516 OA 
HETATM   19  O   UNL     2     -11.048  16.969  64.357  1.00  0.00    -1.144 OA 
ENDBRANCH  11  14
ENDBRANCH   8  11
ENDBRANCH   2   8
TORSDOF 3
ENDMDL
MODEL      140
REMARK 921   NORMALIZED FREE ENERGY PREDICTED BY IDOCK:   -3.79 KCAL/MOL
REMARK 922        TOTAL FREE ENERGY PREDICTED BY IDOCK:   -4.93 KCAL/MOL
REMARK 923 INTER-LIGAND FREE ENERGY PREDICTED BY IDOCK:   -4.85 KCAL/MOL
REMARK 924 INTRA-LIGAND FREE ENERGY PREDICTED BY IDOCK:   -0.08 KCAL/MOL
REMARK 927      BINDING AFFINITY PREDICTED BY RF-SCORE:    0.00 PKD
ROOT
HETATM    1 CA   UNL     1     -12.152   6.490  68.352  1.00  0.00    -0.545 Ca 
HETATM    2  C   UNL     2     -11.351   9.290  71.264  1.00  0.00    -0.353 C  
HETATM    3  H   UNL     2     -11.979   9.078  73.142  1.00  0.00     0.000 HD 
HETATM    4  C   UNL     2     -10.725   8.375  70.204  1.00  0.00    -0.236 C  
HETATM    5  O   UNL     2     -11.591   8.512  72.485  1.00  0.00    -0.372 OA 
HETATM    6  O   UNL     2      -9.828   8.818  69.463  1.00  0.00    -0.174 OA 
HETATM    7  O   UNL     2     -11.239   7.198  70.079  1.00  0.00    -0.270 OA 
ENDROOT
BRANCH   2   8
HETATM    8  C   UNL     2     -12.722   9.851  70.857  1.00  0.00    -0.290 C  
HETATM    9  H   UNL     2     -14.454  10.026  71.757  1.00  0.00     0.000 HD 
HETATM   10  O   UNL     2     -13.606   9.680  72.009  1.00  0.00    -0.408 OA 
BRANCH   8  11
HETATM   11  C   UNL     2     -12.864  11.341  70.424  1.00  0.00    -0.037 C  
HETATM   12  H   UNL     2     -12.011  12.464  69.081  1.00  0.00     0.000 HD 
HETATM   13  O   UNL     2     -11.925  11.555  69.345  1.00  0.00    -0.311 OA 
BRANCH  11  14
HETATM   14  C   UNL     2     -12.673  12.446  71.472  1.00  0.00    -0.228 C  
HETATM   15  C   UNL     2     -12.557  13.880  70.964  1.00  0.00    -0.371 C  
HETATM   16  O   UNL     2     -13.656  12.360  72.531  1.00  0.00    -0.616 OA 
HETATM   17  H   UNL     2     -13.538  13.045  73.180  1.00  0.00     0.000 HD 
HETATM   18  O   UNL     2     -12.569  14.166  69.731  1.00  0.00    -0.294 OA 
HETATM   19  O   UNL     2     -11.998  14.763  71.707  1.00  0.00    -0.351 OA 
ENDBRANCH  11  14
ENDBRANCH   8  11
ENDBRANCH   2   8
TORSDOF 3
ENDMDL
MODEL      141
REMARK 921   NORMALIZED FREE ENERGY PREDICTED BY IDOCK:   -3.79 KCAL/MOL
REMARK 922        TOTAL FREE ENERGY PREDICTED BY IDOCK:   -4.93 KCAL/MOL
REMARK 923 INTER-LIGAND FREE ENERGY PREDICTED BY IDOCK:   -4.33 KCAL/MOL
REMARK 924 INTRA-LIGAND FREE ENERGY PREDICTED BY IDOCK:   -0.60 KCAL/MOL
REMARK 927      BINDING AFFINITY PREDICTED BY RF-SCORE:    0.00 PKD
ROOT
HETATM    1 CA   UNL     1      -8.170  20.947  65.082  1.00  0.00    -0.520 Ca 
HETATM    2  C   UNL     2      -9.472  17.867  67.487  1.00  0.00    -0.258 C  
HETATM    3  H   UNL     2      -8.237  16.855  68.677  1.00  0.00     0.000 HD 
HETATM    4  C   UNL     2      -9.683  19.342  67.119  1.00  0.00    -0.330 C  
HETATM    5  O   UNL     2      -8.369  17.768  68.449  1.00  0.00    -0.279 OA 
HETATM    6  O   UNL     2     -10.840  19.777  66.968  1.00  0.00    -0.468 OA 
HETATM    7  O   UNL     2      -8.622  20.040  66.897  1.00  0.00    -0.313 OA 
ENDROOT
BRANCH   2   8
HETATM    8  C   UNL     2      -9.057  16.993  66.294  1.00  0.00    -0.246 C  
HETATM    9  H   UNL     2      -7.339  16.436  65.533  1.00  0.00     0.000 HD 
HETATM   10  O   UNL     2      -7.595  16.977  66.271  1.00  0.00    -0.285 OA 
BRANCH   8  11
HETATM   11  C   UNL     2      -9.504  15.502  66.221  1.00  0.00    -0.323 C  
HETATM   12  H   UNL     2     -11.206  14.593  65.960  1.00  0.00     0.000 HD 
HETATM   13  O   UNL     2     -10.934  15.502  66.005  1.00  0.00    -0.316 OA 
BRANCH  11  14
HETATM   14  C   UNL     2      -9.181  14.565  67.394  1.00  0.00    -0.200 C  
HETATM   15  C   UNL     2      -9.227  13.064  67.124  1.00  0.00    -0.226 C  
HETATM   16  O   UNL     2      -7.942  14.927  68.048  1.00  0.00    -0.117 OA 
HETATM   17  H   UNL     2      -7.743  14.348  68.774  1.00  0.00     0.000 HD 
HETATM   18  O   UNL     2      -9.557  12.586  66.000  1.00  0.00    -0.248 OA 
HETATM   19  O   UNL     2      -9.380  12.257  68.109  1.00  0.00    -0.196 OA 
ENDBRANCH  11  14
ENDBRANCH   8  11
ENDBRANCH   2   8
TORSDOF 3
ENDMDL
MODEL      142
REMARK 921   NORMALIZED FREE ENERGY PREDICTED BY IDOCK:   -3.78 KCAL/MOL
REMARK 922        TOTAL FREE ENERGY PREDICTED BY IDOCK:   -4.91 KCAL/MOL
REMARK 923 INTER-LIGAND FREE ENERGY PREDICTED BY IDOCK:   -4.51 KCAL/MOL
REMARK 924 INTRA-LIGAND FREE ENERGY PREDICTED BY IDOCK:   -0.40 KCAL/MOL
REMARK 927      BINDING AFFINITY PREDICTED BY RF-SCORE:    0.00 PKD
ROOT
HETATM    1 CA   UNL     1      -8.197  11.559  70.035  1.00  0.00    -0.329 Ca 
HETATM    2  C   UNL     2     -10.961  10.240  67.281  1.00  0.00    -0.210 C  
HETATM    3  H   UNL     2     -10.452   9.099  65.730  1.00  0.00     0.000 HD 
HETATM    4  C   UNL     2     -10.608  10.289  68.773  1.00  0.00    -0.209 C  
HETATM    5  O   UNL     2     -10.234   9.129  66.654  1.00  0.00    -0.263 OA 
HETATM    6  O   UNL     2     -11.494  10.558  69.605  1.00  0.00    -0.247 OA 
HETATM    7  O   UNL     2      -9.365  10.131  69.079  1.00  0.00    -0.167 OA 
ENDROOT
BRANCH   2   8
HETATM    8  C   UNL     2     -10.534  11.498  66.509  1.00  0.00    -0.244 C  
HETATM    9  H   UNL     2     -10.337  11.942  64.611  1.00  0.00     0.000 HD 
HETATM   10  O   UNL     2     -10.600  11.164  65.088  1.00  0.00    -0.284 OA 
BRANCH   8  11
HETATM   11  C   UNL     2     -11.331  12.827  66.675  1.00  0.00    -0.316 C  
HETATM   12  H   UNL     2     -13.052  13.481  66.042  1.00  0.00     0.000 HD 
HETATM   13  O   UNL     2     -12.567  12.671  65.941  1.00  0.00    -0.526 OA 
BRANCH  11  14
HETATM   14  C   UNL     2     -10.673  14.151  66.260  1.00  0.00    -0.293 C  
HETATM   15  C   UNL     2     -10.878  15.352  67.179  1.00  0.00    -0.321 C  
HETATM   16  O   UNL     2      -9.270  13.982  65.950  1.00  0.00    -0.501 OA 
HETATM   17  H   UNL     2      -8.863  14.801  65.694  1.00  0.00     0.000 HD 
HETATM   18  O   UNL     2     -11.594  15.295  68.221  1.00  0.00    -0.333 OA 
HETATM   19  O   UNL     2     -10.725  16.534  66.705  1.00  0.00    -0.265 OA 
ENDBRANCH  11  14
ENDBRANCH   8  11
ENDBRANCH   2   8
TORSDOF 3
ENDMDL
MODEL      143
REMARK 921   NORMALIZED FREE ENERGY PREDICTED BY IDOCK:   -3.77 KCAL/MOL
REMARK 922        TOTAL FREE ENERGY PREDICTED BY IDOCK:   -4.90 KCAL/MOL
REMARK 923 INTER-LIGAND FREE ENERGY PREDICTED BY IDOCK:   -4.51 KCAL/MOL
REMARK 924 INTRA-LIGAND FREE ENERGY PREDICTED BY IDOCK:   -0.39 KCAL/MOL
REMARK 927      BINDING AFFINITY PREDICTED BY RF-SCORE:    0.00 PKD
ROOT
HETATM    1 CA   UNL     1      -8.059  12.835  69.462  1.00  0.00    -0.321 Ca 
HETATM    2  C   UNL     2     -11.359  10.398  69.103  1.00  0.00    -0.226 C  
HETATM    3  H   UNL     2     -13.198  11.127  68.873  1.00  0.00     0.000 HD 
HETATM    4  C   UNL     2      -9.971  10.715  68.532  1.00  0.00    -0.167 C  
HETATM    5  O   UNL     2     -12.338  11.323  68.520  1.00  0.00    -0.543 OA 
HETATM    6  O   UNL     2      -9.192   9.782  68.257  1.00  0.00    -0.129 OA 
HETATM    7  O   UNL     2      -9.650  11.961  68.450  1.00  0.00    -0.203 OA 
ENDROOT
BRANCH   2   8
HETATM    8  C   UNL     2     -11.457  10.599  70.623  1.00  0.00    -0.281 C  
HETATM    9  H   UNL     2     -12.909  11.057  71.855  1.00  0.00     0.000 HD 
HETATM   10  O   UNL     2     -12.849  10.933  70.915  1.00  0.00    -0.346 OA 
BRANCH   8  11
HETATM   11  C   UNL     2     -11.080   9.439  71.593  1.00  0.00    -0.339 C  
HETATM   12  H   UNL     2      -9.409   8.619  72.164  1.00  0.00     0.000 HD 
HETATM   13  O   UNL     2      -9.639   9.326  71.573  1.00  0.00    -0.252 OA 
BRANCH  11  14
HETATM   14  C   UNL     2     -11.689   8.048  71.368  1.00  0.00    -0.287 C  
HETATM   15  C   UNL     2     -11.530   7.025  72.490  1.00  0.00    -0.237 C  
HETATM   16  O   UNL     2     -13.070   8.125  70.943  1.00  0.00    -0.512 OA 
HETATM   17  H   UNL     2     -13.447   7.264  70.804  1.00  0.00     0.000 HD 
HETATM   18  O   UNL     2     -10.889   7.276  73.551  1.00  0.00    -0.375 OA 
HETATM   19  O   UNL     2     -11.633   5.776  72.216  1.00  0.00    -0.293 OA 
ENDBRANCH  11  14
ENDBRANCH   8  11
ENDBRANCH   2   8
TORSDOF 3
ENDMDL
MODEL      144
REMARK 921   NORMALIZED FREE ENERGY PREDICTED BY IDOCK:   -3.76 KCAL/MOL
REMARK 922        TOTAL FREE ENERGY PREDICTED BY IDOCK:   -4.89 KCAL/MOL
REMARK 923 INTER-LIGAND FREE ENERGY PREDICTED BY IDOCK:   -4.23 KCAL/MOL
REMARK 924 INTRA-LIGAND FREE ENERGY PREDICTED BY IDOCK:   -0.66 KCAL/MOL
REMARK 927      BINDING AFFINITY PREDICTED BY RF-SCORE:    0.00 PKD
ROOT
HETATM    1 CA   UNL     1     -12.313  10.167  68.558  1.00  0.00    -0.520 Ca 
HETATM    2  C   UNL     2     -10.766   8.643  72.058  1.00  0.00    -0.357 C  
HETATM    3  H   UNL     2      -8.806   8.521  72.388  1.00  0.00     0.000 HD 
HETATM    4  C   UNL     2     -11.718   9.688  71.462  1.00  0.00    -0.400 C  
HETATM    5  O   UNL     2      -9.396   9.168  72.019  1.00  0.00    -0.337 OA 
HETATM    6  O   UNL     2     -12.840   9.861  71.976  1.00  0.00    -0.402 OA 
HETATM    7  O   UNL     2     -11.328  10.279  70.385  1.00  0.00    -0.287 OA 
ENDROOT
BRANCH   2   8
HETATM    8  C   UNL     2     -10.725   7.329  71.263  1.00  0.00    -0.225 C  
HETATM    9  H   UNL     2     -11.848   5.724  71.208  1.00  0.00     0.000 HD 
HETATM   10  O   UNL     2     -11.873   6.536  71.700  1.00  0.00    -0.310 OA 
BRANCH   8  11
HETATM   11  C   UNL     2     -10.787   7.351  69.706  1.00  0.00    -0.234 C  
HETATM   12  H   UNL     2     -11.571   6.195  68.349  1.00  0.00     0.000 HD 
HETATM   13  O   UNL     2     -11.533   6.182  69.298  1.00  0.00    -0.404 OA 
BRANCH  11  14
HETATM   14  C   UNL     2      -9.478   7.407  68.906  1.00  0.00    -0.144 C  
HETATM   15  C   UNL     2      -9.385   8.440  67.787  1.00  0.00    -0.134 C  
HETATM   16  O   UNL     2      -8.320   7.489  69.770  1.00  0.00    -0.130 OA 
HETATM   17  H   UNL     2      -7.510   7.523  69.275  1.00  0.00     0.000 HD 
HETATM   18  O   UNL     2     -10.350   9.200  67.483  1.00  0.00    -0.228 OA 
HETATM   19  O   UNL     2      -8.531   8.267  66.846  1.00  0.00    -0.115 OA 
ENDBRANCH  11  14
ENDBRANCH   8  11
ENDBRANCH   2   8
TORSDOF 3
ENDMDL
MODEL      145
REMARK 921   NORMALIZED FREE ENERGY PREDICTED BY IDOCK:   -3.75 KCAL/MOL
REMARK 922        TOTAL FREE ENERGY PREDICTED BY IDOCK:   -4.88 KCAL/MOL
REMARK 923 INTER-LIGAND FREE ENERGY PREDICTED BY IDOCK:   -4.80 KCAL/MOL
REMARK 924 INTRA-LIGAND FREE ENERGY PREDICTED BY IDOCK:   -0.08 KCAL/MOL
REMARK 927      BINDING AFFINITY PREDICTED BY RF-SCORE:    0.00 PKD
ROOT
HETATM    1 CA   UNL     1     -11.384  19.528  67.523  1.00  0.00    -0.438 Ca 
HETATM    2  C   UNL     2     -10.480  15.514  67.709  1.00  0.00    -0.273 C  
HETATM    3  H   UNL     2     -11.395  14.165  66.566  1.00  0.00     0.000 HD 
HETATM    4  C   UNL     2      -9.898  16.919  67.503  1.00  0.00    -0.260 C  
HETATM    5  O   UNL     2     -11.035  15.035  66.438  1.00  0.00    -0.329 OA 
HETATM    6  O   UNL     2      -8.836  17.234  68.073  1.00  0.00    -0.227 OA 
HETATM    7  O   UNL     2     -10.605  17.740  66.804  1.00  0.00    -0.318 OA 
ENDROOT
BRANCH   2   8
HETATM    8  C   UNL     2     -11.646  15.476  68.708  1.00  0.00    -0.378 C  
HETATM    9  H   UNL     2     -13.229  14.341  68.926  1.00  0.00     0.000 HD 
HETATM   10  O   UNL     2     -12.508  14.365  68.308  1.00  0.00    -0.085 OA 
BRANCH   8  11
HETATM   11  C   UNL     2     -11.370  15.279  70.229  1.00  0.00    -0.292 C  
HETATM   12  H   UNL     2      -9.765  15.144  71.324  1.00  0.00     0.000 HD 
HETATM   13  O   UNL     2      -9.933  15.263  70.397  1.00  0.00    -0.094 OA 
BRANCH  11  14
HETATM   14  C   UNL     2     -11.965  14.059  70.947  1.00  0.00    -0.267 C  
HETATM   15  C   UNL     2     -13.374  14.200  71.514  1.00  0.00    -0.351 C  
HETATM   16  O   UNL     2     -11.856  12.858  70.148  1.00  0.00    -0.443 OA 
HETATM   17  H   UNL     2     -12.224  12.102  70.592  1.00  0.00     0.000 HD 
HETATM   18  O   UNL     2     -14.028  15.281  71.447  1.00  0.00    -0.486 OA 
HETATM   19  O   UNL     2     -13.753  13.408  72.450  1.00  0.00    -0.562 OA 
ENDBRANCH  11  14
ENDBRANCH   8  11
ENDBRANCH   2   8
TORSDOF 3
ENDMDL
MODEL      146
REMARK 921   NORMALIZED FREE ENERGY PREDICTED BY IDOCK:   -3.74 KCAL/MOL
REMARK 922        TOTAL FREE ENERGY PREDICTED BY IDOCK:   -4.87 KCAL/MOL
REMARK 923 INTER-LIGAND FREE ENERGY PREDICTED BY IDOCK:   -4.34 KCAL/MOL
REMARK 924 INTRA-LIGAND FREE ENERGY PREDICTED BY IDOCK:   -0.53 KCAL/MOL
REMARK 927      BINDING AFFINITY PREDICTED BY RF-SCORE:    0.00 PKD
ROOT
HETATM    1 CA   UNL     1     -13.689  10.973  72.595  1.00  0.00    -0.591 Ca 
HETATM    2  C   UNL     2     -11.239   7.693  72.145  1.00  0.00    -0.284 C  
HETATM    3  H   UNL     2     -10.020   7.072  73.592  1.00  0.00     0.000 HD 
HETATM    4  C   UNL     2     -12.688   8.192  72.066  1.00  0.00    -0.323 C  
HETATM    5  O   UNL     2     -10.917   7.381  73.543  1.00  0.00    -0.344 OA 
HETATM    6  O   UNL     2     -13.404   7.850  71.106  1.00  0.00    -0.191 OA 
HETATM    7  O   UNL     2     -13.062   9.029  72.974  1.00  0.00    -0.295 OA 
ENDROOT
BRANCH   2   8
HETATM    8  C   UNL     2     -10.206   8.743  71.709  1.00  0.00    -0.338 C  
HETATM    9  H   UNL     2      -8.549   9.441  72.487  1.00  0.00     0.000 HD 
HETATM   10  O   UNL     2      -9.188   8.793  72.757  1.00  0.00    -0.305 OA 
BRANCH   8  11
HETATM   11  C   UNL     2      -9.433   8.571  70.367  1.00  0.00    -0.165 C  
HETATM   12  H   UNL     2      -7.953   9.504  69.510  1.00  0.00     0.000 HD 
HETATM   13  O   UNL     2      -8.425   9.608  70.328  1.00  0.00    -0.189 OA 
BRANCH  11  14
HETATM   14  C   UNL     2     -10.213   8.591  69.046  1.00  0.00    -0.207 C  
HETATM   15  C   UNL     2     -10.544   7.244  68.409  1.00  0.00    -0.170 C  
HETATM   16  O   UNL     2     -11.398   9.417  69.131  1.00  0.00    -0.445 OA 
HETATM   17  H   UNL     2     -11.882   9.429  68.313  1.00  0.00     0.000 HD 
HETATM   18  O   UNL     2     -10.162   6.145  68.907  1.00  0.00    -0.159 OA 
HETATM   19  O   UNL     2     -10.806   7.194  67.154  1.00  0.00    -0.333 OA 
ENDBRANCH  11  14
ENDBRANCH   8  11
ENDBRANCH   2   8
TORSDOF 3
ENDMDL
MODEL      147
REMARK 921   NORMALIZED FREE ENERGY PREDICTED BY IDOCK:   -3.74 KCAL/MOL
REMARK 922        TOTAL FREE ENERGY PREDICTED BY IDOCK:   -4.87 KCAL/MOL
REMARK 923 INTER-LIGAND FREE ENERGY PREDICTED BY IDOCK:   -4.65 KCAL/MOL
REMARK 924 INTRA-LIGAND FREE ENERGY PREDICTED BY IDOCK:   -0.22 KCAL/MOL
REMARK 927      BINDING AFFINITY PREDICTED BY RF-SCORE:    0.00 PKD
ROOT
HETATM    1 CA   UNL     1      -8.992  14.867  64.968  1.00  0.00    -0.368 Ca 
HETATM    2  C   UNL     2     -11.639  11.742  64.529  1.00  0.00    -0.223 C  
HETATM    3  H   UNL     2     -13.548  11.884  65.075  1.00  0.00     0.000 HD 
HETATM    4  C   UNL     2     -10.634  12.642  63.798  1.00  0.00    -0.397 C  
HETATM    5  O   UNL     2     -12.926  12.440  64.622  1.00  0.00    -0.793 OA 
HETATM    6  O   UNL     2      -9.829  12.136  62.993  1.00  0.00    -0.365 OA 
HETATM    7  O   UNL     2     -10.623  13.888  64.132  1.00  0.00    -0.212 OA 
ENDROOT
BRANCH   2   8
HETATM    8  C   UNL     2     -11.236  11.426  65.978  1.00  0.00    -0.112 C  
HETATM    9  H   UNL     2      -9.589  10.806  66.838  1.00  0.00     0.000 HD 
HETATM   10  O   UNL     2      -9.838  11.001  65.943  1.00  0.00    -0.213 OA 
BRANCH   8  11
HETATM   11  C   UNL     2     -11.322  12.530  67.074  1.00  0.00    -0.328 C  
HETATM   12  H   UNL     2     -10.078  13.843  67.797  1.00  0.00     0.000 HD 
HETATM   13  O   UNL     2     -10.025  13.170  67.128  1.00  0.00    -0.230 OA 
BRANCH  11  14
HETATM   14  C   UNL     2     -11.740  12.140  68.498  1.00  0.00    -0.330 C  
HETATM   15  C   UNL     2     -12.323  13.239  69.382  1.00  0.00    -0.037 C  
HETATM   16  O   UNL     2     -12.596  10.973  68.508  1.00  0.00    -0.519 OA 
HETATM   17  H   UNL     2     -12.855  10.731  69.390  1.00  0.00     0.000 HD 
HETATM   18  O   UNL     2     -12.425  14.439  68.995  1.00  0.00    -0.166 OA 
HETATM   19  O   UNL     2     -12.300  13.094  70.657  1.00  0.00    -0.358 OA 
ENDBRANCH  11  14
ENDBRANCH   8  11
ENDBRANCH   2   8
TORSDOF 3
ENDMDL
MODEL      148
REMARK 921   NORMALIZED FREE ENERGY PREDICTED BY IDOCK:   -3.74 KCAL/MOL
REMARK 922        TOTAL FREE ENERGY PREDICTED BY IDOCK:   -4.87 KCAL/MOL
REMARK 923 INTER-LIGAND FREE ENERGY PREDICTED BY IDOCK:   -4.65 KCAL/MOL
REMARK 924 INTRA-LIGAND FREE ENERGY PREDICTED BY IDOCK:   -0.22 KCAL/MOL
REMARK 927      BINDING AFFINITY PREDICTED BY RF-SCORE:    0.00 PKD
ROOT
HETATM    1 CA   UNL     1      -7.667  11.542  66.197  1.00  0.00    -0.148 Ca 
HETATM    2  C   UNL     2     -11.288  12.597  67.853  1.00  0.00    -0.288 C  
HETATM    3  H   UNL     2     -12.769  13.364  66.766  1.00  0.00     0.000 HD 
HETATM    4  C   UNL     2     -10.275  11.458  67.684  1.00  0.00    -0.180 C  
HETATM    5  O   UNL     2     -12.142  12.658  66.661  1.00  0.00    -0.519 OA 
HETATM    6  O   UNL     2      -9.978  10.749  68.664  1.00  0.00    -0.167 OA 
HETATM    7  O   UNL     2      -9.710  11.353  66.529  1.00  0.00    -0.193 OA 
ENDROOT
BRANCH   2   8
HETATM    8  C   UNL     2     -10.635  13.984  67.963  1.00  0.00    -0.247 C  
HETATM    9  H   UNL     2      -8.881  14.632  68.546  1.00  0.00     0.000 HD 
HETATM   10  O   UNL     2      -9.284  13.774  68.478  1.00  0.00    -0.195 OA 
BRANCH   8  11
HETATM   11  C   UNL     2     -10.479  14.880  66.698  1.00  0.00    -0.292 C  
HETATM   12  H   UNL     2      -9.195  14.975  65.237  1.00  0.00     0.000 HD 
HETATM   13  O   UNL     2      -9.291  14.429  66.008  1.00  0.00    -0.242 OA 
BRANCH  11  14
HETATM   14  C   UNL     2     -10.405  16.404  66.865  1.00  0.00    -0.300 C  
HETATM   15  C   UNL     2     -10.688  17.258  65.632  1.00  0.00    -0.120 C  
HETATM   16  O   UNL     2     -11.189  16.863  67.991  1.00  0.00    -0.271 OA 
HETATM   17  H   UNL     2     -11.143  17.806  68.094  1.00  0.00     0.000 HD 
HETATM   18  O   UNL     2     -10.932  16.752  64.498  1.00  0.00    -0.921 OA 
HETATM   19  O   UNL     2     -10.249  18.462  65.591  1.00  0.00    -0.565 OA 
ENDBRANCH  11  14
ENDBRANCH   8  11
ENDBRANCH   2   8
TORSDOF 3
ENDMDL
MODEL      149
REMARK 921   NORMALIZED FREE ENERGY PREDICTED BY IDOCK:   -3.73 KCAL/MOL
REMARK 922        TOTAL FREE ENERGY PREDICTED BY IDOCK:   -4.86 KCAL/MOL
REMARK 923 INTER-LIGAND FREE ENERGY PREDICTED BY IDOCK:   -4.86 KCAL/MOL
REMARK 924 INTRA-LIGAND FREE ENERGY PREDICTED BY IDOCK:    0.00 KCAL/MOL
REMARK 927      BINDING AFFINITY PREDICTED BY RF-SCORE:    0.00 PKD
ROOT
HETATM    1 CA   UNL     1     -12.972  11.729  62.717  1.00  0.00    -0.526 Ca 
HETATM    2  C   UNL     2     -11.159  13.917  65.698  1.00  0.00    -0.298 C  
HETATM    3  H   UNL     2      -9.308  14.629  65.516  1.00  0.00     0.000 HD 
HETATM    4  C   UNL     2     -12.394  13.820  64.793  1.00  0.00    -0.386 C  
HETATM    5  O   UNL     2     -10.073  14.569  64.956  1.00  0.00    -0.393 OA 
HETATM    6  O   UNL     2     -13.526  14.008  65.277  1.00  0.00    -0.622 OA 
HETATM    7  O   UNL     2     -12.190  13.453  63.573  1.00  0.00    -0.648 OA 
ENDROOT
BRANCH   2   8
HETATM    8  C   UNL     2     -10.603  12.550  66.124  1.00  0.00    -0.253 C  
HETATM    9  H   UNL     2     -10.298  10.847  65.205  1.00  0.00     0.000 HD 
HETATM   10  O   UNL     2     -10.642  11.692  64.941  1.00  0.00    -0.272 OA 
BRANCH   8  11
HETATM   11  C   UNL     2      -9.156  12.433  66.692  1.00  0.00    -0.204 C  
HETATM   12  H   UNL     2      -7.926  10.959  67.012  1.00  0.00     0.000 HD 
HETATM   13  O   UNL     2      -8.808  11.030  66.667  1.00  0.00    -0.154 OA 
BRANCH  11  14
HETATM   14  C   UNL     2      -8.853  12.993  68.088  1.00  0.00    -0.194 C  
HETATM   15  C   UNL     2      -8.111  14.325  68.162  1.00  0.00    -0.144 C  
HETATM   16  O   UNL     2     -10.032  13.022  68.926  1.00  0.00    -0.417 OA 
HETATM   17  H   UNL     2      -9.844  13.369  69.791  1.00  0.00     0.000 HD 
HETATM   18  O   UNL     2      -7.713  14.938  67.129  1.00  0.00    -0.202 OA 
HETATM   19  O   UNL     2      -7.479  14.629  69.235  1.00  0.00    -0.146 OA 
ENDBRANCH  11  14
ENDBRANCH   8  11
ENDBRANCH   2   8
TORSDOF 3
ENDMDL
MODEL      150
REMARK 921   NORMALIZED FREE ENERGY PREDICTED BY IDOCK:   -3.71 KCAL/MOL
REMARK 922        TOTAL FREE ENERGY PREDICTED BY IDOCK:   -4.84 KCAL/MOL
REMARK 923 INTER-LIGAND FREE ENERGY PREDICTED BY IDOCK:   -4.19 KCAL/MOL
REMARK 924 INTRA-LIGAND FREE ENERGY PREDICTED BY IDOCK:   -0.65 KCAL/MOL
REMARK 927      BINDING AFFINITY PREDICTED BY RF-SCORE:    0.00 PKD
ROOT
HETATM    1 CA   UNL     1     -10.306  17.716  65.633  1.00  0.00    -0.305 Ca 
HETATM    2  C   UNL     2      -8.623  16.499  69.190  1.00  0.00    -0.147 C  
HETATM    3  H   UNL     2      -7.131  15.183  69.263  1.00  0.00     0.000 HD 
HETATM    4  C   UNL     2      -8.975  17.716  68.325  1.00  0.00    -0.276 C  
HETATM    5  O   UNL     2      -7.349  15.937  68.727  1.00  0.00    -0.139 OA 
HETATM    6  O   UNL     2      -9.490  18.719  68.855  1.00  0.00    -0.336 OA 
HETATM    7  O   UNL     2      -8.794  17.594  67.053  1.00  0.00    -0.234 OA 
ENDROOT
BRANCH   2   8
HETATM    8  C   UNL     2      -9.642  15.355  69.080  1.00  0.00    -0.236 C  
HETATM    9  H   UNL     2     -11.118  14.721  70.201  1.00  0.00     0.000 HD 
HETATM   10  O   UNL     2     -10.488  15.428  70.270  1.00  0.00    -0.301 OA 
BRANCH   8  11
HETATM   11  C   UNL     2     -10.615  15.285  67.864  1.00  0.00    -0.260 C  
HETATM   12  H   UNL     2     -12.502  14.859  67.644  1.00  0.00     0.000 HD 
HETATM   13  O   UNL     2     -11.909  14.901  68.384  1.00  0.00    -0.319 OA 
BRANCH  11  14
HETATM   14  C   UNL     2     -10.268  14.374  66.679  1.00  0.00    -0.277 C  
HETATM   15  C   UNL     2     -10.772  14.795  65.302  1.00  0.00    -0.390 C  
HETATM   16  O   UNL     2      -8.855  14.066  66.631  1.00  0.00    -0.394 OA 
HETATM   17  H   UNL     2      -8.640  13.502  65.897  1.00  0.00     0.000 HD 
HETATM   18  O   UNL     2     -11.486  15.825  65.126  1.00  0.00    -0.185 OA 
HETATM   19  O   UNL     2     -10.882  13.911  64.379  1.00  0.00    -0.388 OA 
ENDBRANCH  11  14
ENDBRANCH   8  11
ENDBRANCH   2   8
TORSDOF 3
ENDMDL
MODEL      151
REMARK 921   NORMALIZED FREE ENERGY PREDICTED BY IDOCK:   -3.71 KCAL/MOL
REMARK 922        TOTAL FREE ENERGY PREDICTED BY IDOCK:   -4.83 KCAL/MOL
REMARK 923 INTER-LIGAND FREE ENERGY PREDICTED BY IDOCK:   -4.30 KCAL/MOL
REMARK 924 INTRA-LIGAND FREE ENERGY PREDICTED BY IDOCK:   -0.53 KCAL/MOL
REMARK 927      BINDING AFFINITY PREDICTED BY RF-SCORE:    0.00 PKD
ROOT
HETATM    1 CA   UNL     1     -11.471   7.873  68.484  1.00  0.00    -0.429 Ca 
HETATM    2  C   UNL     2     -11.217   5.960  72.122  1.00  0.00    -0.287 C  
HETATM    3  H   UNL     2     -12.752   5.876  73.387  1.00  0.00     0.000 HD 
HETATM    4  C   UNL     2     -11.028   5.798  70.609  1.00  0.00    -0.249 C  
HETATM    5  O   UNL     2     -12.635   5.775  72.450  1.00  0.00    -0.034 OA 
HETATM    6  O   UNL     2     -10.019   5.210  70.174  1.00  0.00    -0.210 OA 
HETATM    7  O   UNL     2     -11.903   6.370  69.852  1.00  0.00    -0.384 OA 
ENDROOT
BRANCH   2   8
HETATM    8  C   UNL     2     -10.854   7.361  72.637  1.00  0.00    -0.303 C  
HETATM    9  H   UNL     2      -9.462   8.070  73.820  1.00  0.00     0.000 HD 
HETATM   10  O   UNL     2      -9.686   7.204  73.502  1.00  0.00    -0.199 OA 
BRANCH   8  11
HETATM   11  C   UNL     2     -10.495   8.497  71.633  1.00  0.00    -0.275 C  
HETATM   12  H   UNL     2      -8.965   9.678  71.390  1.00  0.00     0.000 HD 
HETATM   13  O   UNL     2      -9.184   8.985  72.003  1.00  0.00    -0.373 OA 
BRANCH  11  14
HETATM   14  C   UNL     2     -11.445   9.694  71.485  1.00  0.00    -0.369 C  
HETATM   15  C   UNL     2     -11.478  10.397  70.131  1.00  0.00    -0.319 C  
HETATM   16  O   UNL     2     -12.786   9.376  71.926  1.00  0.00    -0.349 OA 
HETATM   17  H   UNL     2     -13.374  10.117  71.834  1.00  0.00     0.000 HD 
HETATM   18  O   UNL     2     -10.731  10.054  69.169  1.00  0.00    -0.201 OA 
HETATM   19  O   UNL     2     -11.907  11.604  70.064  1.00  0.00    -0.320 OA 
ENDBRANCH  11  14
ENDBRANCH   8  11
ENDBRANCH   2   8
TORSDOF 3
ENDMDL
MODEL      152
REMARK 921   NORMALIZED FREE ENERGY PREDICTED BY IDOCK:   -3.70 KCAL/MOL
REMARK 922        TOTAL FREE ENERGY PREDICTED BY IDOCK:   -4.83 KCAL/MOL
REMARK 923 INTER-LIGAND FREE ENERGY PREDICTED BY IDOCK:   -4.50 KCAL/MOL
REMARK 924 INTRA-LIGAND FREE ENERGY PREDICTED BY IDOCK:   -0.32 KCAL/MOL
REMARK 927      BINDING AFFINITY PREDICTED BY RF-SCORE:    0.00 PKD
ROOT
HETATM    1 CA   UNL     1     -10.902  13.869  70.023  1.00  0.00    -0.348 Ca 
HETATM    2  C   UNL     2     -11.820  13.872  66.008  1.00  0.00    -0.393 C  
HETATM    3  H   UNL     2     -13.436  12.959  65.288  1.00  0.00     0.000 HD 
HETATM    4  C   UNL     2     -11.505  14.759  67.219  1.00  0.00    -0.366 C  
HETATM    5  O   UNL     2     -13.241  13.508  66.038  1.00  0.00    -0.104 OA 
HETATM    6  O   UNL     2     -10.723  15.720  67.091  1.00  0.00    -0.314 OA 
HETATM    7  O   UNL     2     -12.013  14.397  68.349  1.00  0.00    -0.331 OA 
ENDROOT
BRANCH   2   8
HETATM    8  C   UNL     2     -11.054  12.539  66.010  1.00  0.00    -0.294 C  
HETATM    9  H   UNL     2     -11.379  10.772  66.792  1.00  0.00     0.000 HD 
HETATM   10  O   UNL     2     -11.852  11.596  66.790  1.00  0.00    -0.557 OA 
BRANCH   8  11
HETATM   11  C   UNL     2     -10.729  11.819  64.667  1.00  0.00    -0.310 C  
HETATM   12  H   UNL     2     -11.770  11.294  63.107  1.00  0.00     0.000 HD 
HETATM   13  O   UNL     2     -11.968  11.733  63.926  1.00  0.00    -0.384 OA 
BRANCH  11  14
HETATM   14  C   UNL     2     -10.075  10.431  64.701  1.00  0.00    -0.308 C  
HETATM   15  C   UNL     2      -9.065  10.106  63.605  1.00  0.00    -0.260 C  
HETATM   16  O   UNL     2      -9.526  10.125  66.005  1.00  0.00    -0.175 OA 
HETATM   17  H   UNL     2      -9.121   9.266  66.026  1.00  0.00     0.000 HD 
HETATM   18  O   UNL     2      -8.794  10.915  62.670  1.00  0.00    -0.254 OA 
HETATM   19  O   UNL     2      -8.810   8.879  63.334  1.00  0.00    -0.106 OA 
ENDBRANCH  11  14
ENDBRANCH   8  11
ENDBRANCH   2   8
TORSDOF 3
ENDMDL
MODEL      153
REMARK 921   NORMALIZED FREE ENERGY PREDICTED BY IDOCK:   -3.70 KCAL/MOL
REMARK 922        TOTAL FREE ENERGY PREDICTED BY IDOCK:   -4.82 KCAL/MOL
REMARK 923 INTER-LIGAND FREE ENERGY PREDICTED BY IDOCK:   -4.99 KCAL/MOL
REMARK 924 INTRA-LIGAND FREE ENERGY PREDICTED BY IDOCK:    0.17 KCAL/MOL
REMARK 927      BINDING AFFINITY PREDICTED BY RF-SCORE:    0.00 PKD
ROOT
HETATM    1 CA   UNL     1      -7.690  20.353  65.191  1.00  0.00    -0.319 Ca 
HETATM    2  C   UNL     2      -7.864  17.889  68.487  1.00  0.00    -0.298 C  
HETATM    3  H   UNL     2      -6.300  16.817  69.094  1.00  0.00     0.000 HD 
HETATM    4  C   UNL     2      -8.087  19.320  67.983  1.00  0.00    -0.306 C  
HETATM    5  O   UNL     2      -6.438  17.703  68.782  1.00  0.00    -0.194 OA 
HETATM    6  O   UNL     2      -9.107  19.943  68.334  1.00  0.00    -0.304 OA 
HETATM    7  O   UNL     2      -7.230  19.775  67.133  1.00  0.00    -0.214 OA 
ENDROOT
BRANCH   2   8
HETATM    8  C   UNL     2      -8.212  16.813  67.447  1.00  0.00    -0.177 C  
HETATM    9  H   UNL     2      -8.673  14.911  67.543  1.00  0.00     0.000 HD 
HETATM   10  O   UNL     2      -8.457  15.576  68.186  1.00  0.00    -0.145 OA 
BRANCH   8  11
HETATM   11  C   UNL     2      -9.439  17.000  66.504  1.00  0.00    -0.276 C  
HETATM   12  H   UNL     2     -11.195  17.821  66.689  1.00  0.00     0.000 HD 
HETATM   13  O   UNL     2     -10.447  17.706  67.264  1.00  0.00    -0.346 OA 
BRANCH  11  14
HETATM   14  C   UNL     2     -10.081  15.766  65.857  1.00  0.00    -0.356 C  
HETATM   15  C   UNL     2     -10.949  15.995  64.623  1.00  0.00    -0.278 C  
HETATM   16  O   UNL     2      -9.111  14.721  65.609  1.00  0.00    -0.433 OA 
HETATM   17  H   UNL     2      -9.509  13.956  65.208  1.00  0.00     0.000 HD 
HETATM   18  O   UNL     2     -11.181  17.150  64.160  1.00  0.00    -0.963 OA 
HETATM   19  O   UNL     2     -11.819  15.110  64.298  1.00  0.00    -0.380 OA 
ENDBRANCH  11  14
ENDBRANCH   8  11
ENDBRANCH   2   8
TORSDOF 3
ENDMDL
MODEL      154
REMARK 921   NORMALIZED FREE ENERGY PREDICTED BY IDOCK:   -3.70 KCAL/MOL
REMARK 922        TOTAL FREE ENERGY PREDICTED BY IDOCK:   -4.82 KCAL/MOL
REMARK 923 INTER-LIGAND FREE ENERGY PREDICTED BY IDOCK:   -4.05 KCAL/MOL
REMARK 924 INTRA-LIGAND FREE ENERGY PREDICTED BY IDOCK:   -0.77 KCAL/MOL
REMARK 927      BINDING AFFINITY PREDICTED BY RF-SCORE:    0.00 PKD
ROOT
HETATM    1 CA   UNL     1     -12.079   6.664  68.321  1.00  0.00    -0.544 Ca 
HETATM    2  C   UNL     2     -10.712   7.466  72.122  1.00  0.00    -0.225 C  
HETATM    3  H   UNL     2     -11.606   8.786  73.315  1.00  0.00     0.000 HD 
HETATM    4  C   UNL     2     -11.173   6.358  71.167  1.00  0.00    -0.302 C  
HETATM    5  O   UNL     2     -11.891   8.100  72.724  1.00  0.00    -0.389 OA 
HETATM    6  O   UNL     2     -10.533   5.290  71.110  1.00  0.00    -0.229 OA 
HETATM    7  O   UNL     2     -12.169   6.635  70.396  1.00  0.00    -0.332 OA 
ENDROOT
BRANCH   2   8
HETATM    8  C   UNL     2      -9.948   8.600  71.420  1.00  0.00    -0.254 C  
HETATM    9  H   UNL     2      -8.399   9.704  71.887  1.00  0.00     0.000 HD 
HETATM   10  O   UNL     2      -8.870   9.003  72.321  1.00  0.00    -0.363 OA 
BRANCH   8  11
HETATM   11  C   UNL     2      -9.280   8.355  70.033  1.00  0.00    -0.158 C  
HETATM   12  H   UNL     2      -7.518   8.702  69.281  1.00  0.00     0.000 HD 
HETATM   13  O   UNL     2      -7.926   8.852  70.126  1.00  0.00    -0.093 OA 
BRANCH  11  14
HETATM   14  C   UNL     2      -9.936   8.937  68.773  1.00  0.00    -0.184 C  
HETATM   15  C   UNL     2      -9.734   8.178  67.465  1.00  0.00    -0.161 C  
HETATM   16  O   UNL     2     -11.338   9.228  68.980  1.00  0.00    -0.445 OA 
HETATM   17  H   UNL     2     -11.744   9.589  68.200  1.00  0.00     0.000 HD 
HETATM   18  O   UNL     2      -9.022   7.134  67.389  1.00  0.00    -0.121 OA 
HETATM   19  O   UNL     2      -9.884   8.798  66.353  1.00  0.00    -0.249 OA 
ENDBRANCH  11  14
ENDBRANCH   8  11
ENDBRANCH   2   8
TORSDOF 3
ENDMDL
MODEL      155
REMARK 921   NORMALIZED FREE ENERGY PREDICTED BY IDOCK:   -3.69 KCAL/MOL
REMARK 922        TOTAL FREE ENERGY PREDICTED BY IDOCK:   -4.81 KCAL/MOL
REMARK 923 INTER-LIGAND FREE ENERGY PREDICTED BY IDOCK:   -4.36 KCAL/MOL
REMARK 924 INTRA-LIGAND FREE ENERGY PREDICTED BY IDOCK:   -0.45 KCAL/MOL
REMARK 927      BINDING AFFINITY PREDICTED BY RF-SCORE:    0.00 PKD
ROOT
HETATM    1 CA   UNL     1     -12.933  11.574  62.375  1.00  0.00    -0.660 Ca 
HETATM    2  C   UNL     2     -11.078  13.118  65.713  1.00  0.00    -0.273 C  
HETATM    3  H   UNL     2      -9.100  13.073  65.944  1.00  0.00     0.000 HD 
HETATM    4  C   UNL     2     -12.044  13.430  64.563  1.00  0.00    -0.409 C  
HETATM    5  O   UNL     2      -9.699  13.267  65.232  1.00  0.00    -0.122 OA 
HETATM    6  O   UNL     2     -13.094  14.059  64.796  1.00  0.00    -0.632 OA 
HETATM    7  O   UNL     2     -11.749  12.934  63.409  1.00  0.00    -0.514 OA 
ENDROOT
BRANCH   2   8
HETATM    8  C   UNL     2     -11.181  11.673  66.225  1.00  0.00    -0.271 C  
HETATM    9  H   UNL     2     -10.489   9.947  65.608  1.00  0.00     0.000 HD 
HETATM   10  O   UNL     2     -10.425  10.840  65.291  1.00  0.00    -0.270 OA 
BRANCH   8  11
HETATM   11  C   UNL     2     -10.662  11.305  67.647  1.00  0.00    -0.226 C  
HETATM   12  H   UNL     2     -10.361  12.299  69.295  1.00  0.00     0.000 HD 
HETATM   13  O   UNL     2     -10.677  12.523  68.427  1.00  0.00    -0.225 OA 
BRANCH  11  14
HETATM   14  C   UNL     2      -9.285  10.642  67.793  1.00  0.00    -0.146 C  
HETATM   15  C   UNL     2      -9.209   9.133  67.572  1.00  0.00    -0.128 C  
HETATM   16  O   UNL     2      -8.274  11.321  67.013  1.00  0.00    -0.138 OA 
HETATM   17  H   UNL     2      -7.421  10.910  67.103  1.00  0.00     0.000 HD 
HETATM   18  O   UNL     2     -10.231   8.431  67.323  1.00  0.00    -0.227 OA 
HETATM   19  O   UNL     2      -8.225   8.479  68.070  1.00  0.00    -0.117 OA 
ENDBRANCH  11  14
ENDBRANCH   8  11
ENDBRANCH   2   8
TORSDOF 3
ENDMDL
MODEL      156
REMARK 921   NORMALIZED FREE ENERGY PREDICTED BY IDOCK:   -3.67 KCAL/MOL
REMARK 922        TOTAL FREE ENERGY PREDICTED BY IDOCK:   -4.79 KCAL/MOL
REMARK 923 INTER-LIGAND FREE ENERGY PREDICTED BY IDOCK:   -4.47 KCAL/MOL
REMARK 924 INTRA-LIGAND FREE ENERGY PREDICTED BY IDOCK:   -0.32 KCAL/MOL
REMARK 927      BINDING AFFINITY PREDICTED BY RF-SCORE:    0.00 PKD
ROOT
HETATM    1 CA   UNL     1      -7.308  14.054  68.586  1.00  0.00    -0.084 Ca 
HETATM    2  C   UNL     2     -10.908  15.133  66.900  1.00  0.00    -0.317 C  
HETATM    3  H   UNL     2     -11.018  16.285  65.280  1.00  0.00     0.000 HD 
HETATM    4  C   UNL     2     -10.043  13.948  67.351  1.00  0.00    -0.244 C  
HETATM    5  O   UNL     2     -10.483  15.551  65.559  1.00  0.00    -0.329 OA 
HETATM    6  O   UNL     2     -10.566  13.013  67.986  1.00  0.00    -0.223 OA 
HETATM    7  O   UNL     2      -8.777  14.034  67.117  1.00  0.00    -0.209 OA 
ENDROOT
BRANCH   2   8
HETATM    8  C   UNL     2     -10.752  16.377  67.788  1.00  0.00    -0.328 C  
HETATM    9  H   UNL     2     -10.691  16.682  69.722  1.00  0.00     0.000 HD 
HETATM   10  O   UNL     2     -10.787  15.913  69.174  1.00  0.00    -0.232 OA 
BRANCH   8  11
HETATM   11  C   UNL     2      -9.483  17.273  67.667  1.00  0.00    -0.246 C  
HETATM   12  H   UNL     2      -7.795  17.394  68.630  1.00  0.00     0.000 HD 
HETATM   13  O   UNL     2      -8.569  16.848  68.704  1.00  0.00    -0.250 OA 
BRANCH  11  14
HETATM   14  C   UNL     2      -9.635  18.799  67.737  1.00  0.00    -0.312 C  
HETATM   15  C   UNL     2     -10.350  19.484  66.575  1.00  0.00    -0.482 C  
HETATM   16  O   UNL     2     -10.192  19.229  69.001  1.00  0.00    -0.555 OA 
HETATM   17  H   UNL     2     -10.286  20.173  69.044  1.00  0.00     0.000 HD 
HETATM   18  O   UNL     2     -10.768  18.848  65.565  1.00  0.00    -0.556 OA 
HETATM   19  O   UNL     2     -10.148  20.734  66.368  1.00  0.00    -0.104 OA 
ENDBRANCH  11  14
ENDBRANCH   8  11
ENDBRANCH   2   8
TORSDOF 3
ENDMDL
MODEL      157
REMARK 921   NORMALIZED FREE ENERGY PREDICTED BY IDOCK:   -3.66 KCAL/MOL
REMARK 922        TOTAL FREE ENERGY PREDICTED BY IDOCK:   -4.77 KCAL/MOL
REMARK 923 INTER-LIGAND FREE ENERGY PREDICTED BY IDOCK:   -4.80 KCAL/MOL
REMARK 924 INTRA-LIGAND FREE ENERGY PREDICTED BY IDOCK:    0.03 KCAL/MOL
REMARK 927      BINDING AFFINITY PREDICTED BY RF-SCORE:    0.00 PKD
ROOT
HETATM    1 CA   UNL     1      -9.717   9.307  66.142  1.00  0.00    -0.152 Ca 
HETATM    2  C   UNL     2      -8.894  13.102  67.513  1.00  0.00    -0.199 C  
HETATM    3  H   UNL     2     -10.215  14.163  68.559  1.00  0.00     0.000 HD 
HETATM    4  C   UNL     2      -8.414  11.645  67.502  1.00  0.00    -0.150 C  
HETATM    5  O   UNL     2      -9.917  13.261  68.553  1.00  0.00    -0.234 OA 
HETATM    6  O   UNL     2      -7.207  11.397  67.319  1.00  0.00    -0.103 OA 
HETATM    7  O   UNL     2      -9.324  10.736  67.599  1.00  0.00    -0.146 OA 
ENDROOT
BRANCH   2   8
HETATM    8  C   UNL     2      -9.569  13.534  66.202  1.00  0.00    -0.204 C  
HETATM    9  H   UNL     2      -9.925  12.653  64.488  1.00  0.00     0.000 HD 
HETATM   10  O   UNL     2      -9.507  12.386  65.299  1.00  0.00    -0.064 OA 
BRANCH   8  11
HETATM   11  C   UNL     2     -11.055  14.002  66.202  1.00  0.00    -0.302 C  
HETATM   12  H   UNL     2     -12.766  13.127  66.514  1.00  0.00     0.000 HD 
HETATM   13  O   UNL     2     -11.860  12.842  66.514  1.00  0.00    -0.386 OA 
BRANCH  11  14
HETATM   14  C   UNL     2     -11.627  14.678  64.948  1.00  0.00    -0.405 C  
HETATM   15  C   UNL     2     -11.115  16.076  64.612  1.00  0.00    -0.332 C  
HETATM   16  O   UNL     2     -11.550  13.816  63.788  1.00  0.00    -0.632 OA 
HETATM   17  H   UNL     2     -11.904  14.235  63.012  1.00  0.00     0.000 HD 
HETATM   18  O   UNL     2     -10.288  16.690  65.345  1.00  0.00    -0.584 OA 
HETATM   19  O   UNL     2     -11.824  16.836  63.860  1.00  0.00    -0.905 OA 
ENDBRANCH  11  14
ENDBRANCH   8  11
ENDBRANCH   2   8
TORSDOF 3
ENDMDL
MODEL      158
REMARK 921   NORMALIZED FREE ENERGY PREDICTED BY IDOCK:   -3.62 KCAL/MOL
REMARK 922        TOTAL FREE ENERGY PREDICTED BY IDOCK:   -4.73 KCAL/MOL
REMARK 923 INTER-LIGAND FREE ENERGY PREDICTED BY IDOCK:   -4.27 KCAL/MOL
REMARK 924 INTRA-LIGAND FREE ENERGY PREDICTED BY IDOCK:   -0.46 KCAL/MOL
REMARK 927      BINDING AFFINITY PREDICTED BY RF-SCORE:    0.00 PKD
ROOT
HETATM    1 CA   UNL     1      -7.966  11.717  65.154  1.00  0.00    -0.359 Ca 
HETATM    2  C   UNL     2     -11.129  12.852  67.535  1.00  0.00    -0.269 C  
HETATM    3  H   UNL     2     -12.963  13.120  66.807  1.00  0.00     0.000 HD 
HETATM    4  C   UNL     2     -10.013  11.817  67.349  1.00  0.00    -0.184 C  
HETATM    5  O   UNL     2     -12.272  12.479  66.692  1.00  0.00    -0.552 OA 
HETATM    6  O   UNL     2      -9.338  11.458  68.333  1.00  0.00    -0.183 OA 
HETATM    7  O   UNL     2      -9.773  11.435  66.141  1.00  0.00    -0.205 OA 
ENDROOT
BRANCH   2   8
HETATM    8  C   UNL     2     -10.732  14.267  67.087  1.00  0.00    -0.282 C  
HETATM    9  H   UNL     2     -11.512  15.590  65.871  1.00  0.00     0.000 HD 
HETATM   10  O   UNL     2     -11.758  14.716  66.147  1.00  0.00    -0.365 OA 
BRANCH   8  11
HETATM   11  C   UNL     2     -10.583  15.409  68.137  1.00  0.00    -0.263 C  
HETATM   12  H   UNL     2     -11.826  16.442  69.223  1.00  0.00     0.000 HD 
HETATM   13  O   UNL     2     -11.917  15.746  68.583  1.00  0.00    -0.344 OA 
BRANCH  11  14
HETATM   14  C   UNL     2      -9.853  16.700  67.741  1.00  0.00    -0.252 C  
HETATM   15  C   UNL     2      -8.530  16.998  68.439  1.00  0.00    -0.239 C  
HETATM   16  O   UNL     2      -9.708  16.819  66.306  1.00  0.00    -0.270 OA 
HETATM   17  H   UNL     2      -9.256  17.618  66.060  1.00  0.00     0.000 HD 
HETATM   18  O   UNL     2      -8.056  16.250  69.343  1.00  0.00    -0.208 OA 
HETATM   19  O   UNL     2      -8.097  18.205  68.470  1.00  0.00    -0.294 OA 
ENDBRANCH  11  14
ENDBRANCH   8  11
ENDBRANCH   2   8
TORSDOF 3
ENDMDL
MODEL      159
REMARK 921   NORMALIZED FREE ENERGY PREDICTED BY IDOCK:   -3.62 KCAL/MOL
REMARK 922        TOTAL FREE ENERGY PREDICTED BY IDOCK:   -4.73 KCAL/MOL
REMARK 923 INTER-LIGAND FREE ENERGY PREDICTED BY IDOCK:   -4.17 KCAL/MOL
REMARK 924 INTRA-LIGAND FREE ENERGY PREDICTED BY IDOCK:   -0.55 KCAL/MOL
REMARK 927      BINDING AFFINITY PREDICTED BY RF-SCORE:    0.00 PKD
ROOT
HETATM    1 CA   UNL     1     -11.727  19.848  66.701  1.00  0.00    -0.318 Ca 
HETATM    2  C   UNL     2      -8.279  18.564  68.551  1.00  0.00    -0.335 C  
HETATM    3  H   UNL     2      -6.889  19.831  69.203  1.00  0.00     0.000 HD 
HETATM    4  C   UNL     2      -9.812  18.501  68.581  1.00  0.00    -0.385 C  
HETATM    5  O   UNL     2      -7.838  19.792  69.221  1.00  0.00    -0.249 OA 
HETATM    6  O   UNL     2     -10.379  17.409  68.771  1.00  0.00    -0.337 OA 
HETATM    7  O   UNL     2     -10.441  19.596  68.313  1.00  0.00    -0.424 OA 
ENDROOT
BRANCH   2   8
HETATM    8  C   UNL     2      -7.697  18.637  67.131  1.00  0.00    -0.229 C  
HETATM    9  H   UNL     2      -6.145  19.523  66.330  1.00  0.00     0.000 HD 
HETATM   10  O   UNL     2      -6.504  19.478  67.208  1.00  0.00    -0.194 OA 
BRANCH   8  11
HETATM   11  C   UNL     2      -7.259  17.336  66.395  1.00  0.00    -0.292 C  
HETATM   12  H   UNL     2      -6.374  16.951  64.703  1.00  0.00     0.000 HD 
HETATM   13  O   UNL     2      -6.642  17.744  65.152  1.00  0.00    -0.123 OA 
BRANCH  11  14
HETATM   14  C   UNL     2      -8.309  16.256  66.094  1.00  0.00    -0.225 C  
HETATM   15  C   UNL     2      -8.469  15.134  67.115  1.00  0.00    -0.212 C  
HETATM   16  O   UNL     2      -9.595  16.831  65.764  1.00  0.00    -0.506 OA 
HETATM   17  H   UNL     2     -10.244  16.163  65.578  1.00  0.00     0.000 HD 
HETATM   18  O   UNL     2      -7.748  15.050  68.152  1.00  0.00    -0.105 OA 
HETATM   19  O   UNL     2      -8.997  14.024  66.746  1.00  0.00    -0.240 OA 
ENDBRANCH  11  14
ENDBRANCH   8  11
ENDBRANCH   2   8
TORSDOF 3
ENDMDL
MODEL      160
REMARK 921   NORMALIZED FREE ENERGY PREDICTED BY IDOCK:   -3.61 KCAL/MOL
REMARK 922        TOTAL FREE ENERGY PREDICTED BY IDOCK:   -4.72 KCAL/MOL
REMARK 923 INTER-LIGAND FREE ENERGY PREDICTED BY IDOCK:   -4.75 KCAL/MOL
REMARK 924 INTRA-LIGAND FREE ENERGY PREDICTED BY IDOCK:    0.02 KCAL/MOL
REMARK 927      BINDING AFFINITY PREDICTED BY RF-SCORE:    0.00 PKD
ROOT
HETATM    1 CA   UNL     1      -6.569  18.544  68.818  1.00  0.00    -0.194 Ca 
HETATM    2  C   UNL     2      -9.933  18.124  66.478  1.00  0.00    -0.374 C  
HETATM    3  H   UNL     2     -11.742  18.658  67.115  1.00  0.00     0.000 HD 
HETATM    4  C   UNL     2      -8.522  18.723  66.543  1.00  0.00    -0.301 C  
HETATM    5  O   UNL     2     -10.868  19.029  67.155  1.00  0.00    -0.462 OA 
HETATM    6  O   UNL     2      -7.766  18.623  65.559  1.00  0.00    -0.457 OA 
HETATM    7  O   UNL     2      -8.161  19.232  67.673  1.00  0.00    -0.281 OA 
ENDROOT
BRANCH   2   8
HETATM    8  C   UNL     2     -10.060  16.778  67.209  1.00  0.00    -0.281 C  
HETATM    9  H   UNL     2     -11.085  16.150  68.756  1.00  0.00     0.000 HD 
HETATM   10  O   UNL     2     -11.006  16.982  68.305  1.00  0.00    -0.365 OA 
BRANCH   8  11
HETATM   11  C   UNL     2     -10.554  15.514  66.444  1.00  0.00    -0.311 C  
HETATM   12  H   UNL     2     -11.989  14.225  66.711  1.00  0.00     0.000 HD 
HETATM   13  O   UNL     2     -11.688  14.996  67.178  1.00  0.00    -0.327 OA 
BRANCH  11  14
HETATM   14  C   UNL     2      -9.570  14.366  66.180  1.00  0.00    -0.283 C  
HETATM   15  C   UNL     2      -9.132  13.530  67.379  1.00  0.00    -0.219 C  
HETATM   16  O   UNL     2     -10.013  13.512  65.099  1.00  0.00    -0.504 OA 
HETATM   17  H   UNL     2      -9.404  12.802  64.936  1.00  0.00     0.000 HD 
HETATM   18  O   UNL     2      -9.517  13.780  68.558  1.00  0.00    -0.210 OA 
HETATM   19  O   UNL     2      -8.040  12.861  67.309  1.00  0.00    -0.176 OA 
ENDBRANCH  11  14
ENDBRANCH   8  11
ENDBRANCH   2   8
TORSDOF 3
ENDMDL
MODEL      161
REMARK 921   NORMALIZED FREE ENERGY PREDICTED BY IDOCK:   -3.59 KCAL/MOL
REMARK 922        TOTAL FREE ENERGY PREDICTED BY IDOCK:   -4.70 KCAL/MOL
REMARK 923 INTER-LIGAND FREE ENERGY PREDICTED BY IDOCK:   -4.35 KCAL/MOL
REMARK 924 INTRA-LIGAND FREE ENERGY PREDICTED BY IDOCK:   -0.35 KCAL/MOL
REMARK 927      BINDING AFFINITY PREDICTED BY RF-SCORE:    0.00 PKD
ROOT
HETATM    1 CA   UNL     1     -10.723  18.529  70.160  1.00  0.00    -0.518 Ca 
HETATM    2  C   UNL     2     -10.045  15.242  67.771  1.00  0.00    -0.230 C  
HETATM    3  H   UNL     2     -11.207  14.804  66.215  1.00  0.00     0.000 HD 
HETATM    4  C   UNL     2      -9.418  16.517  68.352  1.00  0.00    -0.223 C  
HETATM    5  O   UNL     2     -10.819  15.592  66.575  1.00  0.00    -0.311 OA 
HETATM    6  O   UNL     2      -8.264  16.477  68.818  1.00  0.00    -0.225 OA 
HETATM    7  O   UNL     2     -10.175  17.561  68.405  1.00  0.00    -0.327 OA 
ENDROOT
BRANCH   2   8
HETATM    8  C   UNL     2     -11.042  14.563  68.723  1.00  0.00    -0.251 C  
HETATM    9  H   UNL     2     -12.975  14.701  69.009  1.00  0.00     0.000 HD 
HETATM   10  O   UNL     2     -12.359  15.121  68.421  1.00  0.00    -0.046 OA 
BRANCH   8  11
HETATM   11  C   UNL     2     -11.217  13.015  68.701  1.00  0.00    -0.277 C  
HETATM   12  H   UNL     2     -12.079  11.750  67.497  1.00  0.00     0.000 HD 
HETATM   13  O   UNL     2     -11.973  12.694  67.510  1.00  0.00    -0.382 OA 
BRANCH  11  14
HETATM   14  C   UNL     2     -11.868  12.318  69.903  1.00  0.00    -0.311 C  
HETATM   15  C   UNL     2     -11.316  10.953  70.305  1.00  0.00    -0.256 C  
HETATM   16  O   UNL     2     -11.951  13.192  71.054  1.00  0.00    -0.443 OA 
HETATM   17  H   UNL     2     -12.354  12.760  71.798  1.00  0.00     0.000 HD 
HETATM   18  O   UNL     2     -10.389  10.380  69.662  1.00  0.00    -0.230 OA 
HETATM   19  O   UNL     2     -12.050  10.161  70.996  1.00  0.00    -0.317 OA 
ENDBRANCH  11  14
ENDBRANCH   8  11
ENDBRANCH   2   8
TORSDOF 3
ENDMDL
MODEL      162
REMARK 921   NORMALIZED FREE ENERGY PREDICTED BY IDOCK:   -3.58 KCAL/MOL
REMARK 922        TOTAL FREE ENERGY PREDICTED BY IDOCK:   -4.68 KCAL/MOL
REMARK 923 INTER-LIGAND FREE ENERGY PREDICTED BY IDOCK:   -4.23 KCAL/MOL
REMARK 924 INTRA-LIGAND FREE ENERGY PREDICTED BY IDOCK:   -0.45 KCAL/MOL
REMARK 927      BINDING AFFINITY PREDICTED BY RF-SCORE:    0.00 PKD
ROOT
HETATM    1 CA   UNL     1     -13.122   6.734  69.874  1.00  0.00    -0.637 Ca 
HETATM    2  C   UNL     2      -9.669   8.519  68.512  1.00  0.00    -0.163 C  
HETATM    3  H   UNL     2      -8.461   9.549  69.714  1.00  0.00     0.000 HD 
HETATM    4  C   UNL     2     -10.442   7.197  68.600  1.00  0.00    -0.197 C  
HETATM    5  O   UNL     2      -8.940   8.730  69.768  1.00  0.00    -0.140 OA 
HETATM    6  O   UNL     2     -10.513   6.459  67.599  1.00  0.00    -0.169 OA 
HETATM    7  O   UNL     2     -11.063   6.962  69.706  1.00  0.00    -0.263 OA 
ENDROOT
BRANCH   2   8
HETATM    8  C   UNL     2     -10.575   9.748  68.350  1.00  0.00    -0.226 C  
HETATM    9  H   UNL     2     -10.743  11.461  69.285  1.00  0.00     0.000 HD 
HETATM   10  O   UNL     2     -10.182  10.701  69.386  1.00  0.00    -0.220 OA 
BRANCH   8  11
HETATM   11  C   UNL     2     -10.582  10.547  67.012  1.00  0.00    -0.253 C  
HETATM   12  H   UNL     2      -9.229  11.023  65.694  1.00  0.00     0.000 HD 
HETATM   13  O   UNL     2      -9.225  10.537  66.510  1.00  0.00    -0.157 OA 
BRANCH  11  14
HETATM   14  C   UNL     2     -11.101  11.992  67.005  1.00  0.00    -0.298 C  
HETATM   15  C   UNL     2     -11.559  12.564  65.666  1.00  0.00    -0.389 C  
HETATM   16  O   UNL     2     -12.108  12.208  68.021  1.00  0.00    -0.478 OA 
HETATM   17  H   UNL     2     -12.429  13.102  68.017  1.00  0.00     0.000 HD 
HETATM   18  O   UNL     2     -11.481  11.910  64.586  1.00  0.00    -0.323 OA 
HETATM   19  O   UNL     2     -11.601  13.837  65.513  1.00  0.00    -0.314 OA 
ENDBRANCH  11  14
ENDBRANCH   8  11
ENDBRANCH   2   8
TORSDOF 3
ENDMDL
MODEL      163
REMARK 921   NORMALIZED FREE ENERGY PREDICTED BY IDOCK:   -3.57 KCAL/MOL
REMARK 922        TOTAL FREE ENERGY PREDICTED BY IDOCK:   -4.68 KCAL/MOL
REMARK 923 INTER-LIGAND FREE ENERGY PREDICTED BY IDOCK:   -4.31 KCAL/MOL
REMARK 924 INTRA-LIGAND FREE ENERGY PREDICTED BY IDOCK:   -0.37 KCAL/MOL
REMARK 927      BINDING AFFINITY PREDICTED BY RF-SCORE:    0.00 PKD
ROOT
HETATM    1 CA   UNL     1     -11.654   8.513  67.682  1.00  0.00    -0.495 Ca 
HETATM    2  C   UNL     2     -11.233   9.322  71.698  1.00  0.00    -0.379 C  
HETATM    3  H   UNL     2      -9.617   8.777  72.727  1.00  0.00     0.000 HD 
HETATM    4  C   UNL     2     -11.503   9.939  70.320  1.00  0.00    -0.281 C  
HETATM    5  O   UNL     2      -9.785   9.159  71.874  1.00  0.00    -0.282 OA 
HETATM    6  O   UNL     2     -12.404  10.790  70.194  1.00  0.00    -0.315 OA 
HETATM    7  O   UNL     2     -10.823   9.466  69.331  1.00  0.00    -0.228 OA 
ENDROOT
BRANCH   2   8
HETATM    8  C   UNL     2     -11.828   7.915  71.866  1.00  0.00    -0.301 C  
HETATM    9  H   UNL     2     -13.561   7.102  71.450  1.00  0.00     0.000 HD 
HETATM   10  O   UNL     2     -13.193   7.971  71.347  1.00  0.00    -0.300 OA 
BRANCH   8  11
HETATM   11  C   UNL     2     -11.156   6.691  71.175  1.00  0.00    -0.279 C  
HETATM   12  H   UNL     2     -11.563   5.607  69.610  1.00  0.00     0.000 HD 
HETATM   13  O   UNL     2     -11.973   6.353  70.031  1.00  0.00    -0.333 OA 
BRANCH  11  14
HETATM   14  C   UNL     2     -10.899   5.418  71.993  1.00  0.00    -0.202 C  
HETATM   15  C   UNL     2      -9.460   5.139  72.420  1.00  0.00    -0.143 C  
HETATM   16  O   UNL     2     -11.794   5.314  73.125  1.00  0.00    -0.540 OA 
HETATM   17  H   UNL     2     -11.635   4.526  73.631  1.00  0.00     0.000 HD 
HETATM   18  O   UNL     2      -8.496   5.888  72.088  1.00  0.00    -0.124 OA 
HETATM   19  O   UNL     2      -9.120   3.940  72.723  1.00  0.00    -0.103 OA 
ENDBRANCH  11  14
ENDBRANCH   8  11
ENDBRANCH   2   8
TORSDOF 3
ENDMDL
MODEL      164
REMARK 921   NORMALIZED FREE ENERGY PREDICTED BY IDOCK:   -3.55 KCAL/MOL
REMARK 922        TOTAL FREE ENERGY PREDICTED BY IDOCK:   -4.65 KCAL/MOL
REMARK 923 INTER-LIGAND FREE ENERGY PREDICTED BY IDOCK:   -4.29 KCAL/MOL
REMARK 924 INTRA-LIGAND FREE ENERGY PREDICTED BY IDOCK:   -0.36 KCAL/MOL
REMARK 927      BINDING AFFINITY PREDICTED BY RF-SCORE:    0.00 PKD
ROOT
HETATM    1 CA   UNL     1     -14.406   7.717  70.495  1.00  0.00    -0.625 Ca 
HETATM    2  C   UNL     2     -11.690  10.807  70.681  1.00  0.00    -0.342 C  
HETATM    3  H   UNL     2     -12.187  12.685  70.243  1.00  0.00     0.000 HD 
HETATM    4  C   UNL     2     -12.329   9.655  71.467  1.00  0.00    -0.390 C  
HETATM    5  O   UNL     2     -12.582  11.971  70.730  1.00  0.00    -0.303 OA 
HETATM    6  O   UNL     2     -11.611   8.918  72.169  1.00  0.00    -0.363 OA 
HETATM    7  O   UNL     2     -13.590   9.458  71.283  1.00  0.00    -0.355 OA 
ENDROOT
BRANCH   2   8
HETATM    8  C   UNL     2     -11.499  10.497  69.188  1.00  0.00    -0.247 C  
HETATM    9  H   UNL     2     -12.119  11.326  67.525  1.00  0.00     0.000 HD 
HETATM   10  O   UNL     2     -12.237  11.518  68.448  1.00  0.00    -0.540 OA 
BRANCH   8  11
HETATM   11  C   UNL     2     -10.068  10.469  68.570  1.00  0.00    -0.173 C  
HETATM   12  H   UNL     2      -9.325  10.883  66.819  1.00  0.00     0.000 HD 
HETATM   13  O   UNL     2     -10.197  10.899  67.195  1.00  0.00    -0.194 OA 
BRANCH  11  14
HETATM   14  C   UNL     2      -9.263   9.162  68.606  1.00  0.00    -0.136 C  
HETATM   15  C   UNL     2      -8.222   9.013  69.712  1.00  0.00    -0.122 C  
HETATM   16  O   UNL     2     -10.121   7.998  68.555  1.00  0.00    -0.188 OA 
HETATM   17  H   UNL     2      -9.623   7.190  68.577  1.00  0.00     0.000 HD 
HETATM   18  O   UNL     2      -7.983   9.931  70.548  1.00  0.00    -0.246 OA 
HETATM   19  O   UNL     2      -7.264   8.174  69.558  1.00  0.00    -0.069 OA 
ENDBRANCH  11  14
ENDBRANCH   8  11
ENDBRANCH   2   8
TORSDOF 3
ENDMDL
MODEL      165
REMARK 921   NORMALIZED FREE ENERGY PREDICTED BY IDOCK:   -3.55 KCAL/MOL
REMARK 922        TOTAL FREE ENERGY PREDICTED BY IDOCK:   -4.65 KCAL/MOL
REMARK 923 INTER-LIGAND FREE ENERGY PREDICTED BY IDOCK:   -4.32 KCAL/MOL
REMARK 924 INTRA-LIGAND FREE ENERGY PREDICTED BY IDOCK:   -0.33 KCAL/MOL
REMARK 927      BINDING AFFINITY PREDICTED BY RF-SCORE:    0.00 PKD
ROOT
HETATM    1 CA   UNL     1     -14.155   9.064  73.940  1.00  0.00    -0.834 Ca 
HETATM    2  C   UNL     2     -11.533   7.480  71.188  1.00  0.00    -0.273 C  
HETATM    3  H   UNL     2     -11.876   5.746  70.271  1.00  0.00     0.000 HD 
HETATM    4  C   UNL     2     -12.366   8.714  71.554  1.00  0.00    -0.324 C  
HETATM    5  O   UNL     2     -12.392   6.511  70.498  1.00  0.00    -0.259 OA 
HETATM    6  O   UNL     2     -11.861   9.848  71.455  1.00  0.00    -0.381 OA 
HETATM    7  O   UNL     2     -13.542   8.496  72.038  1.00  0.00    -0.360 OA 
ENDROOT
BRANCH   2   8
HETATM    8  C   UNL     2     -10.972   6.736  72.410  1.00  0.00    -0.246 C  
HETATM    9  H   UNL     2     -11.356   5.014  73.262  1.00  0.00     0.000 HD 
HETATM   10  O   UNL     2     -11.703   5.473  72.507  1.00  0.00    -0.272 OA 
BRANCH   8  11
HETATM   11  C   UNL     2      -9.461   6.364  72.477  1.00  0.00    -0.145 C  
HETATM   12  H   UNL     2      -8.455   4.834  73.139  1.00  0.00     0.000 HD 
HETATM   13  O   UNL     2      -9.376   5.061  73.099  1.00  0.00    -0.128 OA 
BRANCH  11  14
HETATM   14  C   UNL     2      -8.486   7.314  73.186  1.00  0.00    -0.123 C  
HETATM   15  C   UNL     2      -7.981   8.517  72.394  1.00  0.00    -0.060 C  
HETATM   16  O   UNL     2      -8.984   7.731  74.479  1.00  0.00    -0.442 OA 
HETATM   17  H   UNL     2      -8.380   8.319  74.918  1.00  0.00     0.000 HD 
HETATM   18  O   UNL     2      -8.303   8.719  71.187  1.00  0.00    -0.146 OA 
HETATM   19  O   UNL     2      -6.892   9.089  72.754  1.00  0.00    -0.323 OA 
ENDBRANCH  11  14
ENDBRANCH   8  11
ENDBRANCH   2   8
TORSDOF 3
ENDMDL
MODEL      166
REMARK 921   NORMALIZED FREE ENERGY PREDICTED BY IDOCK:   -3.55 KCAL/MOL
REMARK 922        TOTAL FREE ENERGY PREDICTED BY IDOCK:   -4.65 KCAL/MOL
REMARK 923 INTER-LIGAND FREE ENERGY PREDICTED BY IDOCK:   -4.23 KCAL/MOL
REMARK 924 INTRA-LIGAND FREE ENERGY PREDICTED BY IDOCK:   -0.41 KCAL/MOL
REMARK 927      BINDING AFFINITY PREDICTED BY RF-SCORE:    0.00 PKD
ROOT
HETATM    1 CA   UNL     1     -10.753  16.360  68.622  1.00  0.00    -0.220 Ca 
HETATM    2  C   UNL     2     -10.943  14.177  65.135  1.00  0.00    -0.356 C  
HETATM    3  H   UNL     2     -12.658  13.855  64.176  1.00  0.00     0.000 HD 
HETATM    4  C   UNL     2     -10.277  15.374  65.826  1.00  0.00    -0.354 C  
HETATM    5  O   UNL     2     -12.245  14.596  64.604  1.00  0.00    -0.453 OA 
HETATM    6  O   UNL     2      -9.048  15.545  65.709  1.00  0.00    -0.286 OA 
HETATM    7  O   UNL     2     -11.031  16.100  66.579  1.00  0.00    -0.205 OA 
ENDROOT
BRANCH   2   8
HETATM    8  C   UNL     2     -11.243  13.009  66.088  1.00  0.00    -0.291 C  
HETATM    9  H   UNL     2     -12.665  11.667  66.206  1.00  0.00     0.000 HD 
HETATM   10  O   UNL     2     -12.480  12.389  65.617  1.00  0.00    -0.640 OA 
BRANCH   8  11
HETATM   11  C   UNL     2     -10.216  11.849  66.254  1.00  0.00    -0.216 C  
HETATM   12  H   UNL     2      -8.521  11.643  67.191  1.00  0.00     0.000 HD 
HETATM   13  O   UNL     2      -9.147  12.351  67.089  1.00  0.00    -0.185 OA 
BRANCH  11  14
HETATM   14  C   UNL     2      -9.605  11.205  65.002  1.00  0.00    -0.239 C  
HETATM   15  C   UNL     2      -8.855   9.889  65.188  1.00  0.00    -0.180 C  
HETATM   16  O   UNL     2     -10.568  11.095  63.927  1.00  0.00    -0.354 OA 
HETATM   17  H   UNL     2     -10.189  10.696  63.152  1.00  0.00     0.000 HD 
HETATM   18  O   UNL     2      -8.693   9.354  66.323  1.00  0.00    -0.134 OA 
HETATM   19  O   UNL     2      -7.997   9.529  64.305  1.00  0.00    -0.122 OA 
ENDBRANCH  11  14
ENDBRANCH   8  11
ENDBRANCH   2   8
TORSDOF 3
ENDMDL
MODEL      167
REMARK 921   NORMALIZED FREE ENERGY PREDICTED BY IDOCK:   -3.55 KCAL/MOL
REMARK 922        TOTAL FREE ENERGY PREDICTED BY IDOCK:   -4.65 KCAL/MOL
REMARK 923 INTER-LIGAND FREE ENERGY PREDICTED BY IDOCK:   -4.29 KCAL/MOL
REMARK 924 INTRA-LIGAND FREE ENERGY PREDICTED BY IDOCK:   -0.35 KCAL/MOL
REMARK 927      BINDING AFFINITY PREDICTED BY RF-SCORE:    0.00 PKD
ROOT
HETATM    1 CA   UNL     1     -13.707  10.441  70.218  1.00  0.00    -0.374 Ca 
HETATM    2  C   UNL     2     -10.948  12.944  68.461  1.00  0.00    -0.259 C  
HETATM    3  H   UNL     2     -11.025  14.922  68.672  1.00  0.00     0.000 HD 
HETATM    4  C   UNL     2     -11.127  11.732  69.384  1.00  0.00    -0.181 C  
HETATM    5  O   UNL     2     -11.135  14.171  69.243  1.00  0.00    -0.253 OA 
HETATM    6  O   UNL     2     -10.387  10.739  69.246  1.00  0.00    -0.213 OA 
HETATM    7  O   UNL     2     -12.115  11.776  70.213  1.00  0.00    -0.338 OA 
ENDROOT
BRANCH   2   8
HETATM    8  C   UNL     2     -11.988  13.012  67.332  1.00  0.00    -0.316 C  
HETATM    9  H   UNL     2     -12.794  14.466  66.296  1.00  0.00     0.000 HD 
HETATM   10  O   UNL     2     -12.151  14.425  66.993  1.00  0.00    -0.418 OA 
BRANCH   8  11
HETATM   11  C   UNL     2     -11.733  12.273  65.984  1.00  0.00    -0.388 C  
HETATM   12  H   UNL     2     -11.596  10.406  65.450  1.00  0.00     0.000 HD 
HETATM   13  O   UNL     2     -11.751  10.856  66.272  1.00  0.00     0.125 OA 
BRANCH  11  14
HETATM   14  C   UNL     2     -10.465  12.598  65.181  1.00  0.00    -0.296 C  
HETATM   15  C   UNL     2     -10.493  12.310  63.683  1.00  0.00    -0.450 C  
HETATM   16  O   UNL     2      -9.999  13.946  65.431  1.00  0.00    -0.452 OA 
HETATM   17  H   UNL     2      -9.215  14.147  64.934  1.00  0.00     0.000 HD 
HETATM   18  O   UNL     2     -11.491  11.783  63.112  1.00  0.00    -0.290 OA 
HETATM   19  O   UNL     2      -9.384  12.163  63.055  1.00  0.00    -0.188 OA 
ENDBRANCH  11  14
ENDBRANCH   8  11
ENDBRANCH   2   8
TORSDOF 3
ENDMDL
MODEL      168
REMARK 921   NORMALIZED FREE ENERGY PREDICTED BY IDOCK:   -3.55 KCAL/MOL
REMARK 922        TOTAL FREE ENERGY PREDICTED BY IDOCK:   -4.64 KCAL/MOL
REMARK 923 INTER-LIGAND FREE ENERGY PREDICTED BY IDOCK:   -4.41 KCAL/MOL
REMARK 924 INTRA-LIGAND FREE ENERGY PREDICTED BY IDOCK:   -0.23 KCAL/MOL
REMARK 927      BINDING AFFINITY PREDICTED BY RF-SCORE:    0.00 PKD
ROOT
HETATM    1 CA   UNL     1      -7.635   9.843  66.953  1.00  0.00    -0.088 Ca 
HETATM    2  C   UNL     2     -11.195  11.905  67.148  1.00  0.00    -0.319 C  
HETATM    3  H   UNL     2     -11.510  13.357  68.474  1.00  0.00     0.000 HD 
HETATM    4  C   UNL     2     -10.041  11.487  66.228  1.00  0.00    -0.226 C  
HETATM    5  O   UNL     2     -10.795  13.098  67.904  1.00  0.00    -0.233 OA 
HETATM    6  O   UNL     2     -10.290  11.069  65.081  1.00  0.00    -0.269 OA 
HETATM    7  O   UNL     2      -8.856  11.511  66.738  1.00  0.00    -0.171 OA 
ENDROOT
BRANCH   2   8
HETATM    8  C   UNL     2     -11.549  10.847  68.204  1.00  0.00    -0.241 C  
HETATM    9  H   UNL     2     -11.082   8.963  68.468  1.00  0.00     0.000 HD 
HETATM   10  O   UNL     2     -10.863   9.617  67.815  1.00  0.00    -0.270 OA 
BRANCH   8  11
HETATM   11  C   UNL     2     -11.190  11.084  69.702  1.00  0.00    -0.278 C  
HETATM   12  H   UNL     2      -9.969  10.246  70.967  1.00  0.00     0.000 HD 
HETATM   13  O   UNL     2     -10.188  10.102  70.054  1.00  0.00    -0.254 OA 
BRANCH  11  14
HETATM   14  C   UNL     2     -12.308  11.048  70.754  1.00  0.00    -0.398 C  
HETATM   15  C   UNL     2     -12.898  12.385  71.192  1.00  0.00    -0.205 C  
HETATM   16  O   UNL     2     -13.359  10.122  70.393  1.00  0.00    -0.573 OA 
HETATM   17  H   UNL     2     -14.051  10.100  71.044  1.00  0.00     0.000 HD 
HETATM   18  O   UNL     2     -12.471  13.493  70.754  1.00  0.00    -0.351 OA 
HETATM   19  O   UNL     2     -13.505  12.460  72.320  1.00  0.00    -0.541 OA 
ENDBRANCH  11  14
ENDBRANCH   8  11
ENDBRANCH   2   8
TORSDOF 3
ENDMDL
MODEL      169
REMARK 921   NORMALIZED FREE ENERGY PREDICTED BY IDOCK:   -3.55 KCAL/MOL
REMARK 922        TOTAL FREE ENERGY PREDICTED BY IDOCK:   -4.64 KCAL/MOL
REMARK 923 INTER-LIGAND FREE ENERGY PREDICTED BY IDOCK:   -4.67 KCAL/MOL
REMARK 924 INTRA-LIGAND FREE ENERGY PREDICTED BY IDOCK:    0.03 KCAL/MOL
REMARK 927      BINDING AFFINITY PREDICTED BY RF-SCORE:    0.00 PKD
ROOT
HETATM    1 CA   UNL     1     -11.775  16.089  63.530  1.00  0.00    -0.811 Ca 
HETATM    2  C   UNL     2      -9.338  15.797  66.837  1.00  0.00    -0.227 C  
HETATM    3  H   UNL     2      -7.356  15.682  66.688  1.00  0.00     0.000 HD 
HETATM    4  C   UNL     2     -10.445  16.622  66.169  1.00  0.00    -0.285 C  
HETATM    5  O   UNL     2      -8.042  16.193  66.275  1.00  0.00    -0.292 OA 
HETATM    6  O   UNL     2     -11.404  17.030  66.852  1.00  0.00     0.323 OA 
HETATM    7  O   UNL     2     -10.362  16.775  64.891  1.00  0.00    -0.522 OA 
ENDROOT
BRANCH   2   8
HETATM    8  C   UNL     2      -9.457  14.288  66.575  1.00  0.00    -0.287 C  
HETATM    9  H   UNL     2      -9.552  12.701  67.719  1.00  0.00     0.000 HD 
HETATM   10  O   UNL     2      -9.479  13.633  67.882  1.00  0.00    -0.198 OA 
BRANCH   8  11
HETATM   11  C   UNL     2     -10.678  13.722  65.790  1.00  0.00    -0.281 C  
HETATM   12  H   UNL     2     -12.023  12.359  66.147  1.00  0.00     0.000 HD 
HETATM   13  O   UNL     2     -11.278  12.704  66.625  1.00  0.00    -0.273 OA 
BRANCH  11  14
HETATM   14  C   UNL     2     -10.463  13.145  64.384  1.00  0.00    -0.407 C  
HETATM   15  C   UNL     2      -9.976  11.702  64.287  1.00  0.00    -0.267 C  
HETATM   16  O   UNL     2     -11.616  13.351  63.534  1.00  0.00    -0.658 OA 
HETATM   17  H   UNL     2     -11.482  12.994  62.664  1.00  0.00     0.000 HD 
HETATM   18  O   UNL     2      -9.711  11.005  65.308  1.00  0.00    -0.212 OA 
HETATM   19  O   UNL     2      -9.394  11.311  63.212  1.00  0.00    -0.275 OA 
ENDBRANCH  11  14
ENDBRANCH   8  11
ENDBRANCH   2   8
TORSDOF 3
ENDMDL
MODEL      170
REMARK 921   NORMALIZED FREE ENERGY PREDICTED BY IDOCK:   -3.54 KCAL/MOL
REMARK 922        TOTAL FREE ENERGY PREDICTED BY IDOCK:   -4.63 KCAL/MOL
REMARK 923 INTER-LIGAND FREE ENERGY PREDICTED BY IDOCK:   -4.38 KCAL/MOL
REMARK 924 INTRA-LIGAND FREE ENERGY PREDICTED BY IDOCK:   -0.25 KCAL/MOL
REMARK 927      BINDING AFFINITY PREDICTED BY RF-SCORE:    0.00 PKD
ROOT
HETATM    1 CA   UNL     1      -9.126  14.987  64.960  1.00  0.00    -0.339 Ca 
HETATM    2  C   UNL     2     -11.780  11.840  65.051  1.00  0.00    -0.105 C  
HETATM    3  H   UNL     2     -13.649  12.046  65.707  1.00  0.00     0.000 HD 
HETATM    4  C   UNL     2     -10.832  12.650  64.158  1.00  0.00    -0.396 C  
HETATM    5  O   UNL     2     -13.062  12.548  65.154  1.00  0.00    -0.659 OA 
HETATM    6  O   UNL     2     -10.081  12.057  63.362  1.00  0.00    -0.428 OA 
HETATM    7  O   UNL     2     -10.805  13.926  64.351  1.00  0.00    -0.388 OA 
ENDROOT
BRANCH   2   8
HETATM    8  C   UNL     2     -11.279  11.685  66.495  1.00  0.00    -0.294 C  
HETATM    9  H   UNL     2     -11.934  12.274  68.245  1.00  0.00     0.000 HD 
HETATM   10  O   UNL     2     -12.245  12.370  67.353  1.00  0.00    -0.459 OA 
BRANCH   8  11
HETATM   11  C   UNL     2     -11.086  10.267  67.112  1.00  0.00    -0.091 C  
HETATM   12  H   UNL     2     -10.835   9.580  68.916  1.00  0.00     0.000 HD 
HETATM   13  O   UNL     2     -10.952  10.445  68.541  1.00  0.00    -0.223 OA 
BRANCH  11  14
HETATM   14  C   UNL     2      -9.934   9.384  66.613  1.00  0.00    -0.258 C  
HETATM   15  C   UNL     2     -10.171   7.877  66.581  1.00  0.00    -0.233 C  
HETATM   16  O   UNL     2      -9.413   9.844  65.343  1.00  0.00    -0.216 OA 
HETATM   17  H   UNL     2      -8.700   9.297  65.034  1.00  0.00     0.000 HD 
HETATM   18  O   UNL     2     -11.247   7.350  66.986  1.00  0.00    -0.145 OA 
HETATM   19  O   UNL     2      -9.161   7.086  66.581  1.00  0.00    -0.148 OA 
ENDBRANCH  11  14
ENDBRANCH   8  11
ENDBRANCH   2   8
TORSDOF 3
ENDMDL
MODEL      171
REMARK 921   NORMALIZED FREE ENERGY PREDICTED BY IDOCK:   -3.51 KCAL/MOL
REMARK 922        TOTAL FREE ENERGY PREDICTED BY IDOCK:   -4.60 KCAL/MOL
REMARK 923 INTER-LIGAND FREE ENERGY PREDICTED BY IDOCK:   -4.02 KCAL/MOL
REMARK 924 INTRA-LIGAND FREE ENERGY PREDICTED BY IDOCK:   -0.57 KCAL/MOL
REMARK 927      BINDING AFFINITY PREDICTED BY RF-SCORE:    0.00 PKD
ROOT
HETATM    1 CA   UNL     1      -9.567  11.866  69.496  1.00  0.00    -0.387 Ca 
HETATM    2  C   UNL     2      -8.307   8.010  70.208  1.00  0.00    -0.125 C  
HETATM    3  H   UNL     2      -8.584   6.543  68.891  1.00  0.00     0.000 HD 
HETATM    4  C   UNL     2      -7.865   9.478  70.143  1.00  0.00    -0.160 C  
HETATM    5  O   UNL     2      -8.310   7.451  68.851  1.00  0.00    -0.127 OA 
HETATM    6  O   UNL     2      -7.123   9.936  71.032  1.00  0.00    -0.339 OA 
HETATM    7  O   UNL     2      -8.372  10.193  69.196  1.00  0.00    -0.130 OA 
ENDROOT
BRANCH   2   8
HETATM    8  C   UNL     2      -9.739   7.824  70.733  1.00  0.00    -0.173 C  
HETATM    9  H   UNL     2     -10.759   6.301  71.424  1.00  0.00     0.000 HD 
HETATM   10  O   UNL     2      -9.874   6.416  71.099  1.00  0.00    -0.178 OA 
BRANCH   8  11
HETATM   11  C   UNL     2     -10.233   8.638  71.967  1.00  0.00    -0.337 C  
HETATM   12  H   UNL     2      -9.874   8.579  73.880  1.00  0.00     0.000 HD 
HETATM   13  O   UNL     2      -9.573   8.083  73.128  1.00  0.00    -0.268 OA 
BRANCH  11  14
HETATM   14  C   UNL     2     -11.739   8.728  72.249  1.00  0.00    -0.328 C  
HETATM   15  C   UNL     2     -12.531   9.788  71.489  1.00  0.00    -0.403 C  
HETATM   16  O   UNL     2     -12.386   7.438  72.144  1.00  0.00    -0.403 OA 
HETATM   17  H   UNL     2     -13.318   7.494  72.319  1.00  0.00     0.000 HD 
HETATM   18  O   UNL     2     -11.984  10.600  70.687  1.00  0.00    -0.307 OA 
HETATM   19  O   UNL     2     -13.655  10.187  71.962  1.00  0.00    -0.358 OA 
ENDBRANCH  11  14
ENDBRANCH   8  11
ENDBRANCH   2   8
TORSDOF 3
ENDMDL
MODEL      172
REMARK 921   NORMALIZED FREE ENERGY PREDICTED BY IDOCK:   -3.50 KCAL/MOL
REMARK 922        TOTAL FREE ENERGY PREDICTED BY IDOCK:   -4.59 KCAL/MOL
REMARK 923 INTER-LIGAND FREE ENERGY PREDICTED BY IDOCK:   -3.94 KCAL/MOL
REMARK 924 INTRA-LIGAND FREE ENERGY PREDICTED BY IDOCK:   -0.66 KCAL/MOL
REMARK 927      BINDING AFFINITY PREDICTED BY RF-SCORE:    0.00 PKD
ROOT
HETATM    1 CA   UNL     1     -14.135   8.889  73.815  1.00  0.00    -0.852 Ca 
HETATM    2  C   UNL     2     -11.270   7.642  71.133  1.00  0.00    -0.261 C  
HETATM    3  H   UNL     2     -11.439   5.939  70.115  1.00  0.00     0.000 HD 
HETATM    4  C   UNL     2     -12.209   8.793  71.514  1.00  0.00    -0.327 C  
HETATM    5  O   UNL     2     -12.020   6.652  70.350  1.00  0.00    -0.396 OA 
HETATM    6  O   UNL     2     -11.783   9.964  71.498  1.00  0.00    -0.380 OA 
HETATM    7  O   UNL     2     -13.388   8.467  71.923  1.00  0.00    -0.340 OA 
ENDROOT
BRANCH   2   8
HETATM    8  C   UNL     2     -10.718   6.876  72.345  1.00  0.00    -0.226 C  
HETATM    9  H   UNL     2     -11.264   5.262  73.312  1.00  0.00     0.000 HD 
HETATM   10  O   UNL     2     -11.606   5.735  72.563  1.00  0.00    -0.303 OA 
BRANCH   8  11
HETATM   11  C   UNL     2      -9.272   6.295  72.314  1.00  0.00    -0.139 C  
HETATM   12  H   UNL     2      -7.588   6.855  71.513  1.00  0.00     0.000 HD 
HETATM   13  O   UNL     2      -8.469   7.209  71.531  1.00  0.00    -0.115 OA 
BRANCH  11  14
HETATM   14  C   UNL     2      -9.050   4.869  71.790  1.00  0.00    -0.139 C  
HETATM   15  C   UNL     2      -8.916   3.757  72.827  1.00  0.00    -0.097 C  
HETATM   16  O   UNL     2     -10.020   4.508  70.779  1.00  0.00    -0.207 OA 
HETATM   17  H   UNL     2      -9.882   3.625  70.456  1.00  0.00     0.000 HD 
HETATM   18  O   UNL     2      -8.939   3.982  74.071  1.00  0.00    -0.092 OA 
HETATM   19  O   UNL     2      -8.332   2.663  72.497  1.00  0.00    -0.061 OA 
ENDBRANCH  11  14
ENDBRANCH   8  11
ENDBRANCH   2   8
TORSDOF 3
ENDMDL
MODEL      173
REMARK 921   NORMALIZED FREE ENERGY PREDICTED BY IDOCK:   -3.48 KCAL/MOL
REMARK 922        TOTAL FREE ENERGY PREDICTED BY IDOCK:   -4.57 KCAL/MOL
REMARK 923 INTER-LIGAND FREE ENERGY PREDICTED BY IDOCK:   -4.19 KCAL/MOL
REMARK 924 INTRA-LIGAND FREE ENERGY PREDICTED BY IDOCK:   -0.38 KCAL/MOL
REMARK 927      BINDING AFFINITY PREDICTED BY RF-SCORE:    0.00 PKD
ROOT
HETATM    1 CA   UNL     1      -9.978   8.391  66.482  1.00  0.00    -0.158 Ca 
HETATM    2  C   UNL     2     -10.601   9.101  70.490  1.00  0.00    -0.235 C  
HETATM    3  H   UNL     2     -12.425   9.312  71.260  1.00  0.00     0.000 HD 
HETATM    4  C   UNL     2      -9.937   8.162  69.475  1.00  0.00    -0.187 C  
HETATM    5  O   UNL     2     -12.013   8.730  70.632  1.00  0.00    -0.199 OA 
HETATM    6  O   UNL     2      -8.774   7.762  69.677  1.00  0.00    -0.134 OA 
HETATM    7  O   UNL     2     -10.605   7.904  68.402  1.00  0.00    -0.188 OA 
ENDROOT
BRANCH   2   8
HETATM    8  C   UNL     2     -10.604  10.573  70.051  1.00  0.00    -0.169 C  
HETATM    9  H   UNL     2      -9.649  11.597  68.680  1.00  0.00     0.000 HD 
HETATM   10  O   UNL     2      -9.646  10.687  68.952  1.00  0.00    -0.181 OA 
BRANCH   8  11
HETATM   11  C   UNL     2     -11.919  11.238  69.545  1.00  0.00    -0.351 C  
HETATM   12  H   UNL     2     -12.806  11.378  67.817  1.00  0.00     0.000 HD 
HETATM   13  O   UNL     2     -12.004  10.973  68.125  1.00  0.00    -0.610 OA 
BRANCH  11  14
HETATM   14  C   UNL     2     -12.139  12.739  69.782  1.00  0.00    -0.237 C  
HETATM   15  C   UNL     2     -12.823  13.148  71.084  1.00  0.00    -0.264 C  
HETATM   16  O   UNL     2     -10.924  13.499  69.585  1.00  0.00    -0.455 OA 
HETATM   17  H   UNL     2     -11.060  14.428  69.732  1.00  0.00     0.000 HD 
HETATM   18  O   UNL     2     -13.240  12.302  71.926  1.00  0.00    -0.473 OA 
HETATM   19  O   UNL     2     -13.395  14.294  71.155  1.00  0.00    -0.346 OA 
ENDBRANCH  11  14
ENDBRANCH   8  11
ENDBRANCH   2   8
TORSDOF 3
ENDMDL
MODEL      174
REMARK 921   NORMALIZED FREE ENERGY PREDICTED BY IDOCK:   -3.48 KCAL/MOL
REMARK 922        TOTAL FREE ENERGY PREDICTED BY IDOCK:   -4.56 KCAL/MOL
REMARK 923 INTER-LIGAND FREE ENERGY PREDICTED BY IDOCK:   -4.64 KCAL/MOL
REMARK 924 INTRA-LIGAND FREE ENERGY PREDICTED BY IDOCK:    0.08 KCAL/MOL
REMARK 927      BINDING AFFINITY PREDICTED BY RF-SCORE:    0.00 PKD
ROOT
HETATM    1 CA   UNL     1     -11.405  17.171  70.721  1.00  0.00    -0.529 Ca 
HETATM    2  C   UNL     2      -9.518  14.907  67.845  1.00  0.00    -0.200 C  
HETATM    3  H   UNL     2      -7.536  14.745  67.753  1.00  0.00     0.000 HD 
HETATM    4  C   UNL     2     -10.573  14.887  68.958  1.00  0.00    -0.245 C  
HETATM    5  O   UNL     2      -8.189  14.732  68.442  1.00  0.00    -0.140 OA 
HETATM    6  O   UNL     2     -11.663  14.316  68.762  1.00  0.00    -0.303 OA 
HETATM    7  O   UNL     2     -10.299  15.555  70.027  1.00  0.00    -0.299 OA 
ENDROOT
BRANCH   2   8
HETATM    8  C   UNL     2      -9.456  16.241  67.084  1.00  0.00    -0.224 C  
HETATM    9  H   UNL     2     -10.038  16.837  65.311  1.00  0.00     0.000 HD 
HETATM   10  O   UNL     2     -10.077  16.012  65.781  1.00  0.00    -0.325 OA 
BRANCH   8  11
HETATM   11  C   UNL     2     -10.143  17.511  67.671  1.00  0.00    -0.328 C  
HETATM   12  H   UNL     2     -10.907  19.131  66.907  1.00  0.00     0.000 HD 
HETATM   13  O   UNL     2     -10.488  18.357  66.549  1.00  0.00    -0.384 OA 
BRANCH  11  14
HETATM   14  C   UNL     2      -9.394  18.352  68.714  1.00  0.00    -0.279 C  
HETATM   15  C   UNL     2      -8.226  19.201  68.220  1.00  0.00    -0.334 C  
HETATM   16  O   UNL     2     -10.299  19.149  69.514  1.00  0.00    -0.453 OA 
HETATM   17  H   UNL     2      -9.836  19.670  70.160  1.00  0.00     0.000 HD 
HETATM   18  O   UNL     2      -7.844  19.194  67.014  1.00  0.00    -0.243 OA 
HETATM   19  O   UNL     2      -7.331  19.580  69.057  1.00  0.00    -0.356 OA 
ENDBRANCH  11  14
ENDBRANCH   8  11
ENDBRANCH   2   8
TORSDOF 3
ENDMDL
MODEL      175
REMARK 921   NORMALIZED FREE ENERGY PREDICTED BY IDOCK:   -3.47 KCAL/MOL
REMARK 922        TOTAL FREE ENERGY PREDICTED BY IDOCK:   -4.55 KCAL/MOL
REMARK 923 INTER-LIGAND FREE ENERGY PREDICTED BY IDOCK:   -4.70 KCAL/MOL
REMARK 924 INTRA-LIGAND FREE ENERGY PREDICTED BY IDOCK:    0.15 KCAL/MOL
REMARK 927      BINDING AFFINITY PREDICTED BY RF-SCORE:    0.00 PKD
ROOT
HETATM    1 CA   UNL     1     -13.493  10.325  69.792  1.00  0.00    -0.575 Ca 
HETATM    2  C   UNL     2     -12.050   7.120  71.939  1.00  0.00    -0.321 C  
HETATM    3  H   UNL     2     -10.624   7.319  73.314  1.00  0.00     0.000 HD 
HETATM    4  C   UNL     2     -13.315   7.894  71.546  1.00  0.00    -0.303 C  
HETATM    5  O   UNL     2     -11.407   7.798  73.070  1.00  0.00    -0.399 OA 
HETATM    6  O   UNL     2     -14.338   7.269  71.207  1.00  0.00    -0.402 OA 
HETATM    7  O   UNL     2     -13.217   9.180  71.504  1.00  0.00    -0.341 OA 
ENDROOT
BRANCH   2   8
HETATM    8  C   UNL     2     -10.990   7.077  70.828  1.00  0.00    -0.255 C  
HETATM    9  H   UNL     2     -10.829   6.126  69.123  1.00  0.00     0.000 HD 
HETATM   10  O   UNL     2     -11.484   6.152  69.809  1.00  0.00    -0.433 OA 
BRANCH   8  11
HETATM   11  C   UNL     2     -10.594   8.379  70.070  1.00  0.00    -0.235 C  
HETATM   12  H   UNL     2      -9.991   8.783  68.263  1.00  0.00     0.000 HD 
HETATM   13  O   UNL     2     -10.232   7.989  68.725  1.00  0.00    -0.198 OA 
BRANCH  11  14
HETATM   14  C   UNL     2      -9.482   9.270  70.643  1.00  0.00    -0.272 C  
HETATM   15  C   UNL     2      -8.179   8.587  71.050  1.00  0.00    -0.140 C  
HETATM   16  O   UNL     2      -9.214  10.411  69.794  1.00  0.00    -0.393 OA 
HETATM   17  H   UNL     2      -8.526  10.962  70.149  1.00  0.00     0.000 HD 
HETATM   18  O   UNL     2      -8.015   7.335  70.970  1.00  0.00    -0.096 OA 
HETATM   19  O   UNL     2      -7.404   9.171  71.889  1.00  0.00    -0.334 OA 
ENDBRANCH  11  14
ENDBRANCH   8  11
ENDBRANCH   2   8
TORSDOF 3
ENDMDL
MODEL      176
REMARK 921   NORMALIZED FREE ENERGY PREDICTED BY IDOCK:   -3.46 KCAL/MOL
REMARK 922        TOTAL FREE ENERGY PREDICTED BY IDOCK:   -4.54 KCAL/MOL
REMARK 923 INTER-LIGAND FREE ENERGY PREDICTED BY IDOCK:   -4.25 KCAL/MOL
REMARK 924 INTRA-LIGAND FREE ENERGY PREDICTED BY IDOCK:   -0.29 KCAL/MOL
REMARK 927      BINDING AFFINITY PREDICTED BY RF-SCORE:    0.00 PKD
ROOT
HETATM    1 CA   UNL     1      -8.143  10.595  70.537  1.00  0.00    -0.325 Ca 
HETATM    2  C   UNL     2     -10.772  11.379  67.465  1.00  0.00    -0.222 C  
HETATM    3  H   UNL     2     -10.163  11.646  65.589  1.00  0.00     0.000 HD 
HETATM    4  C   UNL     2     -10.434  10.409  68.604  1.00  0.00    -0.196 C  
HETATM    5  O   UNL     2      -9.954  11.045  66.294  1.00  0.00    -0.210 OA 
HETATM    6  O   UNL     2     -11.344   9.983  69.340  1.00  0.00    -0.215 OA 
HETATM    7  O   UNL     2      -9.184  10.153  68.794  1.00  0.00    -0.149 OA 
ENDROOT
BRANCH   2   8
HETATM    8  C   UNL     2     -10.446  12.844  67.793  1.00  0.00    -0.220 C  
HETATM    9  H   UNL     2      -9.752  14.358  66.760  1.00  0.00     0.000 HD 
HETATM   10  O   UNL     2      -9.954  13.452  66.558  1.00  0.00    -0.270 OA 
BRANCH   8  11
HETATM   11  C   UNL     2     -11.559  13.796  68.326  1.00  0.00    -0.338 C  
HETATM   12  H   UNL     2     -12.858  14.985  67.496  1.00  0.00     0.000 HD 
HETATM   13  O   UNL     2     -12.179  14.405  67.171  1.00  0.00    -0.390 OA 
BRANCH  11  14
HETATM   14  C   UNL     2     -11.185  14.898  69.326  1.00  0.00    -0.284 C  
HETATM   15  C   UNL     2     -11.956  14.940  70.643  1.00  0.00    -0.305 C  
HETATM   16  O   UNL     2      -9.759  14.944  69.570  1.00  0.00    -0.384 OA 
HETATM   17  H   UNL     2      -9.528  15.627  70.190  1.00  0.00     0.000 HD 
HETATM   18  O   UNL     2     -12.898  14.137  70.903  1.00  0.00    -0.329 OA 
HETATM   19  O   UNL     2     -11.992  16.034  71.311  1.00  0.00    -0.415 OA 
ENDBRANCH  11  14
ENDBRANCH   8  11
ENDBRANCH   2   8
TORSDOF 3
ENDMDL
MODEL      177
REMARK 921   NORMALIZED FREE ENERGY PREDICTED BY IDOCK:   -3.46 KCAL/MOL
REMARK 922        TOTAL FREE ENERGY PREDICTED BY IDOCK:   -4.54 KCAL/MOL
REMARK 923 INTER-LIGAND FREE ENERGY PREDICTED BY IDOCK:   -4.18 KCAL/MOL
REMARK 924 INTRA-LIGAND FREE ENERGY PREDICTED BY IDOCK:   -0.36 KCAL/MOL
REMARK 927      BINDING AFFINITY PREDICTED BY RF-SCORE:    0.00 PKD
ROOT
HETATM    1 CA   UNL     1     -13.295   6.726  69.898  1.00  0.00    -0.562 Ca 
HETATM    2  C   UNL     2      -9.558   7.720  68.479  1.00  0.00    -0.149 C  
HETATM    3  H   UNL     2      -7.922   7.574  69.604  1.00  0.00     0.000 HD 
HETATM    4  C   UNL     2     -10.802   6.857  68.229  1.00  0.00    -0.184 C  
HETATM    5  O   UNL     2      -8.692   7.040  69.449  1.00  0.00    -0.133 OA 
HETATM    6  O   UNL     2     -11.270   6.772  67.077  1.00  0.00    -0.393 OA 
HETATM    7  O   UNL     2     -11.356   6.327  69.266  1.00  0.00    -0.410 OA 
ENDROOT
BRANCH   2   8
HETATM    8  C   UNL     2      -9.878   9.088  69.099  1.00  0.00    -0.175 C  
HETATM    9  H   UNL     2     -10.655  10.754  68.421  1.00  0.00     0.000 HD 
HETATM   10  O   UNL     2     -10.458   9.908  68.037  1.00  0.00    -0.194 OA 
BRANCH   8  11
HETATM   11  C   UNL     2     -10.858   9.193  70.306  1.00  0.00    -0.246 C  
HETATM   12  H   UNL     2     -12.085  10.556  70.960  1.00  0.00     0.000 HD 
HETATM   13  O   UNL     2     -11.487  10.493  70.224  1.00  0.00    -0.287 OA 
BRANCH  11  14
HETATM   14  C   UNL     2     -10.318   8.993  71.729  1.00  0.00    -0.337 C  
HETATM   15  C   UNL     2     -10.796   7.761  72.492  1.00  0.00    -0.328 C  
HETATM   16  O   UNL     2      -8.875   9.093  71.777  1.00  0.00    -0.341 OA 
HETATM   17  H   UNL     2      -8.541   8.969  72.658  1.00  0.00     0.000 HD 
HETATM   18  O   UNL     2     -11.636   6.948  72.010  1.00  0.00    -0.265 OA 
HETATM   19  O   UNL     2     -10.726   7.753  73.773  1.00  0.00    -0.178 OA 
ENDBRANCH  11  14
ENDBRANCH   8  11
ENDBRANCH   2   8
TORSDOF 3
ENDMDL
MODEL      178
REMARK 921   NORMALIZED FREE ENERGY PREDICTED BY IDOCK:   -3.45 KCAL/MOL
REMARK 922        TOTAL FREE ENERGY PREDICTED BY IDOCK:   -4.53 KCAL/MOL
REMARK 923 INTER-LIGAND FREE ENERGY PREDICTED BY IDOCK:   -4.09 KCAL/MOL
REMARK 924 INTRA-LIGAND FREE ENERGY PREDICTED BY IDOCK:   -0.44 KCAL/MOL
REMARK 927      BINDING AFFINITY PREDICTED BY RF-SCORE:    0.00 PKD
ROOT
HETATM    1 CA   UNL     1     -13.065   6.687  69.913  1.00  0.00    -0.600 Ca 
HETATM    2  C   UNL     2      -9.262   7.026  68.368  1.00  0.00    -0.129 C  
HETATM    3  H   UNL     2      -7.678   6.217  69.261  1.00  0.00     0.000 HD 
HETATM    4  C   UNL     2     -10.700   6.584  68.066  1.00  0.00    -0.283 C  
HETATM    5  O   UNL     2      -8.568   5.943  69.074  1.00  0.00    -0.114 OA 
HETATM    6  O   UNL     2     -11.222   6.893  66.978  1.00  0.00    -0.369 OA 
HETATM    7  O   UNL     2     -11.331   5.979  69.014  1.00  0.00    -0.340 OA 
ENDROOT
BRANCH   2   8
HETATM    8  C   UNL     2      -9.180   8.245  69.300  1.00  0.00    -0.151 C  
HETATM    9  H   UNL     2      -7.825   8.939  70.532  1.00  0.00     0.000 HD 
HETATM   10  O   UNL     2      -7.875   8.186  69.956  1.00  0.00    -0.098 OA 
BRANCH   8  11
HETATM   11  C   UNL     2      -9.305   9.686  68.721  1.00  0.00    -0.148 C  
HETATM   12  H   UNL     2      -8.413  11.382  69.063  1.00  0.00     0.000 HD 
HETATM   13  O   UNL     2      -8.337  10.504  69.417  1.00  0.00    -0.157 OA 
BRANCH  11  14
HETATM   14  C   UNL     2     -10.668  10.392  68.758  1.00  0.00    -0.225 C  
HETATM   15  C   UNL     2     -11.267  10.828  67.424  1.00  0.00    -0.241 C  
HETATM   16  O   UNL     2     -11.639   9.650  69.534  1.00  0.00    -0.444 OA 
HETATM   17  H   UNL     2     -12.482  10.087  69.557  1.00  0.00     0.000 HD 
HETATM   18  O   UNL     2     -10.664  10.665  66.324  1.00  0.00    -0.197 OA 
HETATM   19  O   UNL     2     -12.153  11.755  67.411  1.00  0.00    -0.595 OA 
ENDBRANCH  11  14
ENDBRANCH   8  11
ENDBRANCH   2   8
TORSDOF 3
ENDMDL
MODEL      179
REMARK 921   NORMALIZED FREE ENERGY PREDICTED BY IDOCK:   -3.44 KCAL/MOL
REMARK 922        TOTAL FREE ENERGY PREDICTED BY IDOCK:   -4.52 KCAL/MOL
REMARK 923 INTER-LIGAND FREE ENERGY PREDICTED BY IDOCK:   -4.18 KCAL/MOL
REMARK 924 INTRA-LIGAND FREE ENERGY PREDICTED BY IDOCK:   -0.34 KCAL/MOL
REMARK 927      BINDING AFFINITY PREDICTED BY RF-SCORE:    0.00 PKD
ROOT
HETATM    1 CA   UNL     1      -7.900  14.437  70.019  1.00  0.00    -0.330 Ca 
HETATM    2  C   UNL     2     -11.202  13.865  67.625  1.00  0.00    -0.295 C  
HETATM    3  H   UNL     2     -12.990  13.408  68.374  1.00  0.00     0.000 HD 
HETATM    4  C   UNL     2     -10.074  14.840  67.988  1.00  0.00    -0.218 C  
HETATM    5  O   UNL     2     -12.291  14.012  68.598  1.00  0.00    -0.271 OA 
HETATM    6  O   UNL     2      -9.459  15.433  67.081  1.00  0.00    -0.207 OA 
HETATM    7  O   UNL     2      -9.762  14.925  69.236  1.00  0.00    -0.203 OA 
ENDROOT
BRANCH   2   8
HETATM    8  C   UNL     2     -10.782  12.389  67.697  1.00  0.00    -0.221 C  
HETATM    9  H   UNL     2     -11.748  10.697  67.902  1.00  0.00     0.000 HD 
HETATM   10  O   UNL     2     -12.008  11.609  67.858  1.00  0.00    -0.599 OA 
BRANCH   8  11
HETATM   11  C   UNL     2     -10.010  11.735  66.512  1.00  0.00    -0.204 C  
HETATM   12  H   UNL     2      -8.133  11.594  66.012  1.00  0.00     0.000 HD 
HETATM   13  O   UNL     2      -8.604  11.993  66.734  1.00  0.00    -0.189 OA 
BRANCH  11  14
HETATM   14  C   UNL     2     -10.365  12.138  65.074  1.00  0.00    -0.287 C  
HETATM   15  C   UNL     2      -9.745  11.320  63.945  1.00  0.00    -0.277 C  
HETATM   16  O   UNL     2     -11.794  12.262  64.886  1.00  0.00    -0.367 OA 
HETATM   17  H   UNL     2     -12.014  12.511  63.995  1.00  0.00     0.000 HD 
HETATM   18  O   UNL     2      -8.933  10.373  64.159  1.00  0.00    -0.196 OA 
HETATM   19  O   UNL     2      -9.659  11.836  62.773  1.00  0.00    -0.318 OA 
ENDBRANCH  11  14
ENDBRANCH   8  11
ENDBRANCH   2   8
TORSDOF 3
ENDMDL
MODEL      180
REMARK 921   NORMALIZED FREE ENERGY PREDICTED BY IDOCK:   -3.44 KCAL/MOL
REMARK 922        TOTAL FREE ENERGY PREDICTED BY IDOCK:   -4.52 KCAL/MOL
REMARK 923 INTER-LIGAND FREE ENERGY PREDICTED BY IDOCK:   -4.11 KCAL/MOL
REMARK 924 INTRA-LIGAND FREE ENERGY PREDICTED BY IDOCK:   -0.41 KCAL/MOL
REMARK 927      BINDING AFFINITY PREDICTED BY RF-SCORE:    0.00 PKD
ROOT
HETATM    1 CA   UNL     1      -7.866  12.475  66.330  1.00  0.00    -0.349 Ca 
HETATM    2  C   UNL     2     -11.609  14.004  65.546  1.00  0.00    -0.332 C  
HETATM    3  H   UNL     2     -12.321  15.605  66.492  1.00  0.00     0.000 HD 
HETATM    4  C   UNL     2     -10.267  13.602  64.921  1.00  0.00    -0.339 C  
HETATM    5  O   UNL     2     -11.490  15.356  66.105  1.00  0.00    -0.178 OA 
HETATM    6  O   UNL     2     -10.253  12.958  63.855  1.00  0.00    -0.383 OA 
HETATM    7  O   UNL     2      -9.206  13.885  65.598  1.00  0.00     0.119 OA 
ENDROOT
BRANCH   2   8
HETATM    8  C   UNL     2     -12.030  13.108  66.721  1.00  0.00    -0.373 C  
HETATM    9  H   UNL     2     -12.343  11.186  66.936  1.00  0.00     0.000 HD 
HETATM   10  O   UNL     2     -12.083  11.740  66.210  1.00  0.00    -0.446 OA 
BRANCH   8  11
HETATM   11  C   UNL     2     -11.161  13.050  68.014  1.00  0.00    -0.278 C  
HETATM   12  H   UNL     2     -10.799  11.692  69.361  1.00  0.00     0.000 HD 
HETATM   13  O   UNL     2     -11.329  11.727  68.573  1.00  0.00    -0.225 OA 
BRANCH  11  14
HETATM   14  C   UNL     2     -11.395  14.088  69.120  1.00  0.00    -0.281 C  
HETATM   15  C   UNL     2     -10.286  15.106  69.370  1.00  0.00    -0.240 C  
HETATM   16  O   UNL     2     -12.672  14.754  68.973  1.00  0.00    -0.458 OA 
HETATM   17  H   UNL     2     -12.816  15.397  69.658  1.00  0.00     0.000 HD 
HETATM   18  O   UNL     2      -9.191  15.086  68.736  1.00  0.00    -0.186 OA 
HETATM   19  O   UNL     2     -10.231  15.704  70.504  1.00  0.00    -0.165 OA 
ENDBRANCH  11  14
ENDBRANCH   8  11
ENDBRANCH   2   8
TORSDOF 3
ENDMDL
MODEL      181
REMARK 921   NORMALIZED FREE ENERGY PREDICTED BY IDOCK:   -3.44 KCAL/MOL
REMARK 922        TOTAL FREE ENERGY PREDICTED BY IDOCK:   -4.51 KCAL/MOL
REMARK 923 INTER-LIGAND FREE ENERGY PREDICTED BY IDOCK:   -4.68 KCAL/MOL
REMARK 924 INTRA-LIGAND FREE ENERGY PREDICTED BY IDOCK:    0.17 KCAL/MOL
REMARK 927      BINDING AFFINITY PREDICTED BY RF-SCORE:    0.00 PKD
ROOT
HETATM    1 CA   UNL     1     -12.197   7.034  67.970  1.00  0.00    -0.210 Ca 
HETATM    2  C   UNL     2      -9.273   9.691  66.806  1.00  0.00    -0.149 C  
HETATM    3  H   UNL     2      -8.759  11.259  67.921  1.00  0.00     0.000 HD 
HETATM    4  C   UNL     2      -9.587   8.212  67.066  1.00  0.00    -0.196 C  
HETATM    5  O   UNL     2      -8.953  10.343  68.081  1.00  0.00    -0.128 OA 
HETATM    6  O   UNL     2      -9.191   7.349  66.259  1.00  0.00    -0.169 OA 
HETATM    7  O   UNL     2     -10.335   7.950  68.084  1.00  0.00    -0.199 OA 
ENDROOT
BRANCH   2   8
HETATM    8  C   UNL     2     -10.461  10.476  66.229  1.00  0.00    -0.183 C  
HETATM    9  H   UNL     2     -11.842  11.634  66.996  1.00  0.00     0.000 HD 
HETATM   10  O   UNL     2     -11.108  11.149  67.354  1.00  0.00    -0.273 OA 
BRANCH   8  11
HETATM   11  C   UNL     2     -10.224  11.575  65.149  1.00  0.00    -0.274 C  
HETATM   12  H   UNL     2     -10.308  13.520  65.133  1.00  0.00     0.000 HD 
HETATM   13  O   UNL     2     -10.452  12.850  65.791  1.00  0.00    -0.269 OA 
BRANCH  11  14
HETATM   14  C   UNL     2     -11.031  11.527  63.844  1.00  0.00    -0.401 C  
HETATM   15  C   UNL     2     -12.415  12.170  63.853  1.00  0.00    -0.478 C  
HETATM   16  O   UNL     2     -10.259  11.999  62.715  1.00  0.00    -0.454 OA 
HETATM   17  H   UNL     2     -10.758  11.970  61.907  1.00  0.00     0.000 HD 
HETATM   18  O   UNL     2     -12.916  12.687  64.893  1.00  0.00    -0.830 OA 
HETATM   19  O   UNL     2     -13.275  11.813  62.972  1.00  0.00    -0.474 OA 
ENDBRANCH  11  14
ENDBRANCH   8  11
ENDBRANCH   2   8
TORSDOF 3
ENDMDL
MODEL      182
REMARK 921   NORMALIZED FREE ENERGY PREDICTED BY IDOCK:   -3.43 KCAL/MOL
REMARK 922        TOTAL FREE ENERGY PREDICTED BY IDOCK:   -4.51 KCAL/MOL
REMARK 923 INTER-LIGAND FREE ENERGY PREDICTED BY IDOCK:   -3.64 KCAL/MOL
REMARK 924 INTRA-LIGAND FREE ENERGY PREDICTED BY IDOCK:   -0.87 KCAL/MOL
REMARK 927      BINDING AFFINITY PREDICTED BY RF-SCORE:    0.00 PKD
ROOT
HETATM    1 CA   UNL     1      -6.863  15.913  66.440  1.00  0.00    -0.174 Ca 
HETATM    2  C   UNL     2      -9.034  12.790  68.020  1.00  0.00    -0.196 C  
HETATM    3  H   UNL     2      -9.375  11.113  67.003  1.00  0.00     0.000 HD 
HETATM    4  C   UNL     2      -7.832  13.716  68.243  1.00  0.00    -0.141 C  
HETATM    5  O   UNL     2      -8.631  11.686  67.142  1.00  0.00    -0.151 OA 
HETATM    6  O   UNL     2      -7.643  14.218  69.368  1.00  0.00    -0.052 OA 
HETATM    7  O   UNL     2      -7.118  13.998  67.206  1.00  0.00    -0.135 OA 
ENDROOT
BRANCH   2   8
HETATM    8  C   UNL     2     -10.210  13.475  67.306  1.00  0.00    -0.242 C  
HETATM    9  H   UNL     2     -12.152  13.219  67.308  1.00  0.00     0.000 HD 
HETATM   10  O   UNL     2     -11.426  12.796  67.749  1.00  0.00    -0.283 OA 
BRANCH   8  11
HETATM   11  C   UNL     2     -10.471  14.998  67.510  1.00  0.00    -0.256 C  
HETATM   12  H   UNL     2     -12.040  16.076  67.920  1.00  0.00     0.000 HD 
HETATM   13  O   UNL     2     -11.881  15.148  67.796  1.00  0.00    -0.310 OA 
BRANCH  11  14
HETATM   14  C   UNL     2     -10.085  15.979  66.393  1.00  0.00    -0.300 C  
HETATM   15  C   UNL     2      -9.681  17.390  66.811  1.00  0.00    -0.290 C  
HETATM   16  O   UNL     2      -9.103  15.414  65.494  1.00  0.00    -0.313 OA 
HETATM   17  H   UNL     2      -8.864  16.021  64.803  1.00  0.00     0.000 HD 
HETATM   18  O   UNL     2      -9.698  17.772  68.017  1.00  0.00    -0.282 OA 
HETATM   19  O   UNL     2      -9.755  18.341  65.953  1.00  0.00    -0.516 OA 
ENDBRANCH  11  14
ENDBRANCH   8  11
ENDBRANCH   2   8
TORSDOF 3
ENDMDL
MODEL      183
REMARK 921   NORMALIZED FREE ENERGY PREDICTED BY IDOCK:   -3.43 KCAL/MOL
REMARK 922        TOTAL FREE ENERGY PREDICTED BY IDOCK:   -4.51 KCAL/MOL
REMARK 923 INTER-LIGAND FREE ENERGY PREDICTED BY IDOCK:   -3.74 KCAL/MOL
REMARK 924 INTRA-LIGAND FREE ENERGY PREDICTED BY IDOCK:   -0.78 KCAL/MOL
REMARK 927      BINDING AFFINITY PREDICTED BY RF-SCORE:    0.00 PKD
ROOT
HETATM    1 CA   UNL     1     -12.841   6.558  70.425  1.00  0.00    -0.367 Ca 
HETATM    2  C   UNL     2      -9.215   7.074  68.540  1.00  0.00    -0.137 C  
HETATM    3  H   UNL     2      -7.519   6.345  69.285  1.00  0.00     0.000 HD 
HETATM    4  C   UNL     2     -10.652   6.562  68.370  1.00  0.00    -0.246 C  
HETATM    5  O   UNL     2      -8.408   6.028  69.179  1.00  0.00    -0.112 OA 
HETATM    6  O   UNL     2     -11.285   6.842  67.334  1.00  0.00    -0.313 OA 
HETATM    7  O   UNL     2     -11.163   5.930  69.372  1.00  0.00    -0.375 OA 
ENDROOT
BRANCH   2   8
HETATM    8  C   UNL     2      -9.108   8.298  69.462  1.00  0.00    -0.154 C  
HETATM    9  H   UNL     2      -7.926   9.859  69.536  1.00  0.00     0.000 HD 
HETATM   10  O   UNL     2      -7.992   9.102  68.966  1.00  0.00    -0.097 OA 
BRANCH   8  11
HETATM   11  C   UNL     2     -10.311   9.277  69.610  1.00  0.00    -0.217 C  
HETATM   12  H   UNL     2     -10.548  11.198  69.396  1.00  0.00     0.000 HD 
HETATM   13  O   UNL     2      -9.815  10.601  69.306  1.00  0.00    -0.218 OA 
BRANCH  11  14
HETATM   14  C   UNL     2     -11.075   9.329  70.941  1.00  0.00    -0.306 C  
HETATM   15  C   UNL     2     -12.429  10.032  70.943  1.00  0.00    -0.337 C  
HETATM   16  O   UNL     2     -11.181   8.022  71.553  1.00  0.00    -0.245 OA 
HETATM   17  H   UNL     2     -11.654   8.054  72.377  1.00  0.00     0.000 HD 
HETATM   18  O   UNL     2     -12.903  10.597  69.914  1.00  0.00    -0.181 OA 
HETATM   19  O   UNL     2     -12.905  10.467  72.052  1.00  0.00    -0.431 OA 
ENDBRANCH  11  14
ENDBRANCH   8  11
ENDBRANCH   2   8
TORSDOF 3
ENDMDL
MODEL      184
REMARK 921   NORMALIZED FREE ENERGY PREDICTED BY IDOCK:   -3.41 KCAL/MOL
REMARK 922        TOTAL FREE ENERGY PREDICTED BY IDOCK:   -4.48 KCAL/MOL
REMARK 923 INTER-LIGAND FREE ENERGY PREDICTED BY IDOCK:   -4.44 KCAL/MOL
REMARK 924 INTRA-LIGAND FREE ENERGY PREDICTED BY IDOCK:   -0.04 KCAL/MOL
REMARK 927      BINDING AFFINITY PREDICTED BY RF-SCORE:    0.00 PKD
ROOT
HETATM    1 CA   UNL     1     -12.190   6.586  67.511  1.00  0.00    -0.612 Ca 
HETATM    2  C   UNL     2      -9.182   8.985  68.981  1.00  0.00    -0.140 C  
HETATM    3  H   UNL     2      -7.378   8.271  69.428  1.00  0.00     0.000 HD 
HETATM    4  C   UNL     2     -10.186   8.799  67.836  1.00  0.00    -0.219 C  
HETATM    5  O   UNL     2      -8.000   8.157  68.719  1.00  0.00    -0.111 OA 
HETATM    6  O   UNL     2     -10.831   9.780  67.418  1.00  0.00    -0.274 OA 
HETATM    7  O   UNL     2     -10.374   7.592  67.422  1.00  0.00    -0.221 OA 
ENDROOT
BRANCH   2   8
HETATM    8  C   UNL     2      -9.717   8.521  70.345  1.00  0.00    -0.175 C  
HETATM    9  H   UNL     2      -9.444   9.104  72.195  1.00  0.00     0.000 HD 
HETATM   10  O   UNL     2      -9.113   9.391  71.353  1.00  0.00    -0.285 OA 
BRANCH   8  11
HETATM   11  C   UNL     2     -11.249   8.530  70.632  1.00  0.00    -0.252 C  
HETATM   12  H   UNL     2     -12.417   9.558  71.802  1.00  0.00     0.000 HD 
HETATM   13  O   UNL     2     -11.483   9.552  71.627  1.00  0.00    -0.381 OA 
BRANCH  11  14
HETATM   14  C   UNL     2     -11.933   7.232  71.084  1.00  0.00    -0.328 C  
HETATM   15  C   UNL     2     -11.549   6.680  72.454  1.00  0.00    -0.245 C  
HETATM   16  O   UNL     2     -13.372   7.307  70.951  1.00  0.00    -0.602 OA 
HETATM   17  H   UNL     2     -13.796   6.504  71.231  1.00  0.00     0.000 HD 
HETATM   18  O   UNL     2     -10.674   7.227  73.185  1.00  0.00    -0.301 OA 
HETATM   19  O   UNL     2     -11.750   5.439  72.705  1.00  0.00    -0.295 OA 
ENDBRANCH  11  14
ENDBRANCH   8  11
ENDBRANCH   2   8
TORSDOF 3
ENDMDL
MODEL      185
REMARK 921   NORMALIZED FREE ENERGY PREDICTED BY IDOCK:   -3.39 KCAL/MOL
REMARK 922        TOTAL FREE ENERGY PREDICTED BY IDOCK:   -4.46 KCAL/MOL
REMARK 923 INTER-LIGAND FREE ENERGY PREDICTED BY IDOCK:   -4.79 KCAL/MOL
REMARK 924 INTRA-LIGAND FREE ENERGY PREDICTED BY IDOCK:    0.32 KCAL/MOL
REMARK 927      BINDING AFFINITY PREDICTED BY RF-SCORE:    0.00 PKD
ROOT
HETATM    1 CA   UNL     1     -12.267  11.128  63.214  1.00  0.00    -0.585 Ca 
HETATM    2  C   UNL     2     -11.051  14.283  65.565  1.00  0.00    -0.323 C  
HETATM    3  H   UNL     2      -9.190  14.990  65.514  1.00  0.00     0.000 HD 
HETATM    4  C   UNL     2     -12.082  13.822  64.526  1.00  0.00    -0.428 C  
HETATM    5  O   UNL     2      -9.829  14.705  64.871  1.00  0.00    -0.204 OA 
HETATM    6  O   UNL     2     -13.285  14.102  64.688  1.00  0.00    -0.311 OA 
HETATM    7  O   UNL     2     -11.644  13.078  63.568  1.00  0.00    -0.467 OA 
ENDROOT
BRANCH   2   8
HETATM    8  C   UNL     2     -10.615  13.170  66.529  1.00  0.00    -0.284 C  
HETATM    9  H   UNL     2      -9.178  11.837  66.525  1.00  0.00     0.000 HD 
HETATM   10  O   UNL     2      -9.448  12.525  65.929  1.00  0.00    -0.209 OA 
BRANCH   8  11
HETATM   11  C   UNL     2     -10.208  13.515  67.994  1.00  0.00    -0.243 C  
HETATM   12  H   UNL     2     -11.159  13.625  69.689  1.00  0.00     0.000 HD 
HETATM   13  O   UNL     2     -11.407  13.415  68.797  1.00  0.00    -0.255 OA 
BRANCH  11  14
HETATM   14  C   UNL     2      -9.528  14.860  68.285  1.00  0.00    -0.210 C  
HETATM   15  C   UNL     2     -10.435  16.064  68.524  1.00  0.00    -0.258 C  
HETATM   16  O   UNL     2      -8.541  14.750  69.337  1.00  0.00    -0.378 OA 
HETATM   17  H   UNL     2      -8.121  15.583  69.517  1.00  0.00     0.000 HD 
HETATM   18  O   UNL     2     -11.695  15.991  68.447  1.00  0.00    -0.346 OA 
HETATM   19  O   UNL     2      -9.962  17.245  68.358  1.00  0.00    -0.285 OA 
ENDBRANCH  11  14
ENDBRANCH   8  11
ENDBRANCH   2   8
TORSDOF 3
ENDMDL
MODEL      186
REMARK 921   NORMALIZED FREE ENERGY PREDICTED BY IDOCK:   -3.39 KCAL/MOL
REMARK 922        TOTAL FREE ENERGY PREDICTED BY IDOCK:   -4.46 KCAL/MOL
REMARK 923 INTER-LIGAND FREE ENERGY PREDICTED BY IDOCK:   -4.12 KCAL/MOL
REMARK 924 INTRA-LIGAND FREE ENERGY PREDICTED BY IDOCK:   -0.35 KCAL/MOL
REMARK 927      BINDING AFFINITY PREDICTED BY RF-SCORE:    0.00 PKD
ROOT
HETATM    1 CA   UNL     1      -8.531   6.503  73.235  1.00  0.00    -0.115 Ca 
HETATM    2  C   UNL     2     -12.018   6.569  71.043  1.00  0.00    -0.297 C  
HETATM    3  H   UNL     2     -12.025   6.821  69.068  1.00  0.00     0.000 HD 
HETATM    4  C   UNL     2     -11.186   5.758  72.045  1.00  0.00    -0.247 C  
HETATM    5  O   UNL     2     -11.510   6.319  69.689  1.00  0.00    -0.432 OA 
HETATM    6  O   UNL     2     -11.750   5.217  73.016  1.00  0.00    -0.294 OA 
HETATM    7  O   UNL     2      -9.908   5.756  71.869  1.00  0.00    -0.161 OA 
ENDROOT
BRANCH   2   8
HETATM    8  C   UNL     2     -11.913   8.088  71.248  1.00  0.00    -0.296 C  
HETATM    9  H   UNL     2     -11.737   9.251  72.814  1.00  0.00     0.000 HD 
HETATM   10  O   UNL     2     -11.802   8.312  72.688  1.00  0.00    -0.401 OA 
BRANCH   8  11
HETATM   11  C   UNL     2     -10.745   8.888  70.597  1.00  0.00    -0.234 C  
HETATM   12  H   UNL     2      -9.055   9.611  71.240  1.00  0.00     0.000 HD 
HETATM   13  O   UNL     2      -9.767   9.124  71.636  1.00  0.00    -0.292 OA 
BRANCH  11  14
HETATM   14  C   UNL     2     -11.050  10.219  69.894  1.00  0.00    -0.304 C  
HETATM   15  C   UNL     2     -10.300  10.512  68.598  1.00  0.00    -0.185 C  
HETATM   16  O   UNL     2     -12.471  10.422  69.717  1.00  0.00    -0.535 OA 
HETATM   17  H   UNL     2     -12.660  11.245  69.282  1.00  0.00     0.000 HD 
HETATM   18  O   UNL     2      -9.427   9.728  68.125  1.00  0.00    -0.135 OA 
HETATM   19  O   UNL     2     -10.191  11.727  68.201  1.00  0.00    -0.190 OA 
ENDBRANCH  11  14
ENDBRANCH   8  11
ENDBRANCH   2   8
TORSDOF 3
ENDMDL
MODEL      187
REMARK 921   NORMALIZED FREE ENERGY PREDICTED BY IDOCK:   -3.38 KCAL/MOL
REMARK 922        TOTAL FREE ENERGY PREDICTED BY IDOCK:   -4.45 KCAL/MOL
REMARK 923 INTER-LIGAND FREE ENERGY PREDICTED BY IDOCK:   -4.16 KCAL/MOL
REMARK 924 INTRA-LIGAND FREE ENERGY PREDICTED BY IDOCK:   -0.29 KCAL/MOL
REMARK 927      BINDING AFFINITY PREDICTED BY RF-SCORE:    0.00 PKD
ROOT
HETATM    1 CA   UNL     1     -13.163  14.626  66.628  1.00  0.00    -0.582 Ca 
HETATM    2  C   UNL     2      -9.532  16.456  65.975  1.00  0.00    -0.310 C  
HETATM    3  H   UNL     2      -7.803  15.567  66.406  1.00  0.00     0.000 HD 
HETATM    4  C   UNL     2     -10.854  16.032  65.322  1.00  0.00    -0.362 C  
HETATM    5  O   UNL     2      -8.621  15.305  66.001  1.00  0.00    -0.069 OA 
HETATM    6  O   UNL     2     -11.443  16.821  64.559  1.00  0.00    -0.866 OA 
HETATM    7  O   UNL     2     -11.334  14.889  65.678  1.00  0.00    -0.343 OA 
ENDROOT
BRANCH   2   8
HETATM    8  C   UNL     2      -9.686  16.893  67.439  1.00  0.00    -0.247 C  
HETATM    9  H   UNL     2     -11.158  17.625  68.504  1.00  0.00     0.000 HD 
HETATM   10  O   UNL     2     -11.063  17.355  67.599  1.00  0.00    -0.214 OA 
BRANCH   8  11
HETATM   11  C   UNL     2      -9.438  15.874  68.592  1.00  0.00    -0.214 C  
HETATM   12  H   UNL     2     -10.386  15.397  70.225  1.00  0.00     0.000 HD 
HETATM   13  O   UNL     2     -10.536  16.018  69.523  1.00  0.00    -0.244 OA 
BRANCH  11  14
HETATM   14  C   UNL     2      -8.118  15.933  69.373  1.00  0.00    -0.178 C  
HETATM   15  C   UNL     2      -7.334  14.632  69.522  1.00  0.00    -0.107 C  
HETATM   16  O   UNL     2      -7.256  16.993  68.896  1.00  0.00    -0.219 OA 
HETATM   17  H   UNL     2      -6.438  17.030  69.379  1.00  0.00     0.000 HD 
HETATM   18  O   UNL     2      -7.757  13.529  69.068  1.00  0.00    -0.027 OA 
HETATM   19  O   UNL     2      -6.483  14.521  70.474  1.00  0.00    -0.174 OA 
ENDBRANCH  11  14
ENDBRANCH   8  11
ENDBRANCH   2   8
TORSDOF 3
ENDMDL
MODEL      188
REMARK 921   NORMALIZED FREE ENERGY PREDICTED BY IDOCK:   -3.38 KCAL/MOL
REMARK 922        TOTAL FREE ENERGY PREDICTED BY IDOCK:   -4.45 KCAL/MOL
REMARK 923 INTER-LIGAND FREE ENERGY PREDICTED BY IDOCK:   -4.31 KCAL/MOL
REMARK 924 INTRA-LIGAND FREE ENERGY PREDICTED BY IDOCK:   -0.13 KCAL/MOL
REMARK 927      BINDING AFFINITY PREDICTED BY RF-SCORE:    0.00 PKD
ROOT
HETATM    1 CA   UNL     1     -11.603   6.617  67.961  1.00  0.00    -0.379 Ca 
HETATM    2  C   UNL     2     -10.298   8.915  71.119  1.00  0.00    -0.268 C  
HETATM    3  H   UNL     2     -11.355  10.447  71.826  1.00  0.00     0.000 HD 
HETATM    4  C   UNL     2     -10.606   7.485  70.657  1.00  0.00    -0.224 C  
HETATM    5  O   UNL     2     -11.546   9.562  71.540  1.00  0.00    -0.357 OA 
HETATM    6  O   UNL     2      -9.815   6.565  70.937  1.00  0.00    -0.182 OA 
HETATM    7  O   UNL     2     -11.648   7.331  69.912  1.00  0.00    -0.127 OA 
ENDROOT
BRANCH   2   8
HETATM    8  C   UNL     2      -9.726   9.808  70.007  1.00  0.00    -0.250 C  
HETATM    9  H   UNL     2      -8.433   9.538  68.561  1.00  0.00     0.000 HD 
HETATM   10  O   UNL     2      -8.786   8.986  69.248  1.00  0.00    -0.132 OA 
BRANCH   8  11
HETATM   11  C   UNL     2     -10.676  10.456  68.955  1.00  0.00    -0.228 C  
HETATM   12  H   UNL     2     -10.675  10.600  67.013  1.00  0.00     0.000 HD 
HETATM   13  O   UNL     2     -10.096  10.205  67.655  1.00  0.00    -0.173 OA 
BRANCH  11  14
HETATM   14  C   UNL     2     -11.011  11.950  69.068  1.00  0.00    -0.219 C  
HETATM   15  C   UNL     2     -11.794  12.580  67.920  1.00  0.00    -0.323 C  
HETATM   16  O   UNL     2     -11.624  12.270  70.339  1.00  0.00    -0.528 OA 
HETATM   17  H   UNL     2     -11.831  13.195  70.409  1.00  0.00     0.000 HD 
HETATM   18  O   UNL     2     -12.126  11.929  66.887  1.00  0.00    -0.599 OA 
HETATM   19  O   UNL     2     -11.742  13.850  67.752  1.00  0.00    -0.325 OA 
ENDBRANCH  11  14
ENDBRANCH   8  11
ENDBRANCH   2   8
TORSDOF 3
ENDMDL
MODEL      189
REMARK 921   NORMALIZED FREE ENERGY PREDICTED BY IDOCK:   -3.37 KCAL/MOL
REMARK 922        TOTAL FREE ENERGY PREDICTED BY IDOCK:   -4.44 KCAL/MOL
REMARK 923 INTER-LIGAND FREE ENERGY PREDICTED BY IDOCK:   -3.77 KCAL/MOL
REMARK 924 INTRA-LIGAND FREE ENERGY PREDICTED BY IDOCK:   -0.67 KCAL/MOL
REMARK 927      BINDING AFFINITY PREDICTED BY RF-SCORE:    0.00 PKD
ROOT
HETATM    1 CA   UNL     1     -10.574   8.483  70.505  1.00  0.00    -0.191 Ca 
HETATM    2  C   UNL     2      -9.114  11.178  67.754  1.00  0.00    -0.149 C  
HETATM    3  H   UNL     2      -7.646  12.450  68.191  1.00  0.00     0.000 HD 
HETATM    4  C   UNL     2      -9.400   9.695  68.021  1.00  0.00    -0.132 C  
HETATM    5  O   UNL     2      -7.823  11.532  68.355  1.00  0.00    -0.122 OA 
HETATM    6  O   UNL     2      -9.931   9.002  67.132  1.00  0.00    -0.188 OA 
HETATM    7  O   UNL     2      -9.148   9.262  69.210  1.00  0.00    -0.143 OA 
ENDROOT
BRANCH   2   8
HETATM    8  C   UNL     2     -10.140  12.124  68.396  1.00  0.00    -0.209 C  
HETATM    9  H   UNL     2     -11.057  13.754  67.812  1.00  0.00     0.000 HD 
HETATM   10  O   UNL     2     -10.422  13.169  67.414  1.00  0.00    -0.240 OA 
BRANCH   8  11
HETATM   11  C   UNL     2     -11.527  11.582  68.857  1.00  0.00    -0.289 C  
HETATM   12  H   UNL     2     -13.228  11.244  67.972  1.00  0.00     0.000 HD 
HETATM   13  O   UNL     2     -12.383  11.575  67.691  1.00  0.00    -0.273 OA 
BRANCH  11  14
HETATM   14  C   UNL     2     -12.261  12.285  70.007  1.00  0.00    -0.196 C  
HETATM   15  C   UNL     2     -12.459  11.495  71.297  1.00  0.00    -0.293 C  
HETATM   16  O   UNL     2     -11.699  13.588  70.289  1.00  0.00    -0.471 OA 
HETATM   17  H   UNL     2     -12.154  14.023  71.001  1.00  0.00     0.000 HD 
HETATM   18  O   UNL     2     -12.081  10.294  71.423  1.00  0.00    -0.372 OA 
HETATM   19  O   UNL     2     -13.389  11.845  72.108  1.00  0.00    -0.503 OA 
ENDBRANCH  11  14
ENDBRANCH   8  11
ENDBRANCH   2   8
TORSDOF 3
ENDMDL
MODEL      190
REMARK 921   NORMALIZED FREE ENERGY PREDICTED BY IDOCK:   -3.34 KCAL/MOL
REMARK 922        TOTAL FREE ENERGY PREDICTED BY IDOCK:   -4.40 KCAL/MOL
REMARK 923 INTER-LIGAND FREE ENERGY PREDICTED BY IDOCK:   -3.91 KCAL/MOL
REMARK 924 INTRA-LIGAND FREE ENERGY PREDICTED BY IDOCK:   -0.49 KCAL/MOL
REMARK 927      BINDING AFFINITY PREDICTED BY RF-SCORE:    0.00 PKD
ROOT
HETATM    1 CA   UNL     1      -7.256  13.176  67.093  1.00  0.00    -0.122 Ca 
HETATM    2  C   UNL     2     -10.726  11.021  66.564  1.00  0.00    -0.241 C  
HETATM    3  H   UNL     2     -11.137  10.072  64.862  1.00  0.00     0.000 HD 
HETATM    4  C   UNL     2      -9.488  11.199  67.452  1.00  0.00    -0.164 C  
HETATM    5  O   UNL     2     -10.371  10.183  65.413  1.00  0.00    -0.257 OA 
HETATM    6  O   UNL     2      -9.614  11.191  68.691  1.00  0.00    -0.190 OA 
HETATM    7  O   UNL     2      -8.373  11.441  66.849  1.00  0.00    -0.147 OA 
ENDROOT
BRANCH   2   8
HETATM    8  C   UNL     2     -11.247  12.338  65.970  1.00  0.00    -0.332 C  
HETATM    9  H   UNL     2     -12.708  12.809  64.752  1.00  0.00     0.000 HD 
HETATM   10  O   UNL     2     -12.385  11.995  65.119  1.00  0.00    -0.423 OA 
BRANCH   8  11
HETATM   11  C   UNL     2     -11.741  13.480  66.908  1.00  0.00    -0.384 C  
HETATM   12  H   UNL     2     -13.010  14.947  66.729  1.00  0.00     0.000 HD 
HETATM   13  O   UNL     2     -12.708  14.251  66.158  1.00  0.00    -0.401 OA 
BRANCH  11  14
HETATM   14  C   UNL     2     -10.713  14.441  67.522  1.00  0.00    -0.271 C  
HETATM   15  C   UNL     2     -10.753  14.632  69.036  1.00  0.00    -0.249 C  
HETATM   16  O   UNL     2      -9.367  14.144  67.082  1.00  0.00    -0.218 OA 
HETATM   17  H   UNL     2      -8.731  14.739  67.463  1.00  0.00     0.000 HD 
HETATM   18  O   UNL     2     -11.615  14.068  69.769  1.00  0.00    -0.272 OA 
HETATM   19  O   UNL     2     -10.233  15.688  69.546  1.00  0.00    -0.239 OA 
ENDBRANCH  11  14
ENDBRANCH   8  11
ENDBRANCH   2   8
TORSDOF 3
ENDMDL
MODEL      191
REMARK 921   NORMALIZED FREE ENERGY PREDICTED BY IDOCK:   -3.34 KCAL/MOL
REMARK 922        TOTAL FREE ENERGY PREDICTED BY IDOCK:   -4.40 KCAL/MOL
REMARK 923 INTER-LIGAND FREE ENERGY PREDICTED BY IDOCK:   -3.99 KCAL/MOL
REMARK 924 INTRA-LIGAND FREE ENERGY PREDICTED BY IDOCK:   -0.42 KCAL/MOL
REMARK 927      BINDING AFFINITY PREDICTED BY RF-SCORE:    0.00 PKD
ROOT
HETATM    1 CA   UNL     1     -10.040   3.252  69.454  1.00  0.00    -0.172 Ca 
HETATM    2  C   UNL     2      -9.787   7.290  70.222  1.00  0.00    -0.179 C  
HETATM    3  H   UNL     2      -8.041   8.217  70.464  1.00  0.00     0.000 HD 
HETATM    4  C   UNL     2     -10.347   6.233  69.262  1.00  0.00    -0.218 C  
HETATM    5  O   UNL     2      -8.389   7.562  69.870  1.00  0.00    -0.129 OA 
HETATM    6  O   UNL     2     -11.518   6.335  68.851  1.00  0.00    -0.331 OA 
HETATM    7  O   UNL     2      -9.583   5.227  68.999  1.00  0.00    -0.126 OA 
ENDROOT
BRANCH   2   8
HETATM    8  C   UNL     2      -9.760   6.832  71.689  1.00  0.00    -0.162 C  
HETATM    9  H   UNL     2      -8.344   6.563  73.015  1.00  0.00     0.000 HD 
HETATM   10  O   UNL     2      -8.360   6.846  72.109  1.00  0.00    -0.106 OA 
BRANCH   8  11
HETATM   11  C   UNL     2     -10.542   7.631  72.774  1.00  0.00    -0.325 C  
HETATM   12  H   UNL     2     -10.671   7.539  74.715  1.00  0.00     0.000 HD 
HETATM   13  O   UNL     2     -10.195   7.052  74.053  1.00  0.00    -0.349 OA 
BRANCH  11  14
HETATM   14  C   UNL     2     -12.071   7.731  72.675  1.00  0.00    -0.141 C  
HETATM   15  C   UNL     2     -12.648   8.959  71.977  1.00  0.00    -0.394 C  
HETATM   16  O   UNL     2     -12.656   6.520  72.140  1.00  0.00    -0.525 OA 
HETATM   17  H   UNL     2     -13.602   6.582  72.078  1.00  0.00     0.000 HD 
HETATM   18  O   UNL     2     -11.919   9.892  71.531  1.00  0.00    -0.379 OA 
HETATM   19  O   UNL     2     -13.859   9.304  72.220  1.00  0.00    -0.453 OA 
ENDBRANCH  11  14
ENDBRANCH   8  11
ENDBRANCH   2   8
TORSDOF 3
ENDMDL
MODEL      192
REMARK 921   NORMALIZED FREE ENERGY PREDICTED BY IDOCK:   -3.33 KCAL/MOL
REMARK 922        TOTAL FREE ENERGY PREDICTED BY IDOCK:   -4.39 KCAL/MOL
REMARK 923 INTER-LIGAND FREE ENERGY PREDICTED BY IDOCK:   -4.11 KCAL/MOL
REMARK 924 INTRA-LIGAND FREE ENERGY PREDICTED BY IDOCK:   -0.28 KCAL/MOL
REMARK 927      BINDING AFFINITY PREDICTED BY RF-SCORE:    0.00 PKD
ROOT
HETATM    1 CA   UNL     1      -6.665  17.846  70.180  1.00  0.00    -0.198 Ca 
HETATM    2  C   UNL     2      -7.764  17.052  66.291  1.00  0.00    -0.311 C  
HETATM    3  H   UNL     2      -8.976  18.253  65.264  1.00  0.00     0.000 HD 
HETATM    4  C   UNL     2      -6.574  17.241  67.240  1.00  0.00    -0.159 C  
HETATM    5  O   UNL     2      -8.239  18.370  65.852  1.00  0.00    -0.505 OA 
HETATM    6  O   UNL     2      -5.608  16.457  67.178  1.00  0.00    -0.224 OA 
HETATM    7  O   UNL     2      -6.683  18.171  68.127  1.00  0.00    -0.198 OA 
ENDROOT
BRANCH   2   8
HETATM    8  C   UNL     2      -8.975  16.378  66.954  1.00  0.00    -0.216 C  
HETATM    9  H   UNL     2     -10.667  17.025  67.699  1.00  0.00     0.000 HD 
HETATM   10  O   UNL     2      -9.919  17.442  67.289  1.00  0.00    -0.284 OA 
BRANCH   8  11
HETATM   11  C   UNL     2      -9.796  15.303  66.180  1.00  0.00    -0.307 C  
HETATM   12  H   UNL     2     -11.691  14.888  66.009  1.00  0.00     0.000 HD 
HETATM   13  O   UNL     2     -11.190  15.543  66.481  1.00  0.00    -0.243 OA 
BRANCH  11  14
HETATM   14  C   UNL     2      -9.489  13.817  66.412  1.00  0.00    -0.243 C  
HETATM   15  C   UNL     2      -9.945  12.833  65.339  1.00  0.00    -0.199 C  
HETATM   16  O   UNL     2      -8.097  13.599  66.743  1.00  0.00    -0.402 OA 
HETATM   17  H   UNL     2      -7.907  12.679  66.887  1.00  0.00     0.000 HD 
HETATM   18  O   UNL     2     -10.591  13.198  64.314  1.00  0.00    -0.403 OA 
HETATM   19  O   UNL     2     -10.096  11.597  65.648  1.00  0.00    -0.222 OA 
ENDBRANCH  11  14
ENDBRANCH   8  11
ENDBRANCH   2   8
TORSDOF 3
ENDMDL
MODEL      193
REMARK 921   NORMALIZED FREE ENERGY PREDICTED BY IDOCK:   -3.32 KCAL/MOL
REMARK 922        TOTAL FREE ENERGY PREDICTED BY IDOCK:   -4.37 KCAL/MOL
REMARK 923 INTER-LIGAND FREE ENERGY PREDICTED BY IDOCK:   -3.79 KCAL/MOL
REMARK 924 INTRA-LIGAND FREE ENERGY PREDICTED BY IDOCK:   -0.58 KCAL/MOL
REMARK 927      BINDING AFFINITY PREDICTED BY RF-SCORE:    0.00 PKD
ROOT
HETATM    1 CA   UNL     1      -7.802   9.694  66.462  1.00  0.00    -0.097 Ca 
HETATM    2  C   UNL     2     -10.717  12.574  66.043  1.00  0.00    -0.262 C  
HETATM    3  H   UNL     2     -10.356  14.504  66.371  1.00  0.00     0.000 HD 
HETATM    4  C   UNL     2      -9.986  11.422  65.340  1.00  0.00    -0.245 C  
HETATM    5  O   UNL     2      -9.905  13.791  65.935  1.00  0.00    -0.298 OA 
HETATM    6  O   UNL     2     -10.639  10.596  64.675  1.00  0.00    -0.296 OA 
HETATM    7  O   UNL     2      -8.718  11.324  65.555  1.00  0.00    -0.148 OA 
ENDROOT
BRANCH   2   8
HETATM    8  C   UNL     2     -10.915  12.343  67.549  1.00  0.00    -0.252 C  
HETATM    9  H   UNL     2     -12.026  13.179  68.930  1.00  0.00     0.000 HD 
HETATM   10  O   UNL     2     -11.903  13.322  67.999  1.00  0.00    -0.340 OA 
BRANCH   8  11
HETATM   11  C   UNL     2     -11.411  10.961  68.073  1.00  0.00    -0.312 C  
HETATM   12  H   UNL     2     -12.886  10.372  69.199  1.00  0.00     0.000 HD 
HETATM   13  O   UNL     2     -12.584  11.214  68.880  1.00  0.00    -0.358 OA 
BRANCH  11  14
HETATM   14  C   UNL     2     -10.445  10.073  68.869  1.00  0.00    -0.210 C  
HETATM   15  C   UNL     2     -10.049   8.737  68.246  1.00  0.00    -0.188 C  
HETATM   16  O   UNL     2      -9.270  10.801  69.297  1.00  0.00    -0.341 OA 
HETATM   17  H   UNL     2      -8.672  10.251  69.790  1.00  0.00     0.000 HD 
HETATM   18  O   UNL     2     -10.520   8.337  67.141  1.00  0.00    -0.293 OA 
HETATM   19  O   UNL     2      -9.608   7.801  69.003  1.00  0.00    -0.154 OA 
ENDBRANCH  11  14
ENDBRANCH   8  11
ENDBRANCH   2   8
TORSDOF 3
ENDMDL
MODEL      194
REMARK 921   NORMALIZED FREE ENERGY PREDICTED BY IDOCK:   -3.30 KCAL/MOL
REMARK 922        TOTAL FREE ENERGY PREDICTED BY IDOCK:   -4.36 KCAL/MOL
REMARK 923 INTER-LIGAND FREE ENERGY PREDICTED BY IDOCK:   -3.70 KCAL/MOL
REMARK 924 INTRA-LIGAND FREE ENERGY PREDICTED BY IDOCK:   -0.65 KCAL/MOL
REMARK 927      BINDING AFFINITY PREDICTED BY RF-SCORE:    0.00 PKD
ROOT
HETATM    1 CA   UNL     1     -10.154  13.787  69.411  1.00  0.00    -0.318 Ca 
HETATM    2  C   UNL     2     -11.183  12.969  65.507  1.00  0.00    -0.288 C  
HETATM    3  H   UNL     2     -12.922  12.128  65.022  1.00  0.00     0.000 HD 
HETATM    4  C   UNL     2     -10.725  14.067  66.476  1.00  0.00    -0.281 C  
HETATM    5  O   UNL     2     -12.637  12.808  65.621  1.00  0.00    -0.596 OA 
HETATM    6  O   UNL     2      -9.832  14.862  66.125  1.00  0.00    -0.272 OA 
HETATM    7  O   UNL     2     -11.240  14.047  67.658  1.00  0.00    -0.277 OA 
ENDROOT
BRANCH   2   8
HETATM    8  C   UNL     2     -10.590  11.587  65.824  1.00  0.00    -0.263 C  
HETATM    9  H   UNL     2     -10.124  10.016  64.750  1.00  0.00     0.000 HD 
HETATM   10  O   UNL     2     -10.491  10.870  64.554  1.00  0.00    -0.346 OA 
BRANCH   8  11
HETATM   11  C   UNL     2      -9.188  11.470  66.494  1.00  0.00    -0.194 C  
HETATM   12  H   UNL     2      -7.594  10.402  66.159  1.00  0.00     0.000 HD 
HETATM   13  O   UNL     2      -8.449  10.474  65.751  1.00  0.00    -0.162 OA 
BRANCH  11  14
HETATM   14  C   UNL     2      -9.099  11.137  67.990  1.00  0.00    -0.153 C  
HETATM   15  C   UNL     2      -7.772  11.415  68.691  1.00  0.00    -0.137 C  
HETATM   16  O   UNL     2     -10.198  11.711  68.737  1.00  0.00    -0.229 OA 
HETATM   17  H   UNL     2     -10.143  11.505  69.663  1.00  0.00     0.000 HD 
HETATM   18  O   UNL     2      -6.760  11.859  68.076  1.00  0.00    -0.063 OA 
HETATM   19  O   UNL     2      -7.501  10.798  69.782  1.00  0.00    -0.125 OA 
ENDBRANCH  11  14
ENDBRANCH   8  11
ENDBRANCH   2   8
TORSDOF 3
ENDMDL
MODEL      195
REMARK 921   NORMALIZED FREE ENERGY PREDICTED BY IDOCK:   -3.30 KCAL/MOL
REMARK 922        TOTAL FREE ENERGY PREDICTED BY IDOCK:   -4.35 KCAL/MOL
REMARK 923 INTER-LIGAND FREE ENERGY PREDICTED BY IDOCK:   -3.88 KCAL/MOL
REMARK 924 INTRA-LIGAND FREE ENERGY PREDICTED BY IDOCK:   -0.47 KCAL/MOL
REMARK 927      BINDING AFFINITY PREDICTED BY RF-SCORE:    0.00 PKD
ROOT
HETATM    1 CA   UNL     1      -9.685   6.840  67.585  1.00  0.00    -0.126 Ca 
HETATM    2  C   UNL     2      -8.043  10.293  66.055  1.00  0.00    -0.139 C  
HETATM    3  H   UNL     2      -7.226  11.687  67.220  1.00  0.00     0.000 HD 
HETATM    4  C   UNL     2      -8.017   8.761  65.990  1.00  0.00    -0.107 C  
HETATM    5  O   UNL     2      -7.210  10.738  67.179  1.00  0.00    -0.092 OA 
HETATM    6  O   UNL     2      -7.978   8.194  64.881  1.00  0.00    -0.129 OA 
HETATM    7  O   UNL     2      -8.128   8.132  67.111  1.00  0.00    -0.113 OA 
ENDROOT
BRANCH   2   8
HETATM    8  C   UNL     2      -9.441  10.871  66.326  1.00  0.00    -0.194 C  
HETATM    9  H   UNL     2     -10.432  11.363  67.942  1.00  0.00     0.000 HD 
HETATM   10  O   UNL     2      -9.568  11.007  67.775  1.00  0.00    -0.165 OA 
BRANCH   8  11
HETATM   11  C   UNL     2      -9.848  12.251  65.727  1.00  0.00    -0.244 C  
HETATM   12  H   UNL     2      -9.558  14.106  66.242  1.00  0.00     0.000 HD 
HETATM   13  O   UNL     2      -9.310  13.265  66.607  1.00  0.00    -0.251 OA 
BRANCH  11  14
HETATM   14  C   UNL     2     -11.333  12.549  65.479  1.00  0.00    -0.331 C  
HETATM   15  C   UNL     2     -11.940  12.043  64.173  1.00  0.00    -0.369 C  
HETATM   16  O   UNL     2     -12.157  12.165  66.605  1.00  0.00    -0.622 OA 
HETATM   17  H   UNL     2     -13.076  12.350  66.450  1.00  0.00     0.000 HD 
HETATM   18  O   UNL     2     -11.256  11.438  63.297  1.00  0.00    -0.294 OA 
HETATM   19  O   UNL     2     -13.007  12.594  63.725  1.00  0.00    -0.707 OA 
ENDBRANCH  11  14
ENDBRANCH   8  11
ENDBRANCH   2   8
TORSDOF 3
ENDMDL
MODEL      196
REMARK 921   NORMALIZED FREE ENERGY PREDICTED BY IDOCK:   -3.29 KCAL/MOL
REMARK 922        TOTAL FREE ENERGY PREDICTED BY IDOCK:   -4.34 KCAL/MOL
REMARK 923 INTER-LIGAND FREE ENERGY PREDICTED BY IDOCK:   -3.97 KCAL/MOL
REMARK 924 INTRA-LIGAND FREE ENERGY PREDICTED BY IDOCK:   -0.37 KCAL/MOL
REMARK 927      BINDING AFFINITY PREDICTED BY RF-SCORE:    0.00 PKD
ROOT
HETATM    1 CA   UNL     1      -9.122  15.160  64.537  1.00  0.00     0.014 Ca 
HETATM    2  C   UNL     2     -12.344  12.844  65.640  1.00  0.00    -0.423 C  
HETATM    3  H   UNL     2     -13.675  13.451  66.990  1.00  0.00     0.000 HD 
HETATM    4  C   UNL     2     -11.610  13.482  64.453  1.00  0.00    -0.396 C  
HETATM    5  O   UNL     2     -13.221  13.846  66.254  1.00  0.00    -0.008 OA 
HETATM    6  O   UNL     2     -11.427  12.818  63.415  1.00  0.00    -0.490 OA 
HETATM    7  O   UNL     2     -11.138  14.669  64.635  1.00  0.00    -0.376 OA 
ENDROOT
BRANCH   2   8
HETATM    8  C   UNL     2     -11.403  12.377  66.761  1.00  0.00    -0.335 C  
HETATM    9  H   UNL     2     -11.649  11.393  68.437  1.00  0.00     0.000 HD 
HETATM   10  O   UNL     2     -12.231  11.681  67.744  1.00  0.00    -0.560 OA 
BRANCH   8  11
HETATM   11  C   UNL     2     -10.217  11.418  66.442  1.00  0.00    -0.230 C  
HETATM   12  H   UNL     2      -9.786   9.574  66.896  1.00  0.00     0.000 HD 
HETATM   13  O   UNL     2     -10.509  10.159  67.091  1.00  0.00    -0.224 OA 
BRANCH  11  14
HETATM   14  C   UNL     2      -8.789  11.845  66.809  1.00  0.00    -0.193 C  
HETATM   15  C   UNL     2      -7.644  10.981  66.286  1.00  0.00    -0.111 C  
HETATM   16  O   UNL     2      -8.549  13.240  66.511  1.00  0.00    -0.430 OA 
HETATM   17  H   UNL     2      -7.665  13.504  66.738  1.00  0.00     0.000 HD 
HETATM   18  O   UNL     2      -7.841   9.927  65.614  1.00  0.00    -0.117 OA 
HETATM   19  O   UNL     2      -6.507  11.028  66.877  1.00  0.00    -0.087 OA 
ENDBRANCH  11  14
ENDBRANCH   8  11
ENDBRANCH   2   8
TORSDOF 3
ENDMDL
MODEL      197
REMARK 921   NORMALIZED FREE ENERGY PREDICTED BY IDOCK:   -3.28 KCAL/MOL
REMARK 922        TOTAL FREE ENERGY PREDICTED BY IDOCK:   -4.33 KCAL/MOL
REMARK 923 INTER-LIGAND FREE ENERGY PREDICTED BY IDOCK:   -4.54 KCAL/MOL
REMARK 924 INTRA-LIGAND FREE ENERGY PREDICTED BY IDOCK:    0.21 KCAL/MOL
REMARK 927      BINDING AFFINITY PREDICTED BY RF-SCORE:    0.00 PKD
ROOT
HETATM    1 CA   UNL     1      -7.837  12.225  69.898  1.00  0.00    -0.310 Ca 
HETATM    2  C   UNL     2     -10.136   9.280  68.165  1.00  0.00    -0.187 C  
HETATM    3  H   UNL     2      -9.591   8.358  66.486  1.00  0.00     0.000 HD 
HETATM    4  C   UNL     2      -9.433   9.720  69.456  1.00  0.00    -0.212 C  
HETATM    5  O   UNL     2      -9.156   8.631  67.286  1.00  0.00    -0.131 OA 
HETATM    6  O   UNL     2     -10.025   9.608  70.546  1.00  0.00    -0.260 OA 
HETATM    7  O   UNL     2      -8.277  10.277  69.324  1.00  0.00    -0.138 OA 
ENDROOT
BRANCH   2   8
HETATM    8  C   UNL     2     -10.709  10.449  67.350  1.00  0.00    -0.283 C  
HETATM    9  H   UNL     2     -11.321  12.257  67.791  1.00  0.00     0.000 HD 
HETATM   10  O   UNL     2     -10.967  11.534  68.295  1.00  0.00    -0.196 OA 
BRANCH   8  11
HETATM   11  C   UNL     2      -9.880  11.078  66.190  1.00  0.00    -0.225 C  
HETATM   12  H   UNL     2      -8.776  12.671  66.003  1.00  0.00     0.000 HD 
HETATM   13  O   UNL     2      -9.282  12.288  66.710  1.00  0.00    -0.200 OA 
BRANCH  11  14
HETATM   14  C   UNL     2     -10.577  11.402  64.862  1.00  0.00    -0.307 C  
HETATM   15  C   UNL     2     -11.837  12.260  64.924  1.00  0.00    -0.358 C  
HETATM   16  O   UNL     2      -9.652  11.927  63.881  1.00  0.00    -0.481 OA 
HETATM   17  H   UNL     2     -10.084  12.128  63.058  1.00  0.00     0.000 HD 
HETATM   18  O   UNL     2     -12.331  12.663  66.017  1.00  0.00    -0.587 OA 
HETATM   19  O   UNL     2     -12.671  12.218  63.950  1.00  0.00    -0.668 OA 
ENDBRANCH  11  14
ENDBRANCH   8  11
ENDBRANCH   2   8
TORSDOF 3
ENDMDL
MODEL      198
REMARK 921   NORMALIZED FREE ENERGY PREDICTED BY IDOCK:   -3.28 KCAL/MOL
REMARK 922        TOTAL FREE ENERGY PREDICTED BY IDOCK:   -4.33 KCAL/MOL
REMARK 923 INTER-LIGAND FREE ENERGY PREDICTED BY IDOCK:   -3.63 KCAL/MOL
REMARK 924 INTRA-LIGAND FREE ENERGY PREDICTED BY IDOCK:   -0.69 KCAL/MOL
REMARK 927      BINDING AFFINITY PREDICTED BY RF-SCORE:    0.00 PKD
ROOT
HETATM    1 CA   UNL     1      -9.188   9.819  67.070  1.00  0.00    -0.130 Ca 
HETATM    2  C   UNL     2     -10.014   9.082  71.037  1.00  0.00    -0.279 C  
HETATM    3  H   UNL     2      -8.589   8.634  72.353  1.00  0.00     0.000 HD 
HETATM    4  C   UNL     2     -10.177  10.090  69.892  1.00  0.00    -0.260 C  
HETATM    5  O   UNL     2      -8.690   9.258  71.644  1.00  0.00    -0.312 OA 
HETATM    6  O   UNL     2     -11.277  10.648  69.716  1.00  0.00    -0.254 OA 
HETATM    7  O   UNL     2      -9.166  10.240  69.105  1.00  0.00    -0.174 OA 
ENDROOT
BRANCH   2   8
HETATM    8  C   UNL     2     -10.064   7.618  70.575  1.00  0.00    -0.189 C  
HETATM    9  H   UNL     2      -9.927   5.887  71.483  1.00  0.00     0.000 HD 
HETATM   10  O   UNL     2      -9.896   6.793  71.769  1.00  0.00    -0.165 OA 
BRANCH   8  11
HETATM   11  C   UNL     2     -11.327   7.068  69.846  1.00  0.00    -0.216 C  
HETATM   12  H   UNL     2     -12.999   6.256  70.428  1.00  0.00     0.000 HD 
HETATM   13  O   UNL     2     -12.229   6.591  70.872  1.00  0.00    -0.329 OA 
BRANCH  11  14
HETATM   14  C   UNL     2     -11.161   5.971  68.785  1.00  0.00    -0.254 C  
HETATM   15  C   UNL     2     -10.788   6.414  67.373  1.00  0.00    -0.375 C  
HETATM   16  O   UNL     2     -10.281   4.914  69.235  1.00  0.00    -0.207 OA 
HETATM   17  H   UNL     2     -10.178   4.235  68.578  1.00  0.00     0.000 HD 
HETATM   18  O   UNL     2     -10.660   7.632  67.056  1.00  0.00    -0.329 OA 
HETATM   19  O   UNL     2     -11.038   5.633  66.387  1.00  0.00    -0.160 OA 
ENDBRANCH  11  14
ENDBRANCH   8  11
ENDBRANCH   2   8
TORSDOF 3
ENDMDL
MODEL      199
REMARK 921   NORMALIZED FREE ENERGY PREDICTED BY IDOCK:   -3.26 KCAL/MOL
REMARK 922        TOTAL FREE ENERGY PREDICTED BY IDOCK:   -4.30 KCAL/MOL
REMARK 923 INTER-LIGAND FREE ENERGY PREDICTED BY IDOCK:   -4.48 KCAL/MOL
REMARK 924 INTRA-LIGAND FREE ENERGY PREDICTED BY IDOCK:    0.18 KCAL/MOL
REMARK 927      BINDING AFFINITY PREDICTED BY RF-SCORE:    0.00 PKD
ROOT
HETATM    1 CA   UNL     1     -10.950  12.886  70.481  1.00  0.00    -0.466 Ca 
HETATM    2  C   UNL     2     -10.789  16.052  67.852  1.00  0.00    -0.333 C  
HETATM    3  H   UNL     2     -10.093  15.857  65.997  1.00  0.00     0.000 HD 
HETATM    4  C   UNL     2     -11.706  15.238  68.774  1.00  0.00    -0.353 C  
HETATM    5  O   UNL     2     -10.661  15.354  66.568  1.00  0.00    -0.295 OA 
HETATM    6  O   UNL     2     -12.516  15.830  69.513  1.00  0.00    -0.199 OA 
HETATM    7  O   UNL     2     -11.518  13.962  68.797  1.00  0.00    -0.252 OA 
ENDROOT
BRANCH   2   8
HETATM    8  C   UNL     2      -9.356  16.198  68.387  1.00  0.00    -0.206 C  
HETATM    9  H   UNL     2      -7.867  14.957  68.674  1.00  0.00     0.000 HD 
HETATM   10  O   UNL     2      -8.753  14.867  68.343  1.00  0.00    -0.159 OA 
BRANCH   8  11
HETATM   11  C   UNL     2      -8.347  17.150  67.678  1.00  0.00    -0.192 C  
HETATM   12  H   UNL     2      -6.783  18.160  68.249  1.00  0.00     0.000 HD 
HETATM   13  O   UNL     2      -7.399  17.580  68.682  1.00  0.00    -0.236 OA 
BRANCH  11  14
HETATM   14  C   UNL     2      -8.877  18.385  66.937  1.00  0.00    -0.279 C  
HETATM   15  C   UNL     2      -9.560  19.463  67.774  1.00  0.00    -0.335 C  
HETATM   16  O   UNL     2      -7.873  18.970  66.075  1.00  0.00    -0.360 OA 
HETATM   17  H   UNL     2      -8.201  19.735  65.617  1.00  0.00     0.000 HD 
HETATM   18  O   UNL     2      -9.733  19.346  69.021  1.00  0.00    -0.417 OA 
HETATM   19  O   UNL     2     -10.365  20.281  67.202  1.00  0.00    -0.399 OA 
ENDBRANCH  11  14
ENDBRANCH   8  11
ENDBRANCH   2   8
TORSDOF 3
ENDMDL
MODEL      200
REMARK 921   NORMALIZED FREE ENERGY PREDICTED BY IDOCK:   -3.26 KCAL/MOL
REMARK 922        TOTAL FREE ENERGY PREDICTED BY IDOCK:   -4.30 KCAL/MOL
REMARK 923 INTER-LIGAND FREE ENERGY PREDICTED BY IDOCK:   -4.03 KCAL/MOL
REMARK 924 INTRA-LIGAND FREE ENERGY PREDICTED BY IDOCK:   -0.27 KCAL/MOL
REMARK 927      BINDING AFFINITY PREDICTED BY RF-SCORE:    0.00 PKD
ROOT
HETATM    1 CA   UNL     1     -12.629  12.533  69.654  1.00  0.00    -0.243 Ca 
HETATM    2  C   UNL     2     -11.303  13.721  65.940  1.00  0.00    -0.307 C  
HETATM    3  H   UNL     2     -12.489  14.646  64.635  1.00  0.00     0.000 HD 
HETATM    4  C   UNL     2     -11.043  13.815  67.449  1.00  0.00    -0.296 C  
HETATM    5  O   UNL     2     -12.328  14.704  65.570  1.00  0.00    -0.286 OA 
HETATM    6  O   UNL     2      -9.880  13.699  67.881  1.00  0.00    -0.224 OA 
HETATM    7  O   UNL     2     -12.080  13.922  68.209  1.00  0.00    -0.366 OA 
ENDROOT
BRANCH   2   8
HETATM    8  C   UNL     2     -11.859  12.359  65.498  1.00  0.00    -0.412 C  
HETATM    9  H   UNL     2     -12.246  11.533  63.764  1.00  0.00     0.000 HD 
HETATM   10  O   UNL     2     -11.902  12.375  64.037  1.00  0.00    -0.370 OA 
BRANCH   8  11
HETATM   11  C   UNL     2     -11.121  11.045  65.892  1.00  0.00     0.032 C  
HETATM   12  H   UNL     2     -11.025   9.958  67.505  1.00  0.00     0.000 HD 
HETATM   13  O   UNL     2     -11.475  10.760  67.265  1.00  0.00    -0.436 OA 
BRANCH  11  14
HETATM   14  C   UNL     2      -9.594  10.973  65.749  1.00  0.00    -0.222 C  
HETATM   15  C   UNL     2      -8.948   9.593  65.841  1.00  0.00    -0.167 C  
HETATM   16  O   UNL     2      -9.129  11.675  64.572  1.00  0.00    -0.410 OA 
HETATM   17  H   UNL     2      -8.183  11.630  64.484  1.00  0.00     0.000 HD 
HETATM   18  O   UNL     2      -9.616   8.544  66.070  1.00  0.00    -0.227 OA 
HETATM   19  O   UNL     2      -7.704   9.505  66.143  1.00  0.00    -0.099 OA 
ENDBRANCH  11  14
ENDBRANCH   8  11
ENDBRANCH   2   8
TORSDOF 3
ENDMDL
MODEL      201
REMARK 921   NORMALIZED FREE ENERGY PREDICTED BY IDOCK:   -3.25 KCAL/MOL
REMARK 922        TOTAL FREE ENERGY PREDICTED BY IDOCK:   -4.29 KCAL/MOL
REMARK 923 INTER-LIGAND FREE ENERGY PREDICTED BY IDOCK:   -3.84 KCAL/MOL
REMARK 924 INTRA-LIGAND FREE ENERGY PREDICTED BY IDOCK:   -0.46 KCAL/MOL
REMARK 927      BINDING AFFINITY PREDICTED BY RF-SCORE:    0.00 PKD
ROOT
HETATM    1 CA   UNL     1     -12.503  10.161  68.873  1.00  0.00    -0.514 Ca 
HETATM    2  C   UNL     2     -11.278   8.257  72.314  1.00  0.00    -0.374 C  
HETATM    3  H   UNL     2      -9.361   8.146  72.840  1.00  0.00     0.000 HD 
HETATM    4  C   UNL     2     -12.202   9.342  71.746  1.00  0.00    -0.390 C  
HETATM    5  O   UNL     2      -9.934   8.818  72.489  1.00  0.00    -0.245 OA 
HETATM    6  O   UNL     2     -13.378   9.421  72.151  1.00  0.00    -0.408 OA 
HETATM    7  O   UNL     2     -11.723  10.072  70.797  1.00  0.00    -0.297 OA 
ENDROOT
BRANCH   2   8
HETATM    8  C   UNL     2     -11.103   7.052  71.377  1.00  0.00    -0.245 C  
HETATM    9  H   UNL     2     -12.267   6.123  70.104  1.00  0.00     0.000 HD 
HETATM   10  O   UNL     2     -12.376   6.868  70.683  1.00  0.00    -0.348 OA 
BRANCH   8  11
HETATM   11  C   UNL     2     -10.009   7.075  70.267  1.00  0.00    -0.179 C  
HETATM   12  H   UNL     2      -9.964   7.623  68.399  1.00  0.00     0.000 HD 
HETATM   13  O   UNL     2     -10.631   7.609  69.075  1.00  0.00    -0.216 OA 
BRANCH  11  14
HETATM   14  C   UNL     2      -9.283   5.771  69.904  1.00  0.00    -0.144 C  
HETATM   15  C   UNL     2      -8.004   5.447  70.669  1.00  0.00    -0.105 C  
HETATM   16  O   UNL     2     -10.180   4.636  69.908  1.00  0.00    -0.237 OA 
HETATM   17  H   UNL     2      -9.731   3.829  69.684  1.00  0.00     0.000 HD 
HETATM   18  O   UNL     2      -7.517   6.226  71.540  1.00  0.00    -0.087 OA 
HETATM   19  O   UNL     2      -7.157   4.634  70.154  1.00  0.00    -0.047 OA 
ENDBRANCH  11  14
ENDBRANCH   8  11
ENDBRANCH   2   8
TORSDOF 3
ENDMDL
MODEL      202
REMARK 921   NORMALIZED FREE ENERGY PREDICTED BY IDOCK:   -3.25 KCAL/MOL
REMARK 922        TOTAL FREE ENERGY PREDICTED BY IDOCK:   -4.29 KCAL/MOL
REMARK 923 INTER-LIGAND FREE ENERGY PREDICTED BY IDOCK:   -4.40 KCAL/MOL
REMARK 924 INTRA-LIGAND FREE ENERGY PREDICTED BY IDOCK:    0.11 KCAL/MOL
REMARK 927      BINDING AFFINITY PREDICTED BY RF-SCORE:    0.00 PKD
ROOT
HETATM    1 CA   UNL     1     -11.162  20.117  69.101  1.00  0.00    -0.488 Ca 
HETATM    2  C   UNL     2      -9.451  18.040  65.984  1.00  0.00    -0.040 C  
HETATM    3  H   UNL     2     -10.473  16.719  64.900  1.00  0.00     0.000 HD 
HETATM    4  C   UNL     2      -9.720  19.437  66.557  1.00  0.00    -0.375 C  
HETATM    5  O   UNL     2     -10.640  17.585  65.254  1.00  0.00    -0.664 OA 
HETATM    6  O   UNL     2      -8.811  20.289  66.552  1.00  0.00    -0.286 OA 
HETATM    7  O   UNL     2     -10.874  19.626  67.103  1.00  0.00    -0.484 OA 
ENDROOT
BRANCH   2   8
HETATM    8  C   UNL     2      -9.196  16.975  67.062  1.00  0.00    -0.236 C  
HETATM    9  H   UNL     2      -7.592  16.241  67.913  1.00  0.00     0.000 HD 
HETATM   10  O   UNL     2      -7.748  16.899  67.246  1.00  0.00    -0.156 OA 
BRANCH   8  11
HETATM   11  C   UNL     2      -9.803  17.143  68.488  1.00  0.00    -0.297 C  
HETATM   12  H   UNL     2      -9.447  18.319  69.998  1.00  0.00     0.000 HD 
HETATM   13  O   UNL     2      -9.077  18.217  69.129  1.00  0.00    -0.095 OA 
BRANCH  11  14
HETATM   14  C   UNL     2      -9.836  15.934  69.434  1.00  0.00    -0.280 C  
HETATM   15  C   UNL     2     -11.199  15.319  69.736  1.00  0.00    -0.286 C  
HETATM   16  O   UNL     2      -8.894  14.911  69.035  1.00  0.00    -0.196 OA 
HETATM   17  H   UNL     2      -8.914  14.163  69.621  1.00  0.00     0.000 HD 
HETATM   18  O   UNL     2     -12.276  15.795  69.273  1.00  0.00    -0.298 OA 
HETATM   19  O   UNL     2     -11.345  14.613  70.796  1.00  0.00    -0.224 OA 
ENDBRANCH  11  14
ENDBRANCH   8  11
ENDBRANCH   2   8
TORSDOF 3
ENDMDL
MODEL      203
REMARK 921   NORMALIZED FREE ENERGY PREDICTED BY IDOCK:   -3.23 KCAL/MOL
REMARK 922        TOTAL FREE ENERGY PREDICTED BY IDOCK:   -4.28 KCAL/MOL
REMARK 923 INTER-LIGAND FREE ENERGY PREDICTED BY IDOCK:   -4.14 KCAL/MOL
REMARK 924 INTRA-LIGAND FREE ENERGY PREDICTED BY IDOCK:   -0.14 KCAL/MOL
REMARK 927      BINDING AFFINITY PREDICTED BY RF-SCORE:    0.00 PKD
ROOT
HETATM    1 CA   UNL     1     -11.243  10.754  62.408  1.00  0.00    -0.752 Ca 
HETATM    2  C   UNL     2      -9.939  10.962  66.309  1.00  0.00    -0.227 C  
HETATM    3  H   UNL     2      -8.037  10.650  66.811  1.00  0.00     0.000 HD 
HETATM    4  C   UNL     2     -10.672  11.718  65.194  1.00  0.00    -0.291 C  
HETATM    5  O   UNL     2      -8.492  11.118  66.121  1.00  0.00    -0.169 OA 
HETATM    6  O   UNL     2     -11.718  12.341  65.460  1.00  0.00    -0.376 OA 
HETATM    7  O   UNL     2     -10.201  11.589  64.001  1.00  0.00    -0.283 OA 
ENDROOT
BRANCH   2   8
HETATM    8  C   UNL     2     -10.195   9.447  66.292  1.00  0.00    -0.214 C  
HETATM    9  H   UNL     2      -9.430   7.938  65.305  1.00  0.00     0.000 HD 
HETATM   10  O   UNL     2      -9.271   8.874  65.315  1.00  0.00    -0.189 OA 
BRANCH   8  11
HETATM   11  C   UNL     2     -10.019   8.607  67.593  1.00  0.00    -0.194 C  
HETATM   12  H   UNL     2     -10.415   6.769  68.101  1.00  0.00     0.000 HD 
HETATM   13  O   UNL     2     -10.523   7.281  67.308  1.00  0.00    -0.245 OA 
BRANCH  11  14
HETATM   14  C   UNL     2     -10.654   9.107  68.899  1.00  0.00    -0.191 C  
HETATM   15  C   UNL     2      -9.729   9.768  69.917  1.00  0.00    -0.238 C  
HETATM   16  O   UNL     2     -11.814   9.936  68.651  1.00  0.00    -0.429 OA 
HETATM   17  H   UNL     2     -12.206  10.245  69.460  1.00  0.00     0.000 HD 
HETATM   18  O   UNL     2      -8.482   9.871  69.735  1.00  0.00    -0.169 OA 
HETATM   19  O   UNL     2     -10.092   9.823  71.146  1.00  0.00    -0.171 OA 
ENDBRANCH  11  14
ENDBRANCH   8  11
ENDBRANCH   2   8
TORSDOF 3
ENDMDL
MODEL      204
REMARK 921   NORMALIZED FREE ENERGY PREDICTED BY IDOCK:   -3.23 KCAL/MOL
REMARK 922        TOTAL FREE ENERGY PREDICTED BY IDOCK:   -4.27 KCAL/MOL
REMARK 923 INTER-LIGAND FREE ENERGY PREDICTED BY IDOCK:   -4.03 KCAL/MOL
REMARK 924 INTRA-LIGAND FREE ENERGY PREDICTED BY IDOCK:   -0.23 KCAL/MOL
REMARK 927      BINDING AFFINITY PREDICTED BY RF-SCORE:    0.00 PKD
ROOT
HETATM    1 CA   UNL     1      -8.177  13.170  67.358  1.00  0.00    -0.123 Ca 
HETATM    2  C   UNL     2     -11.909  13.279  69.096  1.00  0.00    -0.329 C  
HETATM    3  H   UNL     2     -12.164  13.190  71.069  1.00  0.00     0.000 HD 
HETATM    4  C   UNL     2     -10.952  14.006  68.143  1.00  0.00    -0.252 C  
HETATM    5  O   UNL     2     -11.572  13.640  70.478  1.00  0.00    -0.155 OA 
HETATM    6  O   UNL     2     -11.386  14.463  67.068  1.00  0.00    -0.319 OA 
HETATM    7  O   UNL     2      -9.706  14.024  68.476  1.00  0.00    -0.224 OA 
ENDROOT
BRANCH   2   8
HETATM    8  C   UNL     2     -11.793  11.748  69.031  1.00  0.00    -0.317 C  
HETATM    9  H   UNL     2     -11.452  10.459  67.596  1.00  0.00     0.000 HD 
HETATM   10  O   UNL     2     -11.524  11.405  67.636  1.00  0.00    -0.376 OA 
BRANCH   8  11
HETATM   11  C   UNL     2     -10.710  11.007  69.872  1.00  0.00     0.006 C  
HETATM   12  H   UNL     2      -8.840  10.540  69.591  1.00  0.00     0.000 HD 
HETATM   13  O   UNL     2      -9.501  10.991  69.078  1.00  0.00    -0.184 OA 
BRANCH  11  14
HETATM   14  C   UNL     2     -10.994   9.583  70.370  1.00  0.00    -0.278 C  
HETATM   15  C   UNL     2     -12.202   9.389  71.281  1.00  0.00    -0.345 C  
HETATM   16  O   UNL     2     -11.016   8.627  69.285  1.00  0.00    -0.411 OA 
HETATM   17  H   UNL     2     -11.192   7.745  69.593  1.00  0.00     0.000 HD 
HETATM   18  O   UNL     2     -12.929  10.353  71.660  1.00  0.00    -0.406 OA 
HETATM   19  O   UNL     2     -12.252   8.358  72.042  1.00  0.00    -0.319 OA 
ENDBRANCH  11  14
ENDBRANCH   8  11
ENDBRANCH   2   8
TORSDOF 3
ENDMDL
MODEL      205
REMARK 921   NORMALIZED FREE ENERGY PREDICTED BY IDOCK:   -3.22 KCAL/MOL
REMARK 922        TOTAL FREE ENERGY PREDICTED BY IDOCK:   -4.26 KCAL/MOL
REMARK 923 INTER-LIGAND FREE ENERGY PREDICTED BY IDOCK:   -3.69 KCAL/MOL
REMARK 924 INTRA-LIGAND FREE ENERGY PREDICTED BY IDOCK:   -0.57 KCAL/MOL
REMARK 927      BINDING AFFINITY PREDICTED BY RF-SCORE:    0.00 PKD
ROOT
HETATM    1 CA   UNL     1      -9.519   6.063  73.843  1.00  0.00    -0.129 Ca 
HETATM    2  C   UNL     2     -11.345   7.565  70.471  1.00  0.00    -0.260 C  
HETATM    3  H   UNL     2     -11.674   6.449  68.856  1.00  0.00     0.000 HD 
HETATM    4  C   UNL     2     -11.481   7.374  71.987  1.00  0.00    -0.273 C  
HETATM    5  O   UNL     2     -11.759   6.331  69.795  1.00  0.00    -0.403 OA 
HETATM    6  O   UNL     2     -11.897   8.315  72.690  1.00  0.00    -0.401 OA 
HETATM    7  O   UNL     2     -11.066   6.252  72.469  1.00  0.00    -0.247 OA 
ENDROOT
BRANCH   2   8
HETATM    8  C   UNL     2      -9.900   7.820  70.015  1.00  0.00    -0.181 C  
HETATM    9  H   UNL     2      -8.583   6.790  68.993  1.00  0.00     0.000 HD 
HETATM   10  O   UNL     2      -9.476   6.632  69.276  1.00  0.00    -0.142 OA 
BRANCH   8  11
HETATM   11  C   UNL     2      -9.569   9.037  69.099  1.00  0.00    -0.161 C  
HETATM   12  H   UNL     2      -9.411  10.958  69.377  1.00  0.00     0.000 HD 
HETATM   13  O   UNL     2      -9.613  10.216  69.935  1.00  0.00    -0.213 OA 
BRANCH  11  14
HETATM   14  C   UNL     2     -10.424   9.286  67.848  1.00  0.00    -0.236 C  
HETATM   15  C   UNL     2      -9.839  10.195  66.771  1.00  0.00    -0.196 C  
HETATM   16  O   UNL     2     -10.901   8.050  67.265  1.00  0.00    -0.491 OA 
HETATM   17  H   UNL     2     -11.430   8.204  66.491  1.00  0.00     0.000 HD 
HETATM   18  O   UNL     2      -8.718  10.768  66.901  1.00  0.00    -0.137 OA 
HETATM   19  O   UNL     2     -10.630  10.763  65.936  1.00  0.00    -0.225 OA 
ENDBRANCH  11  14
ENDBRANCH   8  11
ENDBRANCH   2   8
TORSDOF 3
ENDMDL
MODEL      206
REMARK 921   NORMALIZED FREE ENERGY PREDICTED BY IDOCK:   -3.21 KCAL/MOL
REMARK 922        TOTAL FREE ENERGY PREDICTED BY IDOCK:   -4.25 KCAL/MOL
REMARK 923 INTER-LIGAND FREE ENERGY PREDICTED BY IDOCK:   -4.33 KCAL/MOL
REMARK 924 INTRA-LIGAND FREE ENERGY PREDICTED BY IDOCK:    0.08 KCAL/MOL
REMARK 927      BINDING AFFINITY PREDICTED BY RF-SCORE:    0.00 PKD
ROOT
HETATM    1 CA   UNL     1     -12.929   5.941  71.853  1.00  0.00    -0.276 Ca 
HETATM    2  C   UNL     2     -13.226  10.030  71.466  1.00  0.00    -0.401 C  
HETATM    3  H   UNL     2     -13.369  10.920  69.691  1.00  0.00     0.000 HD 
HETATM    4  C   UNL     2     -13.840   8.789  72.127  1.00  0.00    -0.457 C  
HETATM    5  O   UNL     2     -13.749  10.152  70.100  1.00  0.00     0.282 OA 
HETATM    6  O   UNL     2     -14.167   8.830  73.328  1.00  0.00    -0.210 OA 
HETATM    7  O   UNL     2     -13.902   7.721  71.406  1.00  0.00    -0.351 OA 
ENDROOT
BRANCH   2   8
HETATM    8  C   UNL     2     -11.699   9.952  71.317  1.00  0.00    -0.392 C  
HETATM    9  H   UNL     2     -10.368   8.536  71.564  1.00  0.00     0.000 HD 
HETATM   10  O   UNL     2     -11.312   8.584  71.657  1.00  0.00    -0.259 OA 
BRANCH   8  11
HETATM   11  C   UNL     2     -11.028  10.261  69.945  1.00  0.00    -0.303 C  
HETATM   12  H   UNL     2      -9.263   9.950  69.183  1.00  0.00     0.000 HD 
HETATM   13  O   UNL     2      -9.672   9.762  70.019  1.00  0.00    -0.229 OA 
BRANCH  11  14
HETATM   14  C   UNL     2     -10.994  11.709  69.437  1.00  0.00    -0.152 C  
HETATM   15  C   UNL     2     -11.447  11.957  68.001  1.00  0.00    -0.323 C  
HETATM   16  O   UNL     2     -11.665  12.615  70.345  1.00  0.00    -0.536 OA 
HETATM   17  H   UNL     2     -11.645  13.511  70.031  1.00  0.00     0.000 HD 
HETATM   18  O   UNL     2     -11.796  11.019  67.228  1.00  0.00    -0.468 OA 
HETATM   19  O   UNL     2     -11.062  13.023  67.401  1.00  0.00    -0.257 OA 
ENDBRANCH  11  14
ENDBRANCH   8  11
ENDBRANCH   2   8
TORSDOF 3
ENDMDL
MODEL      207
REMARK 921   NORMALIZED FREE ENERGY PREDICTED BY IDOCK:   -3.21 KCAL/MOL
REMARK 922        TOTAL FREE ENERGY PREDICTED BY IDOCK:   -4.25 KCAL/MOL
REMARK 923 INTER-LIGAND FREE ENERGY PREDICTED BY IDOCK:   -4.46 KCAL/MOL
REMARK 924 INTRA-LIGAND FREE ENERGY PREDICTED BY IDOCK:    0.21 KCAL/MOL
REMARK 927      BINDING AFFINITY PREDICTED BY RF-SCORE:    0.00 PKD
ROOT
HETATM    1 CA   UNL     1      -9.252  14.140  65.101  1.00  0.00    -0.485 Ca 
HETATM    2  C   UNL     2     -10.667  16.451  68.202  1.00  0.00    -0.336 C  
HETATM    3  H   UNL     2     -10.845  18.429  68.056  1.00  0.00     0.000 HD 
HETATM    4  C   UNL     2     -10.972  15.250  67.299  1.00  0.00    -0.327 C  
HETATM    5  O   UNL     2     -11.034  17.685  67.497  1.00  0.00    -0.273 OA 
HETATM    6  O   UNL     2     -11.439  14.208  67.798  1.00  0.00    -0.290 OA 
HETATM    7  O   UNL     2     -10.636  15.359  66.058  1.00  0.00    -0.299 OA 
ENDROOT
BRANCH   2   8
HETATM    8  C   UNL     2      -9.176  16.599  68.542  1.00  0.00    -0.234 C  
HETATM    9  H   UNL     2      -7.870  15.492  69.494  1.00  0.00     0.000 HD 
HETATM   10  O   UNL     2      -8.792  15.400  69.285  1.00  0.00    -0.231 OA 
BRANCH   8  11
HETATM   11  C   UNL     2      -8.124  16.754  67.403  1.00  0.00    -0.170 C  
HETATM   12  H   UNL     2      -6.190  16.551  67.287  1.00  0.00     0.000 HD 
HETATM   13  O   UNL     2      -6.832  16.457  67.982  1.00  0.00    -0.128 OA 
BRANCH  11  14
HETATM   14  C   UNL     2      -8.032  18.085  66.644  1.00  0.00    -0.251 C  
HETATM   15  C   UNL     2      -7.806  19.347  67.471  1.00  0.00    -0.258 C  
HETATM   16  O   UNL     2      -7.087  18.018  65.550  1.00  0.00    -0.515 OA 
HETATM   17  H   UNL     2      -7.031  18.843  65.080  1.00  0.00     0.000 HD 
HETATM   18  O   UNL     2      -7.739  19.328  68.734  1.00  0.00    -0.344 OA 
HETATM   19  O   UNL     2      -8.129  20.485  66.975  1.00  0.00    -0.320 OA 
ENDBRANCH  11  14
ENDBRANCH   8  11
ENDBRANCH   2   8
TORSDOF 3
ENDMDL
MODEL      208
REMARK 921   NORMALIZED FREE ENERGY PREDICTED BY IDOCK:   -3.21 KCAL/MOL
REMARK 922        TOTAL FREE ENERGY PREDICTED BY IDOCK:   -4.24 KCAL/MOL
REMARK 923 INTER-LIGAND FREE ENERGY PREDICTED BY IDOCK:   -3.96 KCAL/MOL
REMARK 924 INTRA-LIGAND FREE ENERGY PREDICTED BY IDOCK:   -0.29 KCAL/MOL
REMARK 927      BINDING AFFINITY PREDICTED BY RF-SCORE:    0.00 PKD
ROOT
HETATM    1 CA   UNL     1     -12.183   6.350  68.533  1.00  0.00    -0.499 Ca 
HETATM    2  C   UNL     2      -9.344   8.945  70.004  1.00  0.00    -0.174 C  
HETATM    3  H   UNL     2      -9.769  10.836  70.461  1.00  0.00     0.000 HD 
HETATM    4  C   UNL     2     -10.021   7.584  70.212  1.00  0.00    -0.192 C  
HETATM    5  O   UNL     2     -10.188   9.993  70.589  1.00  0.00    -0.216 OA 
HETATM    6  O   UNL     2      -9.327   6.589  70.493  1.00  0.00    -0.161 OA 
HETATM    7  O   UNL     2     -11.291   7.531  69.992  1.00  0.00    -0.212 OA 
ENDROOT
BRANCH   2   8
HETATM    8  C   UNL     2      -9.179   9.327  68.525  1.00  0.00    -0.135 C  
HETATM    9  H   UNL     2      -8.184   8.570  67.016  1.00  0.00     0.000 HD 
HETATM   10  O   UNL     2      -8.286   8.334  67.931  1.00  0.00    -0.125 OA 
BRANCH   8  11
HETATM   11  C   UNL     2     -10.423   9.400  67.590  1.00  0.00    -0.268 C  
HETATM   12  H   UNL     2     -11.323   8.143  66.407  1.00  0.00     0.000 HD 
HETATM   13  O   UNL     2     -10.564   8.098  66.976  1.00  0.00    -0.329 OA 
BRANCH  11  14
HETATM   14  C   UNL     2     -10.473  10.473  66.493  1.00  0.00    -0.212 C  
HETATM   15  C   UNL     2     -11.310  11.719  66.771  1.00  0.00    -0.320 C  
HETATM   16  O   UNL     2      -9.150  10.840  66.037  1.00  0.00    -0.172 OA 
HETATM   17  H   UNL     2      -9.181  11.504  65.358  1.00  0.00     0.000 HD 
HETATM   18  O   UNL     2     -11.979  11.864  67.835  1.00  0.00    -0.556 OA 
HETATM   19  O   UNL     2     -11.724  12.426  65.784  1.00  0.00    -0.383 OA 
ENDBRANCH  11  14
ENDBRANCH   8  11
ENDBRANCH   2   8
TORSDOF 3
ENDMDL
MODEL      209
REMARK 921   NORMALIZED FREE ENERGY PREDICTED BY IDOCK:   -3.19 KCAL/MOL
REMARK 922        TOTAL FREE ENERGY PREDICTED BY IDOCK:   -4.22 KCAL/MOL
REMARK 923 INTER-LIGAND FREE ENERGY PREDICTED BY IDOCK:   -3.76 KCAL/MOL
REMARK 924 INTRA-LIGAND FREE ENERGY PREDICTED BY IDOCK:   -0.46 KCAL/MOL
REMARK 927      BINDING AFFINITY PREDICTED BY RF-SCORE:    0.00 PKD
ROOT
HETATM    1 CA   UNL     1     -10.653   7.174  65.858  1.00  0.00    -0.462 Ca 
HETATM    2  C   UNL     2      -8.441  10.645  66.004  1.00  0.00    -0.165 C  
HETATM    3  H   UNL     2      -6.843  10.837  67.176  1.00  0.00     0.000 HD 
HETATM    4  C   UNL     2      -9.002   9.558  65.078  1.00  0.00    -0.213 C  
HETATM    5  O   UNL     2      -7.191  10.164  66.603  1.00  0.00    -0.099 OA 
HETATM    6  O   UNL     2      -9.531   9.884  63.998  1.00  0.00    -0.277 OA 
HETATM    7  O   UNL     2      -8.971   8.347  65.522  1.00  0.00    -0.171 OA 
ENDROOT
BRANCH   2   8
HETATM    8  C   UNL     2      -9.364  10.977  67.187  1.00  0.00    -0.164 C  
HETATM    9  H   UNL     2      -9.138  11.014  69.133  1.00  0.00     0.000 HD 
HETATM   10  O   UNL     2      -8.568  10.809  68.402  1.00  0.00    -0.128 OA 
BRANCH   8  11
HETATM   11  C   UNL     2     -10.023  12.385  67.297  1.00  0.00    -0.206 C  
HETATM   12  H   UNL     2      -9.410  14.211  67.006  1.00  0.00     0.000 HD 
HETATM   13  O   UNL     2      -9.009  13.352  66.940  1.00  0.00    -0.229 OA 
BRANCH  11  14
HETATM   14  C   UNL     2     -10.665  12.809  68.625  1.00  0.00    -0.246 C  
HETATM   15  C   UNL     2     -11.892  13.714  68.551  1.00  0.00    -0.371 C  
HETATM   16  O   UNL     2     -10.922  11.675  69.486  1.00  0.00    -0.403 OA 
HETATM   17  H   UNL     2     -11.320  11.938  70.308  1.00  0.00     0.000 HD 
HETATM   18  O   UNL     2     -12.351  14.147  67.454  1.00  0.00    -0.317 OA 
HETATM   19  O   UNL     2     -12.209  14.420  69.573  1.00  0.00    -0.316 OA 
ENDBRANCH  11  14
ENDBRANCH   8  11
ENDBRANCH   2   8
TORSDOF 3
ENDMDL
MODEL      210
REMARK 921   NORMALIZED FREE ENERGY PREDICTED BY IDOCK:   -3.18 KCAL/MOL
REMARK 922        TOTAL FREE ENERGY PREDICTED BY IDOCK:   -4.22 KCAL/MOL
REMARK 923 INTER-LIGAND FREE ENERGY PREDICTED BY IDOCK:   -4.02 KCAL/MOL
REMARK 924 INTRA-LIGAND FREE ENERGY PREDICTED BY IDOCK:   -0.19 KCAL/MOL
REMARK 927      BINDING AFFINITY PREDICTED BY RF-SCORE:    0.00 PKD
ROOT
HETATM    1 CA   UNL     1     -13.493   5.636  72.624  1.00  0.00    -0.516 Ca 
HETATM    2  C   UNL     2     -11.763   9.226  71.587  1.00  0.00    -0.392 C  
HETATM    3  H   UNL     2     -10.838   9.495  69.843  1.00  0.00     0.000 HD 
HETATM    4  C   UNL     2     -13.059   8.552  72.052  1.00  0.00    -0.371 C  
HETATM    5  O   UNL     2     -11.642   9.077  70.132  1.00  0.00    -0.148 OA 
HETATM    6  O   UNL     2     -13.742   9.084  72.947  1.00  0.00    -0.365 OA 
HETATM    7  O   UNL     2     -13.329   7.400  71.538  1.00  0.00    -0.370 OA 
ENDROOT
BRANCH   2   8
HETATM    8  C   UNL     2     -10.495   8.586  72.173  1.00  0.00    -0.342 C  
HETATM    9  H   UNL     2     -10.145   7.329  73.634  1.00  0.00     0.000 HD 
HETATM   10  O   UNL     2     -10.928   7.725  73.272  1.00  0.00    -0.382 OA 
BRANCH   8  11
HETATM   11  C   UNL     2      -9.574   7.706  71.276  1.00  0.00    -0.157 C  
HETATM   12  H   UNL     2      -8.527   6.088  71.557  1.00  0.00     0.000 HD 
HETATM   13  O   UNL     2      -9.088   6.625  72.105  1.00  0.00    -0.139 OA 
BRANCH  11  14
HETATM   14  C   UNL     2      -8.380   8.357  70.563  1.00  0.00    -0.126 C  
HETATM   15  C   UNL     2      -8.303   8.207  69.047  1.00  0.00    -0.128 C  
HETATM   16  O   UNL     2      -8.214   9.743  70.946  1.00  0.00    -0.377 OA 
HETATM   17  H   UNL     2      -7.475  10.146  70.505  1.00  0.00     0.000 HD 
HETATM   18  O   UNL     2      -9.152   7.540  68.387  1.00  0.00    -0.134 OA 
HETATM   19  O   UNL     2      -7.171   8.350  68.461  1.00  0.00    -0.078 OA 
ENDBRANCH  11  14
ENDBRANCH   8  11
ENDBRANCH   2   8
TORSDOF 3
ENDMDL
MODEL      211
REMARK 921   NORMALIZED FREE ENERGY PREDICTED BY IDOCK:   -3.18 KCAL/MOL
REMARK 922        TOTAL FREE ENERGY PREDICTED BY IDOCK:   -4.21 KCAL/MOL
REMARK 923 INTER-LIGAND FREE ENERGY PREDICTED BY IDOCK:   -4.71 KCAL/MOL
REMARK 924 INTRA-LIGAND FREE ENERGY PREDICTED BY IDOCK:    0.49 KCAL/MOL
REMARK 927      BINDING AFFINITY PREDICTED BY RF-SCORE:    0.00 PKD
ROOT
HETATM    1 CA   UNL     1      -8.904   7.753  68.846  1.00  0.00    -0.126 Ca 
HETATM    2  C   UNL     2     -10.042   6.749  72.675  1.00  0.00    -0.174 C  
HETATM    3  H   UNL     2     -11.811   5.927  73.075  1.00  0.00     0.000 HD 
HETATM    4  C   UNL     2      -8.960   6.564  71.603  1.00  0.00    -0.143 C  
HETATM    5  O   UNL     2     -11.141   5.812  72.412  1.00  0.00    -0.253 OA 
HETATM    6  O   UNL     2      -7.759   6.629  71.925  1.00  0.00    -0.095 OA 
HETATM    7  O   UNL     2      -9.368   6.437  70.386  1.00  0.00    -0.160 OA 
ENDROOT
BRANCH   2   8
HETATM    8  C   UNL     2     -10.681   8.146  72.664  1.00  0.00    -0.351 C  
HETATM    9  H   UNL     2     -10.164   9.885  71.925  1.00  0.00     0.000 HD 
HETATM   10  O   UNL     2      -9.768   9.022  71.932  1.00  0.00    -0.299 OA 
BRANCH   8  11
HETATM   11  C   UNL     2     -12.087   8.361  72.027  1.00  0.00    -0.356 C  
HETATM   12  H   UNL     2     -12.741   8.635  70.213  1.00  0.00     0.000 HD 
HETATM   13  O   UNL     2     -11.884   8.504  70.602  1.00  0.00    -0.227 OA 
BRANCH  11  14
HETATM   14  C   UNL     2     -12.963   9.521  72.521  1.00  0.00    -0.214 C  
HETATM   15  C   UNL     2     -12.991  10.788  71.670  1.00  0.00    -0.476 C  
HETATM   16  O   UNL     2     -14.308   9.086  72.830  1.00  0.00    -1.047 OA 
HETATM   17  H   UNL     2     -14.851   9.804  73.136  1.00  0.00     0.000 HD 
HETATM   18  O   UNL     2     -12.295  10.917  70.622  1.00  0.00    -0.315 OA 
HETATM   19  O   UNL     2     -13.345  11.895  72.211  1.00  0.00    -0.471 OA 
ENDBRANCH  11  14
ENDBRANCH   8  11
ENDBRANCH   2   8
TORSDOF 3
ENDMDL
MODEL      212
REMARK 921   NORMALIZED FREE ENERGY PREDICTED BY IDOCK:   -3.18 KCAL/MOL
REMARK 922        TOTAL FREE ENERGY PREDICTED BY IDOCK:   -4.21 KCAL/MOL
REMARK 923 INTER-LIGAND FREE ENERGY PREDICTED BY IDOCK:   -3.61 KCAL/MOL
REMARK 924 INTRA-LIGAND FREE ENERGY PREDICTED BY IDOCK:   -0.60 KCAL/MOL
REMARK 927      BINDING AFFINITY PREDICTED BY RF-SCORE:    0.00 PKD
ROOT
HETATM    1 CA   UNL     1      -9.938   6.237  68.987  1.00  0.00    -0.133 Ca 
HETATM    2  C   UNL     2      -7.941   6.538  72.576  1.00  0.00    -0.104 C  
HETATM    3  H   UNL     2      -8.735   5.904  74.289  1.00  0.00     0.000 HD 
HETATM    4  C   UNL     2      -7.857   6.007  71.139  1.00  0.00    -0.111 C  
HETATM    5  O   UNL     2      -8.682   5.575  73.399  1.00  0.00    -0.116 OA 
HETATM    6  O   UNL     2      -6.807   6.164  70.487  1.00  0.00    -0.051 OA 
HETATM    7  O   UNL     2      -8.934   5.495  70.648  1.00  0.00    -0.140 OA 
ENDROOT
BRANCH   2   8
HETATM    8  C   UNL     2      -8.713   7.862  72.696  1.00  0.00    -0.167 C  
HETATM    9  H   UNL     2      -8.226   9.752  72.535  1.00  0.00     0.000 HD 
HETATM   10  O   UNL     2      -7.749   8.935  72.461  1.00  0.00    -0.362 OA 
BRANCH   8  11
HETATM   11  C   UNL     2      -9.919   8.154  71.752  1.00  0.00    -0.201 C  
HETATM   12  H   UNL     2     -10.563   9.726  70.801  1.00  0.00     0.000 HD 
HETATM   13  O   UNL     2      -9.829   9.548  71.376  1.00  0.00    -0.200 OA 
BRANCH  11  14
HETATM   14  C   UNL     2     -11.343   7.866  72.247  1.00  0.00    -0.337 C  
HETATM   15  C   UNL     2     -12.256   7.065  71.323  1.00  0.00    -0.377 C  
HETATM   16  O   UNL     2     -11.348   7.303  73.580  1.00  0.00    -0.542 OA 
HETATM   17  H   UNL     2     -12.229   7.125  73.886  1.00  0.00     0.000 HD 
HETATM   18  O   UNL     2     -11.891   6.681  70.174  1.00  0.00    -0.389 OA 
HETATM   19  O   UNL     2     -13.527   7.148  71.476  1.00  0.00    -0.383 OA 
ENDBRANCH  11  14
ENDBRANCH   8  11
ENDBRANCH   2   8
TORSDOF 3
ENDMDL
MODEL      213
REMARK 921   NORMALIZED FREE ENERGY PREDICTED BY IDOCK:   -3.18 KCAL/MOL
REMARK 922        TOTAL FREE ENERGY PREDICTED BY IDOCK:   -4.21 KCAL/MOL
REMARK 923 INTER-LIGAND FREE ENERGY PREDICTED BY IDOCK:   -3.86 KCAL/MOL
REMARK 924 INTRA-LIGAND FREE ENERGY PREDICTED BY IDOCK:   -0.35 KCAL/MOL
REMARK 927      BINDING AFFINITY PREDICTED BY RF-SCORE:    0.00 PKD
ROOT
HETATM    1 CA   UNL     1     -11.285   6.293  65.770  1.00  0.00    -0.466 Ca 
HETATM    2  C   UNL     2      -8.950   9.406  67.120  1.00  0.00    -0.130 C  
HETATM    3  H   UNL     2      -9.161  10.178  68.943  1.00  0.00     0.000 HD 
HETATM    4  C   UNL     2      -8.927   7.994  66.519  1.00  0.00    -0.157 C  
HETATM    5  O   UNL     2      -9.147   9.304  68.571  1.00  0.00    -0.132 OA 
HETATM    6  O   UNL     2      -8.130   7.731  65.599  1.00  0.00    -0.113 OA 
HETATM    7  O   UNL     2      -9.816   7.166  66.952  1.00  0.00    -0.181 OA 
ENDROOT
BRANCH   2   8
HETATM    8  C   UNL     2     -10.112  10.270  66.607  1.00  0.00    -0.223 C  
HETATM    9  H   UNL     2     -11.875  10.756  67.310  1.00  0.00     0.000 HD 
HETATM   10  O   UNL     2     -11.157  10.221  67.627  1.00  0.00    -0.306 OA 
BRANCH   8  11
HETATM   11  C   UNL     2      -9.887  11.780  66.294  1.00  0.00    -0.221 C  
HETATM   12  H   UNL     2      -8.637  13.137  66.917  1.00  0.00     0.000 HD 
HETATM   13  O   UNL     2      -8.774  12.216  67.108  1.00  0.00    -0.176 OA 
BRANCH  11  14
HETATM   14  C   UNL     2     -11.051  12.764  66.479  1.00  0.00    -0.286 C  
HETATM   15  C   UNL     2     -10.845  14.193  65.983  1.00  0.00    -0.297 C  
HETATM   16  O   UNL     2     -12.297  12.227  65.976  1.00  0.00    -0.609 OA 
HETATM   17  H   UNL     2     -13.017  12.836  66.090  1.00  0.00     0.000 HD 
HETATM   18  O   UNL     2      -9.753  14.585  65.478  1.00  0.00    -0.308 OA 
HETATM   19  O   UNL     2     -11.574  15.132  66.464  1.00  0.00    -0.252 OA 
ENDBRANCH  11  14
ENDBRANCH   8  11
ENDBRANCH   2   8
TORSDOF 3
ENDMDL
MODEL      214
REMARK 921   NORMALIZED FREE ENERGY PREDICTED BY IDOCK:   -3.18 KCAL/MOL
REMARK 922        TOTAL FREE ENERGY PREDICTED BY IDOCK:   -4.21 KCAL/MOL
REMARK 923 INTER-LIGAND FREE ENERGY PREDICTED BY IDOCK:   -3.43 KCAL/MOL
REMARK 924 INTRA-LIGAND FREE ENERGY PREDICTED BY IDOCK:   -0.77 KCAL/MOL
REMARK 927      BINDING AFFINITY PREDICTED BY RF-SCORE:    0.00 PKD
ROOT
HETATM    1 CA   UNL     1     -13.630   5.798  72.950  1.00  0.00    -0.561 Ca 
HETATM    2  C   UNL     2     -10.745   7.655  70.671  1.00  0.00    -0.231 C  
HETATM    3  H   UNL     2     -10.264   7.021  68.846  1.00  0.00     0.000 HD 
HETATM    4  C   UNL     2     -12.047   7.865  71.455  1.00  0.00    -0.307 C  
HETATM    5  O   UNL     2     -11.070   7.152  69.331  1.00  0.00    -0.200 OA 
HETATM    6  O   UNL     2     -12.160   8.854  72.204  1.00  0.00    -0.358 OA 
HETATM    7  O   UNL     2     -12.938   6.938  71.356  1.00  0.00    -0.355 OA 
ENDROOT
BRANCH   2   8
HETATM    8  C   UNL     2      -9.820   6.598  71.294  1.00  0.00    -0.177 C  
HETATM    9  H   UNL     2      -7.888   6.277  71.263  1.00  0.00     0.000 HD 
HETATM   10  O   UNL     2      -8.459   6.931  70.878  1.00  0.00    -0.132 OA 
BRANCH   8  11
HETATM   11  C   UNL     2      -9.764   6.419  72.842  1.00  0.00    -0.157 C  
HETATM   12  H   UNL     2      -8.805   7.301  74.289  1.00  0.00     0.000 HD 
HETATM   13  O   UNL     2      -8.839   7.410  73.345  1.00  0.00    -0.138 OA 
BRANCH  11  14
HETATM   14  C   UNL     2      -9.388   5.050  73.424  1.00  0.00    -0.136 C  
HETATM   15  C   UNL     2     -10.527   4.077  73.715  1.00  0.00    -0.195 C  
HETATM   16  O   UNL     2      -8.351   4.401  72.650  1.00  0.00    -0.103 OA 
HETATM   17  H   UNL     2      -8.118   3.553  73.011  1.00  0.00     0.000 HD 
HETATM   18  O   UNL     2     -11.742   4.380  73.535  1.00  0.00    -0.225 OA 
HETATM   19  O   UNL     2     -10.337   3.127  74.556  1.00  0.00    -0.159 OA 
ENDBRANCH  11  14
ENDBRANCH   8  11
ENDBRANCH   2   8
TORSDOF 3
ENDMDL
MODEL      215
REMARK 921   NORMALIZED FREE ENERGY PREDICTED BY IDOCK:   -3.17 KCAL/MOL
REMARK 922        TOTAL FREE ENERGY PREDICTED BY IDOCK:   -4.21 KCAL/MOL
REMARK 923 INTER-LIGAND FREE ENERGY PREDICTED BY IDOCK:   -4.20 KCAL/MOL
REMARK 924 INTRA-LIGAND FREE ENERGY PREDICTED BY IDOCK:   -0.01 KCAL/MOL
REMARK 927      BINDING AFFINITY PREDICTED BY RF-SCORE:    0.00 PKD
ROOT
HETATM    1 CA   UNL     1      -6.205  18.854  70.030  1.00  0.00    -0.226 Ca 
HETATM    2  C   UNL     2      -9.310  18.398  67.362  1.00  0.00    -0.272 C  
HETATM    3  H   UNL     2     -11.203  18.235  67.955  1.00  0.00     0.000 HD 
HETATM    4  C   UNL     2      -8.108  19.272  67.745  1.00  0.00    -0.286 C  
HETATM    5  O   UNL     2     -10.459  18.776  68.192  1.00  0.00    -0.369 OA 
HETATM    6  O   UNL     2      -7.340  19.685  66.855  1.00  0.00    -0.216 OA 
HETATM    7  O   UNL     2      -7.908  19.460  69.005  1.00  0.00    -0.357 OA 
ENDROOT
BRANCH   2   8
HETATM    8  C   UNL     2      -9.086  16.901  67.626  1.00  0.00    -0.223 C  
HETATM    9  H   UNL     2      -7.558  15.689  67.439  1.00  0.00     0.000 HD 
HETATM   10  O   UNL     2      -7.696  16.614  67.276  1.00  0.00    -0.150 OA 
BRANCH   8  11
HETATM   11  C   UNL     2      -9.298  16.316  69.055  1.00  0.00    -0.254 C  
HETATM   12  H   UNL     2      -8.232  15.215  70.256  1.00  0.00     0.000 HD 
HETATM   13  O   UNL     2      -8.103  15.571  69.385  1.00  0.00    -0.232 OA 
BRANCH  11  14
HETATM   14  C   UNL     2     -10.523  15.433  69.328  1.00  0.00    -0.251 C  
HETATM   15  C   UNL     2     -10.718  14.212  68.434  1.00  0.00    -0.256 C  
HETATM   16  O   UNL     2     -10.621  15.062  70.723  1.00  0.00    -0.532 OA 
HETATM   17  H   UNL     2     -11.379  14.515  70.892  1.00  0.00     0.000 HD 
HETATM   18  O   UNL     2      -9.941  13.943  67.473  1.00  0.00    -0.234 OA 
HETATM   19  O   UNL     2     -11.887  13.693  68.331  1.00  0.00    -0.339 OA 
ENDBRANCH  11  14
ENDBRANCH   8  11
ENDBRANCH   2   8
TORSDOF 3
ENDMDL
MODEL      216
REMARK 921   NORMALIZED FREE ENERGY PREDICTED BY IDOCK:   -3.17 KCAL/MOL
REMARK 922        TOTAL FREE ENERGY PREDICTED BY IDOCK:   -4.20 KCAL/MOL
REMARK 923 INTER-LIGAND FREE ENERGY PREDICTED BY IDOCK:   -3.76 KCAL/MOL
REMARK 924 INTRA-LIGAND FREE ENERGY PREDICTED BY IDOCK:   -0.44 KCAL/MOL
REMARK 927      BINDING AFFINITY PREDICTED BY RF-SCORE:    0.00 PKD
ROOT
HETATM    1 CA   UNL     1     -11.936   5.321  65.204  1.00  0.00    -0.747 Ca 
HETATM    2  C   UNL     2      -9.450   7.996  67.109  1.00  0.00    -0.162 C  
HETATM    3  H   UNL     2      -9.838   8.691  68.934  1.00  0.00     0.000 HD 
HETATM    4  C   UNL     2      -9.519   6.629  66.414  1.00  0.00    -0.123 C  
HETATM    5  O   UNL     2      -9.880   7.845  68.504  1.00  0.00    -0.167 OA 
HETATM    6  O   UNL     2      -8.630   6.306  65.604  1.00  0.00    -0.149 OA 
HETATM    7  O   UNL     2     -10.566   5.913  66.650  1.00  0.00    -0.263 OA 
ENDROOT
BRANCH   2   8
HETATM    8  C   UNL     2     -10.394   9.042  66.497  1.00  0.00    -0.193 C  
HETATM    9  H   UNL     2     -11.630  10.371  67.234  1.00  0.00     0.000 HD 
HETATM   10  O   UNL     2     -11.047   9.724  67.613  1.00  0.00    -0.244 OA 
BRANCH   8  11
HETATM   11  C   UNL     2      -9.829  10.166  65.577  1.00  0.00    -0.298 C  
HETATM   12  H   UNL     2      -8.329  10.301  64.343  1.00  0.00     0.000 HD 
HETATM   13  O   UNL     2      -8.673   9.616  64.904  1.00  0.00    -0.156 OA 
BRANCH  11  14
HETATM   14  C   UNL     2      -9.445  11.517  66.196  1.00  0.00    -0.220 C  
HETATM   15  C   UNL     2     -10.493  12.625  66.163  1.00  0.00    -0.258 C  
HETATM   16  O   UNL     2      -8.908  11.365  67.531  1.00  0.00    -0.142 OA 
HETATM   17  H   UNL     2      -8.670  12.202  67.915  1.00  0.00     0.000 HD 
HETATM   18  O   UNL     2     -11.623  12.475  65.613  1.00  0.00    -0.350 OA 
HETATM   19  O   UNL     2     -10.115  13.846  66.271  1.00  0.00    -0.283 OA 
ENDBRANCH  11  14
ENDBRANCH   8  11
ENDBRANCH   2   8
TORSDOF 3
ENDMDL
MODEL      217
REMARK 921   NORMALIZED FREE ENERGY PREDICTED BY IDOCK:   -3.16 KCAL/MOL
REMARK 922        TOTAL FREE ENERGY PREDICTED BY IDOCK:   -4.19 KCAL/MOL
REMARK 923 INTER-LIGAND FREE ENERGY PREDICTED BY IDOCK:   -3.90 KCAL/MOL
REMARK 924 INTRA-LIGAND FREE ENERGY PREDICTED BY IDOCK:   -0.29 KCAL/MOL
REMARK 927      BINDING AFFINITY PREDICTED BY RF-SCORE:    0.00 PKD
ROOT
HETATM    1 CA   UNL     1     -13.632  10.871  71.380  1.00  0.00    -0.345 Ca 
HETATM    2  C   UNL     2     -11.617   7.301  71.776  1.00  0.00    -0.275 C  
HETATM    3  H   UNL     2     -10.122   7.064  73.069  1.00  0.00     0.000 HD 
HETATM    4  C   UNL     2     -12.999   7.966  71.803  1.00  0.00    -0.325 C  
HETATM    5  O   UNL     2     -10.977   7.476  73.085  1.00  0.00    -0.376 OA 
HETATM    6  O   UNL     2     -13.957   7.418  71.225  1.00  0.00    -0.376 OA 
HETATM    7  O   UNL     2     -13.072   9.127  72.361  1.00  0.00    -0.420 OA 
ENDROOT
BRANCH   2   8
HETATM    8  C   UNL     2     -10.654   7.932  70.759  1.00  0.00    -0.214 C  
HETATM    9  H   UNL     2      -9.453   9.480  70.786  1.00  0.00     0.000 HD 
HETATM   10  O   UNL     2     -10.048   9.090  71.414  1.00  0.00    -0.279 OA 
BRANCH   8  11
HETATM   11  C   UNL     2      -9.471   7.100  70.178  1.00  0.00    -0.161 C  
HETATM   12  H   UNL     2      -7.968   7.492  69.004  1.00  0.00     0.000 HD 
HETATM   13  O   UNL     2      -8.689   7.999  69.358  1.00  0.00    -0.135 OA 
BRANCH  11  14
HETATM   14  C   UNL     2      -9.775   5.831  69.370  1.00  0.00    -0.155 C  
HETATM   15  C   UNL     2      -9.807   4.508  70.131  1.00  0.00    -0.226 C  
HETATM   16  O   UNL     2     -10.964   5.979  68.558  1.00  0.00    -0.296 OA 
HETATM   17  H   UNL     2     -11.152   5.194  68.058  1.00  0.00     0.000 HD 
HETATM   18  O   UNL     2      -9.553   4.430  71.368  1.00  0.00    -0.145 OA 
HETATM   19  O   UNL     2      -9.640   3.412  69.486  1.00  0.00    -0.169 OA 
ENDBRANCH  11  14
ENDBRANCH   8  11
ENDBRANCH   2   8
TORSDOF 3
ENDMDL
MODEL      218
REMARK 921   NORMALIZED FREE ENERGY PREDICTED BY IDOCK:   -3.16 KCAL/MOL
REMARK 922        TOTAL FREE ENERGY PREDICTED BY IDOCK:   -4.19 KCAL/MOL
REMARK 923 INTER-LIGAND FREE ENERGY PREDICTED BY IDOCK:   -3.91 KCAL/MOL
REMARK 924 INTRA-LIGAND FREE ENERGY PREDICTED BY IDOCK:   -0.28 KCAL/MOL
REMARK 927      BINDING AFFINITY PREDICTED BY RF-SCORE:    0.00 PKD
ROOT
HETATM    1 CA   UNL     1     -10.283  19.929  69.061  1.00  0.00    -0.355 Ca 
HETATM    2  C   UNL     2      -9.665  17.448  65.832  1.00  0.00    -0.064 C  
HETATM    3  H   UNL     2     -11.171  16.684  64.777  1.00  0.00     0.000 HD 
HETATM    4  C   UNL     2      -9.330  18.816  66.440  1.00  0.00    -0.312 C  
HETATM    5  O   UNL     2     -10.963  17.531  65.153  1.00  0.00    -0.621 OA 
HETATM    6  O   UNL     2      -8.157  19.233  66.405  1.00  0.00    -0.291 OA 
HETATM    7  O   UNL     2     -10.290  19.431  67.043  1.00  0.00    -0.378 OA 
ENDROOT
BRANCH   2   8
HETATM    8  C   UNL     2      -9.819  16.334  66.880  1.00  0.00    -0.247 C  
HETATM    9  H   UNL     2     -11.208  15.013  67.283  1.00  0.00     0.000 HD 
HETATM   10  O   UNL     2     -11.113  15.701  66.635  1.00  0.00    -0.270 OA 
BRANCH   8  11
HETATM   11  C   UNL     2      -8.780  15.175  66.951  1.00  0.00    -0.259 C  
HETATM   12  H   UNL     2      -8.664  13.391  66.179  1.00  0.00     0.000 HD 
HETATM   13  O   UNL     2      -9.297  14.097  66.137  1.00  0.00    -0.237 OA 
BRANCH  11  14
HETATM   14  C   UNL     2      -8.380  14.611  68.321  1.00  0.00    -0.148 C  
HETATM   15  C   UNL     2      -6.920  14.211  68.514  1.00  0.00    -0.104 C  
HETATM   16  O   UNL     2      -8.821  15.463  69.405  1.00  0.00    -0.245 OA 
HETATM   17  H   UNL     2      -8.573  15.114  70.253  1.00  0.00     0.000 HD 
HETATM   18  O   UNL     2      -6.066  14.289  67.584  1.00  0.00    -0.271 OA 
HETATM   19  O   UNL     2      -6.618  13.378  69.442  1.00  0.00    -0.108 OA 
ENDBRANCH  11  14
ENDBRANCH   8  11
ENDBRANCH   2   8
TORSDOF 3
ENDMDL
MODEL      219
REMARK 921   NORMALIZED FREE ENERGY PREDICTED BY IDOCK:   -3.16 KCAL/MOL
REMARK 922        TOTAL FREE ENERGY PREDICTED BY IDOCK:   -4.18 KCAL/MOL
REMARK 923 INTER-LIGAND FREE ENERGY PREDICTED BY IDOCK:   -4.25 KCAL/MOL
REMARK 924 INTRA-LIGAND FREE ENERGY PREDICTED BY IDOCK:    0.06 KCAL/MOL
REMARK 927      BINDING AFFINITY PREDICTED BY RF-SCORE:    0.00 PKD
ROOT
HETATM    1 CA   UNL     1      -8.369  11.372  63.838  1.00  0.00    -0.357 Ca 
HETATM    2  C   UNL     2     -11.264  12.814  66.388  1.00  0.00    -0.299 C  
HETATM    3  H   UNL     2     -13.039  13.437  65.735  1.00  0.00     0.000 HD 
HETATM    4  C   UNL     2     -10.337  11.628  66.091  1.00  0.00    -0.241 C  
HETATM    5  O   UNL     2     -12.465  12.702  65.552  1.00  0.00    -0.622 OA 
HETATM    6  O   UNL     2      -9.717  11.084  67.025  1.00  0.00    -0.179 OA 
HETATM    7  O   UNL     2     -10.183  11.310  64.850  1.00  0.00    -0.251 OA 
ENDROOT
BRANCH   2   8
HETATM    8  C   UNL     2     -10.645  14.176  66.040  1.00  0.00    -0.297 C  
HETATM    9  H   UNL     2     -11.121  15.625  64.810  1.00  0.00     0.000 HD 
HETATM   10  O   UNL     2     -11.504  14.783  65.025  1.00  0.00    -0.361 OA 
BRANCH   8  11
HETATM   11  C   UNL     2     -10.457  15.258  67.146  1.00  0.00    -0.280 C  
HETATM   12  H   UNL     2      -9.256  16.771  67.393  1.00  0.00     0.000 HD 
HETATM   13  O   UNL     2      -9.370  16.111  66.719  1.00  0.00    -0.214 OA 
BRANCH  11  14
HETATM   14  C   UNL     2     -10.196  14.812  68.592  1.00  0.00    -0.236 C  
HETATM   15  C   UNL     2     -11.373  14.224  69.365  1.00  0.00    -0.282 C  
HETATM   16  O   UNL     2      -9.040  13.948  68.690  1.00  0.00    -0.293 OA 
HETATM   17  H   UNL     2      -8.879  13.672  69.585  1.00  0.00     0.000 HD 
HETATM   18  O   UNL     2     -12.535  14.138  68.872  1.00  0.00    -0.191 OA 
HETATM   19  O   UNL     2     -11.341  14.225  70.648  1.00  0.00    -0.144 OA 
ENDBRANCH  11  14
ENDBRANCH   8  11
ENDBRANCH   2   8
TORSDOF 3
ENDMDL
MODEL      220
REMARK 921   NORMALIZED FREE ENERGY PREDICTED BY IDOCK:   -3.13 KCAL/MOL
REMARK 922        TOTAL FREE ENERGY PREDICTED BY IDOCK:   -4.16 KCAL/MOL
REMARK 923 INTER-LIGAND FREE ENERGY PREDICTED BY IDOCK:   -4.53 KCAL/MOL
REMARK 924 INTRA-LIGAND FREE ENERGY PREDICTED BY IDOCK:    0.38 KCAL/MOL
REMARK 927      BINDING AFFINITY PREDICTED BY RF-SCORE:    0.00 PKD
ROOT
HETATM    1 CA   UNL     1     -13.989   9.627  71.638  1.00  0.00    -0.352 Ca 
HETATM    2  C   UNL     2     -10.148   8.791  70.408  1.00  0.00    -0.192 C  
HETATM    3  H   UNL     2      -8.570   9.783  71.107  1.00  0.00     0.000 HD 
HETATM    4  C   UNL     2     -11.426   8.193  71.009  1.00  0.00    -0.279 C  
HETATM    5  O   UNL     2      -9.361   9.413  71.480  1.00  0.00    -0.271 OA 
HETATM    6  O   UNL     2     -11.851   7.100  70.588  1.00  0.00    -0.321 OA 
HETATM    7  O   UNL     2     -12.051   8.915  71.877  1.00  0.00    -0.325 OA 
ENDROOT
BRANCH   2   8
HETATM    8  C   UNL     2     -10.416   9.911  69.391  1.00  0.00    -0.231 C  
HETATM    9  H   UNL     2     -11.029   9.956  67.531  1.00  0.00     0.000 HD 
HETATM   10  O   UNL     2     -10.863   9.264  68.159  1.00  0.00    -0.188 OA 
BRANCH   8  11
HETATM   11  C   UNL     2     -11.469  11.017  69.702  1.00  0.00    -0.303 C  
HETATM   12  H   UNL     2     -13.350  11.277  69.270  1.00  0.00     0.000 HD 
HETATM   13  O   UNL     2     -12.708  10.604  69.081  1.00  0.00    -0.160 OA 
BRANCH  11  14
HETATM   14  C   UNL     2     -11.173  12.468  69.297  1.00  0.00    -0.194 C  
HETATM   15  C   UNL     2     -11.554  12.891  67.882  1.00  0.00    -0.345 C  
HETATM   16  O   UNL     2     -11.684  13.413  70.266  1.00  0.00    -0.490 OA 
HETATM   17  H   UNL     2     -11.501  14.311  70.015  1.00  0.00     0.000 HD 
HETATM   18  O   UNL     2     -12.054  12.085  67.044  1.00  0.00    -0.603 OA 
HETATM   19  O   UNL     2     -10.979  13.910  67.358  1.00  0.00    -0.280 OA 
ENDBRANCH  11  14
ENDBRANCH   8  11
ENDBRANCH   2   8
TORSDOF 3
ENDMDL
MODEL      221
REMARK 921   NORMALIZED FREE ENERGY PREDICTED BY IDOCK:   -3.13 KCAL/MOL
REMARK 922        TOTAL FREE ENERGY PREDICTED BY IDOCK:   -4.15 KCAL/MOL
REMARK 923 INTER-LIGAND FREE ENERGY PREDICTED BY IDOCK:   -3.65 KCAL/MOL
REMARK 924 INTRA-LIGAND FREE ENERGY PREDICTED BY IDOCK:   -0.50 KCAL/MOL
REMARK 927      BINDING AFFINITY PREDICTED BY RF-SCORE:    0.00 PKD
ROOT
HETATM    1 CA   UNL     1      -8.360  11.828  67.043  1.00  0.00    -0.126 Ca 
HETATM    2  C   UNL     2     -11.553  13.698  68.852  1.00  0.00    -0.322 C  
HETATM    3  H   UNL     2     -11.335  14.855  70.458  1.00  0.00     0.000 HD 
HETATM    4  C   UNL     2     -10.805  13.503  67.527  1.00  0.00    -0.264 C  
HETATM    5  O   UNL     2     -10.873  14.734  69.637  1.00  0.00    -0.254 OA 
HETATM    6  O   UNL     2     -11.451  13.307  66.480  1.00  0.00    -0.311 OA 
HETATM    7  O   UNL     2      -9.517  13.466  67.590  1.00  0.00    -0.203 OA 
ENDROOT
BRANCH   2   8
HETATM    8  C   UNL     2     -11.559  12.445  69.741  1.00  0.00    -0.232 C  
HETATM    9  H   UNL     2     -12.620  11.862  71.282  1.00  0.00     0.000 HD 
HETATM   10  O   UNL     2     -12.617  12.637  70.732  1.00  0.00    -0.306 OA 
BRANCH   8  11
HETATM   11  C   UNL     2     -11.807  11.040  69.115  1.00  0.00    -0.337 C  
HETATM   12  H   UNL     2     -13.159   9.657  69.344  1.00  0.00     0.000 HD 
HETATM   13  O   UNL     2     -13.008  10.514  69.726  1.00  0.00    -0.106 OA 
BRANCH  11  14
HETATM   14  C   UNL     2     -10.703   9.977  69.200  1.00  0.00    -0.220 C  
HETATM   15  C   UNL     2     -10.168   9.418  67.884  1.00  0.00    -0.211 C  
HETATM   16  O   UNL     2      -9.613  10.399  70.053  1.00  0.00    -0.403 OA 
HETATM   17  H   UNL     2      -8.929   9.741  70.106  1.00  0.00     0.000 HD 
HETATM   18  O   UNL     2     -10.630   9.768  66.760  1.00  0.00    -0.206 OA 
HETATM   19  O   UNL     2      -9.578   8.279  67.884  1.00  0.00    -0.147 OA 
ENDBRANCH  11  14
ENDBRANCH   8  11
ENDBRANCH   2   8
TORSDOF 3
ENDMDL
MODEL      222
REMARK 921   NORMALIZED FREE ENERGY PREDICTED BY IDOCK:   -3.13 KCAL/MOL
REMARK 922        TOTAL FREE ENERGY PREDICTED BY IDOCK:   -4.15 KCAL/MOL
REMARK 923 INTER-LIGAND FREE ENERGY PREDICTED BY IDOCK:   -3.67 KCAL/MOL
REMARK 924 INTRA-LIGAND FREE ENERGY PREDICTED BY IDOCK:   -0.48 KCAL/MOL
REMARK 927      BINDING AFFINITY PREDICTED BY RF-SCORE:    0.00 PKD
ROOT
HETATM    1 CA   UNL     1      -8.247   5.077  67.468  1.00  0.00    -0.098 Ca 
HETATM    2  C   UNL     2     -10.344   8.613  67.711  1.00  0.00    -0.242 C  
HETATM    3  H   UNL     2      -9.481  10.382  67.409  1.00  0.00     0.000 HD 
HETATM    4  C   UNL     2     -10.291   7.234  67.040  1.00  0.00    -0.306 C  
HETATM    5  O   UNL     2      -9.449   9.528  66.994  1.00  0.00    -0.146 OA 
HETATM    6  O   UNL     2     -11.336   6.566  66.924  1.00  0.00    -0.330 OA 
HETATM    7  O   UNL     2      -9.124   6.799  66.704  1.00  0.00    -0.136 OA 
ENDROOT
BRANCH   2   8
HETATM    8  C   UNL     2      -9.848   8.605  69.165  1.00  0.00    -0.185 C  
HETATM    9  H   UNL     2      -8.397   9.508  70.123  1.00  0.00     0.000 HD 
HETATM   10  O   UNL     2      -8.704   9.513  69.224  1.00  0.00    -0.134 OA 
BRANCH   8  11
HETATM   11  C   UNL     2     -10.800   9.038  70.321  1.00  0.00    -0.238 C  
HETATM   12  H   UNL     2     -11.555  10.733  70.912  1.00  0.00     0.000 HD 
HETATM   13  O   UNL     2     -10.974  10.469  70.207  1.00  0.00    -0.292 OA 
BRANCH  11  14
HETATM   14  C   UNL     2     -10.420   8.699  71.769  1.00  0.00    -0.324 C  
HETATM   15  C   UNL     2     -10.757   7.297  72.270  1.00  0.00    -0.231 C  
HETATM   16  O   UNL     2      -9.039   9.023  72.055  1.00  0.00    -0.375 OA 
HETATM   17  H   UNL     2      -8.804   8.813  72.951  1.00  0.00     0.000 HD 
HETATM   18  O   UNL     2     -11.363   6.448  71.555  1.00  0.00    -0.270 OA 
HETATM   19  O   UNL     2     -10.852   7.092  73.533  1.00  0.00    -0.361 OA 
ENDBRANCH  11  14
ENDBRANCH   8  11
ENDBRANCH   2   8
TORSDOF 3
ENDMDL
MODEL      223
REMARK 921   NORMALIZED FREE ENERGY PREDICTED BY IDOCK:   -3.12 KCAL/MOL
REMARK 922        TOTAL FREE ENERGY PREDICTED BY IDOCK:   -4.14 KCAL/MOL
REMARK 923 INTER-LIGAND FREE ENERGY PREDICTED BY IDOCK:   -4.98 KCAL/MOL
REMARK 924 INTRA-LIGAND FREE ENERGY PREDICTED BY IDOCK:    0.84 KCAL/MOL
REMARK 927      BINDING AFFINITY PREDICTED BY RF-SCORE:    0.00 PKD
ROOT
HETATM    1 CA   UNL     1     -10.306  13.958  68.443  1.00  0.00    -0.201 Ca 
HETATM    2  C   UNL     2      -8.347  17.572  68.194  1.00  0.00    -0.249 C  
HETATM    3  H   UNL     2      -9.284  19.308  68.463  1.00  0.00     0.000 HD 
HETATM    4  C   UNL     2      -8.356  16.200  68.879  1.00  0.00    -0.233 C  
HETATM    5  O   UNL     2      -9.289  18.458  68.887  1.00  0.00    -0.293 OA 
HETATM    6  O   UNL     2      -7.287  15.575  69.018  1.00  0.00    -0.135 OA 
HETATM    7  O   UNL     2      -9.510  15.722  69.201  1.00  0.00    -0.220 OA 
ENDROOT
BRANCH   2   8
HETATM    8  C   UNL     2      -8.819  17.530  66.733  1.00  0.00    -0.256 C  
HETATM    9  H   UNL     2      -8.353  16.442  65.172  1.00  0.00     0.000 HD 
HETATM   10  O   UNL     2      -8.060  16.468  66.075  1.00  0.00    -0.301 OA 
BRANCH   8  11
HETATM   11  C   UNL     2     -10.317  17.256  66.401  1.00  0.00    -0.316 C  
HETATM   12  H   UNL     2     -12.000  17.520  67.345  1.00  0.00     0.000 HD 
HETATM   13  O   UNL     2     -11.087  17.687  67.547  1.00  0.00    -0.182 OA 
BRANCH  11  14
HETATM   14  C   UNL     2     -10.751  15.834  66.019  1.00  0.00    -0.306 C  
HETATM   15  C   UNL     2     -11.399  15.644  64.650  1.00  0.00    -0.349 C  
HETATM   16  O   UNL     2      -9.687  14.874  66.215  1.00  0.00    -0.262 OA 
HETATM   17  H   UNL     2      -9.956  13.994  65.979  1.00  0.00     0.000 HD 
HETATM   18  O   UNL     2     -11.620  16.610  63.864  1.00  0.00    -1.204 OA 
HETATM   19  O   UNL     2     -12.137  14.615  64.446  1.00  0.00    -0.476 OA 
ENDBRANCH  11  14
ENDBRANCH   8  11
ENDBRANCH   2   8
TORSDOF 3
ENDMDL
MODEL      224
REMARK 921   NORMALIZED FREE ENERGY PREDICTED BY IDOCK:   -3.11 KCAL/MOL
REMARK 922        TOTAL FREE ENERGY PREDICTED BY IDOCK:   -4.13 KCAL/MOL
REMARK 923 INTER-LIGAND FREE ENERGY PREDICTED BY IDOCK:   -3.76 KCAL/MOL
REMARK 924 INTRA-LIGAND FREE ENERGY PREDICTED BY IDOCK:   -0.37 KCAL/MOL
REMARK 927      BINDING AFFINITY PREDICTED BY RF-SCORE:    0.00 PKD
ROOT
HETATM    1 CA   UNL     1      -9.674   5.114  69.844  1.00  0.00    -0.124 Ca 
HETATM    2  C   UNL     2     -10.631   8.589  71.838  1.00  0.00    -0.322 C  
HETATM    3  H   UNL     2     -12.002   8.642  73.280  1.00  0.00     0.000 HD 
HETATM    4  C   UNL     2      -9.485   7.648  71.444  1.00  0.00    -0.148 C  
HETATM    5  O   UNL     2     -11.292   8.060  73.036  1.00  0.00    -0.386 OA 
HETATM    6  O   UNL     2      -8.414   8.127  71.023  1.00  0.00    -0.120 OA 
HETATM    7  O   UNL     2      -9.733   6.383  71.488  1.00  0.00    -0.169 OA 
ENDROOT
BRANCH   2   8
HETATM    8  C   UNL     2     -11.732   8.692  70.771  1.00  0.00    -0.210 C  
HETATM    9  H   UNL     2     -13.683   8.863  70.827  1.00  0.00     0.000 HD 
HETATM   10  O   UNL     2     -13.002   8.799  71.486  1.00  0.00    -0.325 OA 
BRANCH   8  11
HETATM   11  C   UNL     2     -11.719   9.861  69.741  1.00  0.00    -0.021 C  
HETATM   12  H   UNL     2     -10.559  10.370  68.262  1.00  0.00     0.000 HD 
HETATM   13  O   UNL     2     -10.567   9.658  68.890  1.00  0.00    -0.209 OA 
BRANCH  11  14
HETATM   14  C   UNL     2     -11.708  11.308  70.251  1.00  0.00    -0.324 C  
HETATM   15  C   UNL     2     -11.872  12.417  69.215  1.00  0.00    -0.304 C  
HETATM   16  O   UNL     2     -12.630  11.500  71.350  1.00  0.00    -0.364 OA 
HETATM   17  H   UNL     2     -12.623  12.396  71.666  1.00  0.00     0.000 HD 
HETATM   18  O   UNL     2     -11.970  12.179  67.976  1.00  0.00    -0.465 OA 
HETATM   19  O   UNL     2     -11.466  13.600  69.497  1.00  0.00    -0.272 OA 
ENDBRANCH  11  14
ENDBRANCH   8  11
ENDBRANCH   2   8
TORSDOF 3
ENDMDL
MODEL      225
REMARK 921   NORMALIZED FREE ENERGY PREDICTED BY IDOCK:   -3.11 KCAL/MOL
REMARK 922        TOTAL FREE ENERGY PREDICTED BY IDOCK:   -4.13 KCAL/MOL
REMARK 923 INTER-LIGAND FREE ENERGY PREDICTED BY IDOCK:   -3.75 KCAL/MOL
REMARK 924 INTRA-LIGAND FREE ENERGY PREDICTED BY IDOCK:   -0.38 KCAL/MOL
REMARK 927      BINDING AFFINITY PREDICTED BY RF-SCORE:    0.00 PKD
ROOT
HETATM    1 CA   UNL     1     -10.359   6.152  67.072  1.00  0.00    -0.130 Ca 
HETATM    2  C   UNL     2      -9.702   6.620  71.111  1.00  0.00    -0.174 C  
HETATM    3  H   UNL     2     -10.375   5.313  72.454  1.00  0.00     0.000 HD 
HETATM    4  C   UNL     2      -9.027   6.536  69.736  1.00  0.00    -0.142 C  
HETATM    5  O   UNL     2      -9.957   5.261  71.603  1.00  0.00    -0.167 OA 
HETATM    6  O   UNL     2      -8.121   7.339  69.446  1.00  0.00    -0.125 OA 
HETATM    7  O   UNL     2      -9.509   5.673  68.907  1.00  0.00    -0.120 OA 
ENDROOT
BRANCH   2   8
HETATM    8  C   UNL     2     -11.075   7.309  71.077  1.00  0.00    -0.258 C  
HETATM    9  H   UNL     2     -12.892   6.772  71.576  1.00  0.00     0.000 HD 
HETATM   10  O   UNL     2     -12.044   6.346  71.597  1.00  0.00    -0.332 OA 
BRANCH   8  11
HETATM   11  C   UNL     2     -11.311   8.628  71.875  1.00  0.00    -0.347 C  
HETATM   12  H   UNL     2     -11.942   9.049  73.668  1.00  0.00     0.000 HD 
HETATM   13  O   UNL     2     -11.799   8.246  73.182  1.00  0.00    -0.190 OA 
BRANCH  11  14
HETATM   14  C   UNL     2     -12.244   9.698  71.292  1.00  0.00    -0.363 C  
HETATM   15  C   UNL     2     -11.728  10.503  70.102  1.00  0.00    -0.326 C  
HETATM   16  O   UNL     2     -13.563   9.172  71.015  1.00  0.00    -0.567 OA 
HETATM   17  H   UNL     2     -14.140   9.835  70.654  1.00  0.00     0.000 HD 
HETATM   18  O   UNL     2     -10.566  10.343  69.627  1.00  0.00    -0.229 OA 
HETATM   19  O   UNL     2     -12.253  11.645  69.846  1.00  0.00    -0.283 OA 
ENDBRANCH  11  14
ENDBRANCH   8  11
ENDBRANCH   2   8
TORSDOF 3
ENDMDL
MODEL      226
REMARK 921   NORMALIZED FREE ENERGY PREDICTED BY IDOCK:   -3.11 KCAL/MOL
REMARK 922        TOTAL FREE ENERGY PREDICTED BY IDOCK:   -4.13 KCAL/MOL
REMARK 923 INTER-LIGAND FREE ENERGY PREDICTED BY IDOCK:   -3.94 KCAL/MOL
REMARK 924 INTRA-LIGAND FREE ENERGY PREDICTED BY IDOCK:   -0.18 KCAL/MOL
REMARK 927      BINDING AFFINITY PREDICTED BY RF-SCORE:    0.00 PKD
ROOT
HETATM    1 CA   UNL     1     -13.027  11.684  64.512  1.00  0.00    -0.294 Ca 
HETATM    2  C   UNL     2     -10.420  13.036  67.399  1.00  0.00    -0.234 C  
HETATM    3  H   UNL     2      -8.487  12.557  67.392  1.00  0.00     0.000 HD 
HETATM    4  C   UNL     2     -11.451  13.464  66.347  1.00  0.00    -0.329 C  
HETATM    5  O   UNL     2      -9.126  12.822  66.741  1.00  0.00    -0.217 OA 
HETATM    6  O   UNL     2     -12.294  14.335  66.631  1.00  0.00    -0.446 OA 
HETATM    7  O   UNL     2     -11.440  12.817  65.230  1.00  0.00    -0.304 OA 
ENDROOT
BRANCH   2   8
HETATM    8  C   UNL     2     -10.760  11.703  68.083  1.00  0.00    -0.213 C  
HETATM    9  H   UNL     2     -12.339  10.545  68.119  1.00  0.00     0.000 HD 
HETATM   10  O   UNL     2     -12.129  11.369  67.697  1.00  0.00    -0.630 OA 
BRANCH   8  11
HETATM   11  C   UNL     2      -9.908  10.431  67.789  1.00  0.00    -0.168 C  
HETATM   12  H   UNL     2     -10.067   8.931  66.557  1.00  0.00     0.000 HD 
HETATM   13  O   UNL     2     -10.586   9.706  66.737  1.00  0.00    -0.209 OA 
BRANCH  11  14
HETATM   14  C   UNL     2      -9.593   9.460  68.935  1.00  0.00    -0.155 C  
HETATM   15  C   UNL     2      -8.309   8.643  68.826  1.00  0.00    -0.121 C  
HETATM   16  O   UNL     2      -9.676  10.106  70.227  1.00  0.00    -0.399 OA 
HETATM   17  H   UNL     2      -9.481   9.505  70.937  1.00  0.00     0.000 HD 
HETATM   18  O   UNL     2      -7.543   8.712  67.821  1.00  0.00    -0.095 OA 
HETATM   19  O   UNL     2      -8.200   7.557  69.501  1.00  0.00    -0.126 OA 
ENDBRANCH  11  14
ENDBRANCH   8  11
ENDBRANCH   2   8
TORSDOF 3
ENDMDL
MODEL      227
REMARK 921   NORMALIZED FREE ENERGY PREDICTED BY IDOCK:   -3.10 KCAL/MOL
REMARK 922        TOTAL FREE ENERGY PREDICTED BY IDOCK:   -4.12 KCAL/MOL
REMARK 923 INTER-LIGAND FREE ENERGY PREDICTED BY IDOCK:   -3.54 KCAL/MOL
REMARK 924 INTRA-LIGAND FREE ENERGY PREDICTED BY IDOCK:   -0.58 KCAL/MOL
REMARK 927      BINDING AFFINITY PREDICTED BY RF-SCORE:    0.00 PKD
ROOT
HETATM    1 CA   UNL     1      -6.835  11.347  65.247  1.00  0.00    -0.341 Ca 
HETATM    2  C   UNL     2     -10.825  11.140  64.247  1.00  0.00    -0.284 C  
HETATM    3  H   UNL     2     -11.724  12.551  63.168  1.00  0.00     0.000 HD 
HETATM    4  C   UNL     2      -9.482  10.400  64.191  1.00  0.00    -0.300 C  
HETATM    5  O   UNL     2     -10.892  12.093  63.133  1.00  0.00    -0.366 OA 
HETATM    6  O   UNL     2      -9.437   9.186  64.464  1.00  0.00     0.063 OA 
HETATM    7  O   UNL     2      -8.438  11.116  63.944  1.00  0.00     0.124 OA 
ENDROOT
BRANCH   2   8
HETATM    8  C   UNL     2     -11.009  11.980  65.520  1.00  0.00    -0.298 C  
HETATM    9  H   UNL     2     -12.348  13.275  66.127  1.00  0.00     0.000 HD 
HETATM   10  O   UNL     2     -12.234  12.756  65.340  1.00  0.00    -0.444 OA 
BRANCH   8  11
HETATM   11  C   UNL     2     -11.142  11.282  66.907  1.00  0.00    -0.275 C  
HETATM   12  H   UNL     2     -12.226  11.589  68.496  1.00  0.00     0.000 HD 
HETATM   13  O   UNL     2     -12.144  12.014  67.650  1.00  0.00    -0.547 OA 
BRANCH  11  14
HETATM   14  C   UNL     2      -9.895  11.120  67.787  1.00  0.00    -0.171 C  
HETATM   15  C   UNL     2      -9.876   9.948  68.764  1.00  0.00    -0.171 C  
HETATM   16  O   UNL     2      -8.677  11.151  67.006  1.00  0.00    -0.141 OA 
HETATM   17  H   UNL     2      -7.905  11.050  67.550  1.00  0.00     0.000 HD 
HETATM   18  O   UNL     2     -10.854   9.157  68.894  1.00  0.00    -0.178 OA 
HETATM   19  O   UNL     2      -9.093   9.995  69.779  1.00  0.00    -0.215 OA 
ENDBRANCH  11  14
ENDBRANCH   8  11
ENDBRANCH   2   8
TORSDOF 3
ENDMDL
MODEL      228
REMARK 921   NORMALIZED FREE ENERGY PREDICTED BY IDOCK:   -3.10 KCAL/MOL
REMARK 922        TOTAL FREE ENERGY PREDICTED BY IDOCK:   -4.11 KCAL/MOL
REMARK 923 INTER-LIGAND FREE ENERGY PREDICTED BY IDOCK:   -3.95 KCAL/MOL
REMARK 924 INTRA-LIGAND FREE ENERGY PREDICTED BY IDOCK:   -0.17 KCAL/MOL
REMARK 927      BINDING AFFINITY PREDICTED BY RF-SCORE:    0.00 PKD
ROOT
HETATM    1 CA   UNL     1      -8.898   4.428  70.852  1.00  0.00    -0.087 Ca 
HETATM    2  C   UNL     2      -9.925   7.890  72.832  1.00  0.00    -0.294 C  
HETATM    3  H   UNL     2     -11.451   7.969  74.110  1.00  0.00     0.000 HD 
HETATM    4  C   UNL     2      -8.784   6.907  72.542  1.00  0.00    -0.125 C  
HETATM    5  O   UNL     2     -10.743   7.361  73.930  1.00  0.00    -0.319 OA 
HETATM    6  O   UNL     2      -7.652   7.346  72.262  1.00  0.00    -0.084 OA 
HETATM    7  O   UNL     2      -9.091   5.655  72.518  1.00  0.00    -0.136 OA 
ENDROOT
BRANCH   2   8
HETATM    8  C   UNL     2     -10.890   8.073  71.651  1.00  0.00    -0.237 C  
HETATM    9  H   UNL     2     -12.405   7.050  70.947  1.00  0.00     0.000 HD 
HETATM   10  O   UNL     2     -11.809   6.937  71.677  1.00  0.00    -0.287 OA 
BRANCH   8  11
HETATM   11  C   UNL     2     -11.785   9.346  71.558  1.00  0.00    -0.394 C  
HETATM   12  H   UNL     2     -13.695   9.666  71.361  1.00  0.00     0.000 HD 
HETATM   13  O   UNL     2     -13.150   8.891  71.417  1.00  0.00    -0.321 OA 
BRANCH  11  14
HETATM   14  C   UNL     2     -11.494  10.387  70.468  1.00  0.00    -0.345 C  
HETATM   15  C   UNL     2     -12.093  11.779  70.653  1.00  0.00    -0.311 C  
HETATM   16  O   UNL     2     -10.081  10.477  70.170  1.00  0.00    -0.426 OA 
HETATM   17  H   UNL     2      -9.902  11.121  69.495  1.00  0.00     0.000 HD 
HETATM   18  O   UNL     2     -12.837  12.073  71.633  1.00  0.00    -0.363 OA 
HETATM   19  O   UNL     2     -12.242  12.535  69.628  1.00  0.00    -0.216 OA 
ENDBRANCH  11  14
ENDBRANCH   8  11
ENDBRANCH   2   8
TORSDOF 3
ENDMDL
MODEL      229
REMARK 921   NORMALIZED FREE ENERGY PREDICTED BY IDOCK:   -3.09 KCAL/MOL
REMARK 922        TOTAL FREE ENERGY PREDICTED BY IDOCK:   -4.10 KCAL/MOL
REMARK 923 INTER-LIGAND FREE ENERGY PREDICTED BY IDOCK:   -4.04 KCAL/MOL
REMARK 924 INTRA-LIGAND FREE ENERGY PREDICTED BY IDOCK:   -0.06 KCAL/MOL
REMARK 927      BINDING AFFINITY PREDICTED BY RF-SCORE:    0.00 PKD
ROOT
HETATM    1 CA   UNL     1     -13.110  13.464  70.013  1.00  0.00    -0.206 Ca 
HETATM    2  C   UNL     2     -10.296  16.317  69.063  1.00  0.00    -0.264 C  
HETATM    3  H   UNL     2     -10.561  17.616  67.578  1.00  0.00     0.000 HD 
HETATM    4  C   UNL     2     -11.163  15.743  70.191  1.00  0.00    -0.349 C  
HETATM    5  O   UNL     2     -11.098  17.261  68.277  1.00  0.00    -0.281 OA 
HETATM    6  O   UNL     2     -10.662  15.554  71.316  1.00  0.00    -0.192 OA 
HETATM    7  O   UNL     2     -12.366  15.399  69.878  1.00  0.00    -0.341 OA 
ENDROOT
BRANCH   2   8
HETATM    8  C   UNL     2      -9.811  15.255  68.064  1.00  0.00    -0.216 C  
HETATM    9  H   UNL     2      -8.302  15.130  66.821  1.00  0.00     0.000 HD 
HETATM   10  O   UNL     2      -8.601  15.786  67.439  1.00  0.00    -0.163 OA 
BRANCH   8  11
HETATM   11  C   UNL     2      -9.448  13.822  68.556  1.00  0.00    -0.162 C  
HETATM   12  H   UNL     2      -8.028  12.553  68.149  1.00  0.00     0.000 HD 
HETATM   13  O   UNL     2      -8.250  13.427  67.848  1.00  0.00    -0.137 OA 
BRANCH  11  14
HETATM   14  C   UNL     2     -10.489  12.701  68.431  1.00  0.00    -0.238 C  
HETATM   15  C   UNL     2     -10.951  12.329  67.025  1.00  0.00    -0.268 C  
HETATM   16  O   UNL     2     -10.098  11.518  69.167  1.00  0.00    -0.396 OA 
HETATM   17  H   UNL     2     -10.743  10.824  69.090  1.00  0.00     0.000 HD 
HETATM   18  O   UNL     2     -10.541  12.936  65.993  1.00  0.00    -0.264 OA 
HETATM   19  O   UNL     2     -12.074  11.729  66.875  1.00  0.00    -0.566 OA 
ENDBRANCH  11  14
ENDBRANCH   8  11
ENDBRANCH   2   8
TORSDOF 3
ENDMDL
MODEL      230
REMARK 921   NORMALIZED FREE ENERGY PREDICTED BY IDOCK:   -3.09 KCAL/MOL
REMARK 922        TOTAL FREE ENERGY PREDICTED BY IDOCK:   -4.10 KCAL/MOL
REMARK 923 INTER-LIGAND FREE ENERGY PREDICTED BY IDOCK:   -3.89 KCAL/MOL
REMARK 924 INTRA-LIGAND FREE ENERGY PREDICTED BY IDOCK:   -0.22 KCAL/MOL
REMARK 927      BINDING AFFINITY PREDICTED BY RF-SCORE:    0.00 PKD
ROOT
HETATM    1 CA   UNL     1     -13.934   7.137  70.342  1.00  0.00    -0.629 Ca 
HETATM    2  C   UNL     2     -10.153   7.259  71.971  1.00  0.00    -0.184 C  
HETATM    3  H   UNL     2      -9.199   8.973  72.313  1.00  0.00     0.000 HD 
HETATM    4  C   UNL     2     -11.582   6.737  72.166  1.00  0.00    -0.288 C  
HETATM    5  O   UNL     2     -10.084   8.650  72.434  1.00  0.00    -0.307 OA 
HETATM    6  O   UNL     2     -11.762   5.565  72.548  1.00  0.00    -0.272 OA 
HETATM    7  O   UNL     2     -12.540   7.534  71.831  1.00  0.00    -0.309 OA 
ENDROOT
BRANCH   2   8
HETATM    8  C   UNL     2      -9.710   7.293  70.500  1.00  0.00    -0.176 C  
HETATM    9  H   UNL     2      -8.669   6.092  69.354  1.00  0.00     0.000 HD 
HETATM   10  O   UNL     2      -8.942   6.071  70.263  1.00  0.00    -0.144 OA 
BRANCH   8  11
HETATM   11  C   UNL     2     -10.772   7.360  69.362  1.00  0.00    -0.211 C  
HETATM   12  H   UNL     2     -11.753   6.037  68.323  1.00  0.00     0.000 HD 
HETATM   13  O   UNL     2     -11.105   5.996  69.017  1.00  0.00    -0.351 OA 
BRANCH  11  14
HETATM   14  C   UNL     2     -10.443   8.130  68.075  1.00  0.00    -0.183 C  
HETATM   15  C   UNL     2     -10.617   9.646  68.103  1.00  0.00    -0.226 C  
HETATM   16  O   UNL     2      -9.140   7.777  67.554  1.00  0.00    -0.129 OA 
HETATM   17  H   UNL     2      -8.936   8.253  66.757  1.00  0.00     0.000 HD 
HETATM   18  O   UNL     2     -11.055  10.260  69.118  1.00  0.00    -0.224 OA 
HETATM   19  O   UNL     2     -10.764  10.278  66.997  1.00  0.00    -0.253 OA 
ENDBRANCH  11  14
ENDBRANCH   8  11
ENDBRANCH   2   8
TORSDOF 3
ENDMDL
MODEL      231
REMARK 921   NORMALIZED FREE ENERGY PREDICTED BY IDOCK:   -3.09 KCAL/MOL
REMARK 922        TOTAL FREE ENERGY PREDICTED BY IDOCK:   -4.10 KCAL/MOL
REMARK 923 INTER-LIGAND FREE ENERGY PREDICTED BY IDOCK:   -3.81 KCAL/MOL
REMARK 924 INTRA-LIGAND FREE ENERGY PREDICTED BY IDOCK:   -0.29 KCAL/MOL
REMARK 927      BINDING AFFINITY PREDICTED BY RF-SCORE:    0.00 PKD
ROOT
HETATM    1 CA   UNL     1      -7.007  11.186  68.317  1.00  0.00    -0.061 Ca 
HETATM    2  C   UNL     2     -11.055  11.890  68.034  1.00  0.00    -0.240 C  
HETATM    3  H   UNL     2     -12.192  12.204  69.638  1.00  0.00     0.000 HD 
HETATM    4  C   UNL     2      -9.670  12.349  67.560  1.00  0.00    -0.191 C  
HETATM    5  O   UNL     2     -11.335  12.489  69.344  1.00  0.00    -0.252 OA 
HETATM    6  O   UNL     2      -9.490  12.618  66.357  1.00  0.00    -0.241 OA 
HETATM    7  O   UNL     2      -8.727  12.345  68.440  1.00  0.00    -0.181 OA 
ENDROOT
BRANCH   2   8
HETATM    8  C   UNL     2     -11.157  10.371  68.245  1.00  0.00    -0.281 C  
HETATM    9  H   UNL     2     -10.636   8.802  67.193  1.00  0.00     0.000 HD 
HETATM   10  O   UNL     2     -10.573   9.741  67.062  1.00  0.00    -0.239 OA 
BRANCH   8  11
HETATM   11  C   UNL     2     -10.468   9.702  69.472  1.00  0.00    -0.224 C  
HETATM   12  H   UNL     2      -9.073   8.362  69.698  1.00  0.00     0.000 HD 
HETATM   13  O   UNL     2      -9.493   8.770  68.950  1.00  0.00    -0.144 OA 
BRANCH  11  14
HETATM   14  C   UNL     2     -11.334   8.980  70.515  1.00  0.00    -0.243 C  
HETATM   15  C   UNL     2     -10.711   8.724  71.884  1.00  0.00    -0.359 C  
HETATM   16  O   UNL     2     -12.635   9.597  70.656  1.00  0.00    -0.485 OA 
HETATM   17  H   UNL     2     -13.171   9.150  71.301  1.00  0.00     0.000 HD 
HETATM   18  O   UNL     2      -9.518   9.044  72.158  1.00  0.00    -0.340 OA 
HETATM   19  O   UNL     2     -11.194   7.797  72.627  1.00  0.00    -0.325 OA 
ENDBRANCH  11  14
ENDBRANCH   8  11
ENDBRANCH   2   8
TORSDOF 3
ENDMDL
MODEL      232
REMARK 921   NORMALIZED FREE ENERGY PREDICTED BY IDOCK:   -3.08 KCAL/MOL
REMARK 922        TOTAL FREE ENERGY PREDICTED BY IDOCK:   -4.10 KCAL/MOL
REMARK 923 INTER-LIGAND FREE ENERGY PREDICTED BY IDOCK:   -3.45 KCAL/MOL
REMARK 924 INTRA-LIGAND FREE ENERGY PREDICTED BY IDOCK:   -0.65 KCAL/MOL
REMARK 927      BINDING AFFINITY PREDICTED BY RF-SCORE:    0.00 PKD
ROOT
HETATM    1 CA   UNL     1     -12.204   9.866  72.333  1.00  0.00    -0.341 Ca 
HETATM    2  C   UNL     2      -9.787   9.621  69.007  1.00  0.00    -0.182 C  
HETATM    3  H   UNL     2      -9.568   7.931  67.976  1.00  0.00     0.000 HD 
HETATM    4  C   UNL     2     -10.960  10.374  69.648  1.00  0.00    -0.277 C  
HETATM    5  O   UNL     2     -10.294   8.398  68.373  1.00  0.00    -0.206 OA 
HETATM    6  O   UNL     2     -10.996  11.618  69.589  1.00  0.00    -0.165 OA 
HETATM    7  O   UNL     2     -11.816   9.664  70.302  1.00  0.00    -0.212 OA 
ENDROOT
BRANCH   2   8
HETATM    8  C   UNL     2      -8.734   9.152  70.022  1.00  0.00    -0.177 C  
HETATM    9  H   UNL     2      -7.228  10.013  70.932  1.00  0.00     0.000 HD 
HETATM   10  O   UNL     2      -7.879  10.303  70.305  1.00  0.00    -0.156 OA 
BRANCH   8  11
HETATM   11  C   UNL     2      -9.174   8.593  71.409  1.00  0.00    -0.235 C  
HETATM   12  H   UNL     2      -8.382   8.563  73.187  1.00  0.00     0.000 HD 
HETATM   13  O   UNL     2      -8.113   8.903  72.342  1.00  0.00    -0.381 OA 
BRANCH  11  14
HETATM   14  C   UNL     2      -9.528   7.105  71.538  1.00  0.00    -0.157 C  
HETATM   15  C   UNL     2     -10.743   6.747  72.389  1.00  0.00    -0.226 C  
HETATM   16  O   UNL     2      -9.602   6.454  70.248  1.00  0.00    -0.163 OA 
HETATM   17  H   UNL     2      -9.821   5.533  70.328  1.00  0.00     0.000 HD 
HETATM   18  O   UNL     2     -11.419   7.619  73.009  1.00  0.00    -0.342 OA 
HETATM   19  O   UNL     2     -10.843   5.561  72.868  1.00  0.00    -0.231 OA 
ENDBRANCH  11  14
ENDBRANCH   8  11
ENDBRANCH   2   8
TORSDOF 3
ENDMDL
MODEL      233
REMARK 921   NORMALIZED FREE ENERGY PREDICTED BY IDOCK:   -3.08 KCAL/MOL
REMARK 922        TOTAL FREE ENERGY PREDICTED BY IDOCK:   -4.09 KCAL/MOL
REMARK 923 INTER-LIGAND FREE ENERGY PREDICTED BY IDOCK:   -4.17 KCAL/MOL
REMARK 924 INTRA-LIGAND FREE ENERGY PREDICTED BY IDOCK:    0.08 KCAL/MOL
REMARK 927      BINDING AFFINITY PREDICTED BY RF-SCORE:    0.00 PKD
ROOT
HETATM    1 CA   UNL     1     -11.135  14.961  71.724  1.00  0.00    -0.317 Ca 
HETATM    2  C   UNL     2     -10.141  15.879  67.834  1.00  0.00    -0.235 C  
HETATM    3  H   UNL     2     -11.480  16.570  66.532  1.00  0.00     0.000 HD 
HETATM    4  C   UNL     2      -9.802  16.143  69.307  1.00  0.00    -0.250 C  
HETATM    5  O   UNL     2     -11.269  16.733  67.444  1.00  0.00    -0.067 OA 
HETATM    6  O   UNL     2      -8.610  16.166  69.668  1.00  0.00    -0.067 OA 
HETATM    7  O   UNL     2     -10.798  16.240  70.122  1.00  0.00    -0.334 OA 
ENDROOT
BRANCH   2   8
HETATM    8  C   UNL     2     -10.601  14.439  67.561  1.00  0.00    -0.265 C  
HETATM    9  H   UNL     2     -12.343  13.543  67.503  1.00  0.00     0.000 HD 
HETATM   10  O   UNL     2     -12.059  14.433  67.672  1.00  0.00    -0.363 OA 
BRANCH   8  11
HETATM   11  C   UNL     2     -10.272  13.755  66.199  1.00  0.00    -0.301 C  
HETATM   12  H   UNL     2      -8.662  13.015  65.393  1.00  0.00     0.000 HD 
HETATM   13  O   UNL     2      -8.863  13.432  66.222  1.00  0.00     0.026 OA 
BRANCH  11  14
HETATM   14  C   UNL     2     -10.588  14.498  64.893  1.00  0.00    -0.427 C  
HETATM   15  C   UNL     2     -12.008  14.379  64.348  1.00  0.00    -0.452 C  
HETATM   16  O   UNL     2     -10.178  15.884  64.948  1.00  0.00    -0.472 OA 
HETATM   17  H   UNL     2     -10.374  16.344  64.140  1.00  0.00     0.000 HD 
HETATM   18  O   UNL     2     -12.893  13.669  64.907  1.00  0.00    -0.688 OA 
HETATM   19  O   UNL     2     -12.220  14.608  63.104  1.00  0.00     0.046 OA 
ENDBRANCH  11  14
ENDBRANCH   8  11
ENDBRANCH   2   8
TORSDOF 3
ENDMDL
MODEL      234
REMARK 921   NORMALIZED FREE ENERGY PREDICTED BY IDOCK:   -3.07 KCAL/MOL
REMARK 922        TOTAL FREE ENERGY PREDICTED BY IDOCK:   -4.08 KCAL/MOL
REMARK 923 INTER-LIGAND FREE ENERGY PREDICTED BY IDOCK:   -3.77 KCAL/MOL
REMARK 924 INTRA-LIGAND FREE ENERGY PREDICTED BY IDOCK:   -0.31 KCAL/MOL
REMARK 927      BINDING AFFINITY PREDICTED BY RF-SCORE:    0.00 PKD
ROOT
HETATM    1 CA   UNL     1     -10.411   7.553  65.929  1.00  0.00    -0.445 Ca 
HETATM    2  C   UNL     2      -8.746   7.925  69.678  1.00  0.00    -0.134 C  
HETATM    3  H   UNL     2      -9.774   7.540  71.339  1.00  0.00     0.000 HD 
HETATM    4  C   UNL     2      -8.592   7.266  68.301  1.00  0.00    -0.123 C  
HETATM    5  O   UNL     2      -9.678   7.132  70.486  1.00  0.00    -0.176 OA 
HETATM    6  O   UNL     2      -7.473   7.240  67.754  1.00  0.00    -0.096 OA 
HETATM    7  O   UNL     2      -9.673   6.844  67.738  1.00  0.00    -0.128 OA 
ENDROOT
BRANCH   2   8
HETATM    8  C   UNL     2      -9.352   9.336  69.616  1.00  0.00    -0.179 C  
HETATM    9  H   UNL     2      -8.942  10.961  68.602  1.00  0.00     0.000 HD 
HETATM   10  O   UNL     2      -8.567  10.090  68.640  1.00  0.00    -0.114 OA 
BRANCH   8  11
HETATM   11  C   UNL     2     -10.844   9.531  69.210  1.00  0.00    -0.191 C  
HETATM   12  H   UNL     2     -11.777   9.849  67.530  1.00  0.00     0.000 HD 
HETATM   13  O   UNL     2     -10.867   9.731  67.778  1.00  0.00    -0.275 OA 
BRANCH  11  14
HETATM   14  C   UNL     2     -11.662  10.646  69.878  1.00  0.00    -0.317 C  
HETATM   15  C   UNL     2     -12.071  10.437  71.333  1.00  0.00    -0.327 C  
HETATM   16  O   UNL     2     -11.047  11.944  69.704  1.00  0.00    -0.442 OA 
HETATM   17  H   UNL     2     -11.553  12.634  70.117  1.00  0.00     0.000 HD 
HETATM   18  O   UNL     2     -11.798   9.378  71.970  1.00  0.00    -0.355 OA 
HETATM   19  O   UNL     2     -13.066  11.096  71.803  1.00  0.00    -0.467 OA 
ENDBRANCH  11  14
ENDBRANCH   8  11
ENDBRANCH   2   8
TORSDOF 3
ENDMDL
MODEL      235
REMARK 921   NORMALIZED FREE ENERGY PREDICTED BY IDOCK:   -3.06 KCAL/MOL
REMARK 922        TOTAL FREE ENERGY PREDICTED BY IDOCK:   -4.06 KCAL/MOL
REMARK 923 INTER-LIGAND FREE ENERGY PREDICTED BY IDOCK:   -3.67 KCAL/MOL
REMARK 924 INTRA-LIGAND FREE ENERGY PREDICTED BY IDOCK:   -0.39 KCAL/MOL
REMARK 927      BINDING AFFINITY PREDICTED BY RF-SCORE:    0.00 PKD
ROOT
HETATM    1 CA   UNL     1      -6.912   9.602  71.345  1.00  0.00    -0.093 Ca 
HETATM    2  C   UNL     2     -10.774   9.745  69.921  1.00  0.00    -0.268 C  
HETATM    3  H   UNL     2     -11.740  11.464  69.643  1.00  0.00     0.000 HD 
HETATM    4  C   UNL     2      -9.359   9.222  69.646  1.00  0.00    -0.179 C  
HETATM    5  O   UNL     2     -10.864  11.139  69.473  1.00  0.00    -0.239 OA 
HETATM    6  O   UNL     2      -9.203   8.052  69.246  1.00  0.00    -0.151 OA 
HETATM    7  O   UNL     2      -8.383  10.014  69.936  1.00  0.00    -0.181 OA 
ENDROOT
BRANCH   2   8
HETATM    8  C   UNL     2     -11.138   9.768  71.414  1.00  0.00    -0.247 C  
HETATM    9  H   UNL     2     -12.407  10.792  72.500  1.00  0.00     0.000 HD 
HETATM   10  O   UNL     2     -12.182  10.778  71.577  1.00  0.00    -0.311 OA 
BRANCH   8  11
HETATM   11  C   UNL     2     -11.673   8.481  72.111  1.00  0.00    -0.378 C  
HETATM   12  H   UNL     2     -13.171   8.083  73.290  1.00  0.00     0.000 HD 
HETATM   13  O   UNL     2     -12.845   8.868  72.865  1.00  0.00    -0.321 OA 
BRANCH  11  14
HETATM   14  C   UNL     2     -10.736   7.682  73.027  1.00  0.00    -0.391 C  
HETATM   15  C   UNL     2     -10.599   6.187  72.756  1.00  0.00    -0.228 C  
HETATM   16  O   UNL     2      -9.432   8.300  73.137  1.00  0.00    -0.257 OA 
HETATM   17  H   UNL     2      -8.852   7.805  73.704  1.00  0.00     0.000 HD 
HETATM   18  O   UNL     2     -11.255   5.599  71.847  1.00  0.00    -0.249 OA 
HETATM   19  O   UNL     2     -10.189   5.416  73.695  1.00  0.00    -0.181 OA 
ENDBRANCH  11  14
ENDBRANCH   8  11
ENDBRANCH   2   8
TORSDOF 3
ENDMDL
MODEL      236
REMARK 921   NORMALIZED FREE ENERGY PREDICTED BY IDOCK:   -3.05 KCAL/MOL
REMARK 922        TOTAL FREE ENERGY PREDICTED BY IDOCK:   -4.06 KCAL/MOL
REMARK 923 INTER-LIGAND FREE ENERGY PREDICTED BY IDOCK:   -4.01 KCAL/MOL
REMARK 924 INTRA-LIGAND FREE ENERGY PREDICTED BY IDOCK:   -0.05 KCAL/MOL
REMARK 927      BINDING AFFINITY PREDICTED BY RF-SCORE:    0.00 PKD
ROOT
HETATM    1 CA   UNL     1      -9.701  12.992  68.685  1.00  0.00    -0.192 Ca 
HETATM    2  C   UNL     2     -10.459  16.328  66.392  1.00  0.00    -0.294 C  
HETATM    3  H   UNL     2     -10.265  16.321  64.410  1.00  0.00     0.000 HD 
HETATM    4  C   UNL     2     -11.042  15.375  67.444  1.00  0.00    -0.311 C  
HETATM    5  O   UNL     2     -10.625  15.731  65.062  1.00  0.00    -0.432 OA 
HETATM    6  O   UNL     2     -11.669  15.840  68.414  1.00  0.00    -0.366 OA 
HETATM    7  O   UNL     2     -10.766  14.123  67.305  1.00  0.00    -0.275 OA 
ENDROOT
BRANCH   2   8
HETATM    8  C   UNL     2      -8.950  16.567  66.551  1.00  0.00    -0.278 C  
HETATM    9  H   UNL     2      -7.717  17.979  65.982  1.00  0.00     0.000 HD 
HETATM   10  O   UNL     2      -8.650  17.832  65.883  1.00  0.00    -0.516 OA 
BRANCH   8  11
HETATM   11  C   UNL     2      -8.318  16.671  67.972  1.00  0.00    -0.187 C  
HETATM   12  H   UNL     2      -7.210  17.986  68.885  1.00  0.00     0.000 HD 
HETATM   13  O   UNL     2      -7.595  17.923  68.019  1.00  0.00    -0.225 OA 
BRANCH  11  14
HETATM   14  C   UNL     2      -7.394  15.548  68.464  1.00  0.00    -0.120 C  
HETATM   15  C   UNL     2      -6.015  15.444  67.820  1.00  0.00    -0.144 C  
HETATM   16  O   UNL     2      -7.284  15.534  69.907  1.00  0.00    -0.149 OA 
HETATM   17  H   UNL     2      -6.712  14.838  70.211  1.00  0.00     0.000 HD 
HETATM   18  O   UNL     2      -5.642  16.212  66.886  1.00  0.00    -0.341 OA 
HETATM   19  O   UNL     2      -5.383  14.329  67.873  1.00  0.00    -0.175 OA 
ENDBRANCH  11  14
ENDBRANCH   8  11
ENDBRANCH   2   8
TORSDOF 3
ENDMDL
MODEL      237
REMARK 921   NORMALIZED FREE ENERGY PREDICTED BY IDOCK:   -3.04 KCAL/MOL
REMARK 922        TOTAL FREE ENERGY PREDICTED BY IDOCK:   -4.05 KCAL/MOL
REMARK 923 INTER-LIGAND FREE ENERGY PREDICTED BY IDOCK:   -3.41 KCAL/MOL
REMARK 924 INTRA-LIGAND FREE ENERGY PREDICTED BY IDOCK:   -0.64 KCAL/MOL
REMARK 927      BINDING AFFINITY PREDICTED BY RF-SCORE:    0.00 PKD
ROOT
HETATM    1 CA   UNL     1     -10.144  14.083  69.827  1.00  0.00    -0.396 Ca 
HETATM    2  C   UNL     2      -9.957  10.500  67.804  1.00  0.00    -0.171 C  
HETATM    3  H   UNL     2     -11.562   9.359  67.515  1.00  0.00     0.000 HD 
HETATM    4  C   UNL     2      -9.644  12.000  67.722  1.00  0.00    -0.193 C  
HETATM    5  O   UNL     2     -11.368  10.287  67.465  1.00  0.00    -0.335 OA 
HETATM    6  O   UNL     2      -8.551  12.376  67.257  1.00  0.00    -0.170 OA 
HETATM    7  O   UNL     2     -10.516  12.801  68.234  1.00  0.00    -0.228 OA 
ENDROOT
BRANCH   2   8
HETATM    8  C   UNL     2      -9.778   9.914  69.212  1.00  0.00    -0.208 C  
HETATM    9  H   UNL     2     -10.997   9.499  70.689  1.00  0.00     0.000 HD 
HETATM   10  O   UNL     2     -11.107   9.862  69.819  1.00  0.00    -0.239 OA 
BRANCH   8  11
HETATM   11  C   UNL     2      -9.165   8.493  69.399  1.00  0.00    -0.153 C  
HETATM   12  H   UNL     2      -7.654   7.541  68.623  1.00  0.00     0.000 HD 
HETATM   13  O   UNL     2      -8.028   8.407  68.509  1.00  0.00    -0.117 OA 
BRANCH  11  14
HETATM   14  C   UNL     2     -10.054   7.260  69.187  1.00  0.00    -0.183 C  
HETATM   15  C   UNL     2     -10.549   6.532  70.433  1.00  0.00    -0.233 C  
HETATM   16  O   UNL     2     -11.156   7.537  68.290  1.00  0.00    -0.442 OA 
HETATM   17  H   UNL     2     -11.706   6.774  68.159  1.00  0.00     0.000 HD 
HETATM   18  O   UNL     2     -10.216   6.884  71.602  1.00  0.00    -0.192 OA 
HETATM   19  O   UNL     2     -10.923   5.309  70.335  1.00  0.00    -0.153 OA 
ENDBRANCH  11  14
ENDBRANCH   8  11
ENDBRANCH   2   8
TORSDOF 3
ENDMDL
MODEL      238
REMARK 921   NORMALIZED FREE ENERGY PREDICTED BY IDOCK:   -3.04 KCAL/MOL
REMARK 922        TOTAL FREE ENERGY PREDICTED BY IDOCK:   -4.05 KCAL/MOL
REMARK 923 INTER-LIGAND FREE ENERGY PREDICTED BY IDOCK:   -3.74 KCAL/MOL
REMARK 924 INTRA-LIGAND FREE ENERGY PREDICTED BY IDOCK:   -0.31 KCAL/MOL
REMARK 927      BINDING AFFINITY PREDICTED BY RF-SCORE:    0.00 PKD
ROOT
HETATM    1 CA   UNL     1      -9.723   9.359  72.249  1.00  0.00    -0.286 Ca 
HETATM    2  C   UNL     2     -11.244  10.941  68.764  1.00  0.00    -0.270 C  
HETATM    3  H   UNL     2     -10.919  10.103  66.988  1.00  0.00     0.000 HD 
HETATM    4  C   UNL     2     -11.600  10.438  70.169  1.00  0.00    -0.312 C  
HETATM    5  O   UNL     2     -11.140   9.792  67.858  1.00  0.00    -0.236 OA 
HETATM    6  O   UNL     2     -12.400  11.088  70.870  1.00  0.00    -0.350 OA 
HETATM    7  O   UNL     2     -10.969   9.394  70.587  1.00  0.00    -0.244 OA 
ENDROOT
BRANCH   2   8
HETATM    8  C   UNL     2      -9.880  11.646  68.695  1.00  0.00    -0.165 C  
HETATM    9  H   UNL     2      -8.086  11.106  68.123  1.00  0.00     0.000 HD 
HETATM   10  O   UNL     2      -8.928  10.671  68.166  1.00  0.00    -0.133 OA 
BRANCH   8  11
HETATM   11  C   UNL     2      -9.704  12.930  67.830  1.00  0.00    -0.214 C  
HETATM   12  H   UNL     2      -8.533  13.443  66.361  1.00  0.00     0.000 HD 
HETATM   13  O   UNL     2      -8.640  12.660  66.889  1.00  0.00    -0.200 OA 
BRANCH  11  14
HETATM   14  C   UNL     2      -9.421  14.269  68.526  1.00  0.00    -0.206 C  
HETATM   15  C   UNL     2     -10.568  14.908  69.305  1.00  0.00    -0.243 C  
HETATM   16  O   UNL     2      -8.225  14.212  69.338  1.00  0.00    -0.346 OA 
HETATM   17  H   UNL     2      -8.050  15.041  69.769  1.00  0.00     0.000 HD 
HETATM   18  O   UNL     2     -11.724  14.398  69.352  1.00  0.00    -0.278 OA 
HETATM   19  O   UNL     2     -10.534  16.168  69.543  1.00  0.00    -0.254 OA 
ENDBRANCH  11  14
ENDBRANCH   8  11
ENDBRANCH   2   8
TORSDOF 3
ENDMDL
MODEL      239
REMARK 921   NORMALIZED FREE ENERGY PREDICTED BY IDOCK:   -3.03 KCAL/MOL
REMARK 922        TOTAL FREE ENERGY PREDICTED BY IDOCK:   -4.04 KCAL/MOL
REMARK 923 INTER-LIGAND FREE ENERGY PREDICTED BY IDOCK:   -4.37 KCAL/MOL
REMARK 924 INTRA-LIGAND FREE ENERGY PREDICTED BY IDOCK:    0.33 KCAL/MOL
REMARK 927      BINDING AFFINITY PREDICTED BY RF-SCORE:    0.00 PKD
ROOT
HETATM    1 CA   UNL     1      -8.468  15.591  69.184  1.00  0.00    -0.141 Ca 
HETATM    2  C   UNL     2     -10.369  14.000  65.894  1.00  0.00    -0.318 C  
HETATM    3  H   UNL     2     -11.428  15.121  64.636  1.00  0.00     0.000 HD 
HETATM    4  C   UNL     2      -9.023  14.132  66.618  1.00  0.00    -0.169 C  
HETATM    5  O   UNL     2     -10.595  15.203  65.084  1.00  0.00    -0.370 OA 
HETATM    6  O   UNL     2      -8.289  13.133  66.738  1.00  0.00    -0.078 OA 
HETATM    7  O   UNL     2      -8.762  15.278  67.151  1.00  0.00    -0.183 OA 
ENDROOT
BRANCH   2   8
HETATM    8  C   UNL     2     -11.570  13.914  66.848  1.00  0.00    -0.378 C  
HETATM    9  H   UNL     2     -12.992  12.600  67.146  1.00  0.00     0.000 HD 
HETATM   10  O   UNL     2     -12.250  12.653  66.557  1.00  0.00    -0.538 OA 
BRANCH   8  11
HETATM   11  C   UNL     2     -11.351  13.937  68.390  1.00  0.00    -0.285 C  
HETATM   12  H   UNL     2     -11.873  12.779  69.866  1.00  0.00     0.000 HD 
HETATM   13  O   UNL     2     -12.007  12.765  68.926  1.00  0.00    -0.300 OA 
BRANCH  11  14
HETATM   14  C   UNL     2     -11.802  15.166  69.192  1.00  0.00    -0.313 C  
HETATM   15  C   UNL     2     -12.676  14.919  70.418  1.00  0.00    -0.321 C  
HETATM   16  O   UNL     2     -10.691  16.031  69.526  1.00  0.00    -0.250 OA 
HETATM   17  H   UNL     2     -10.970  16.791  70.022  1.00  0.00     0.000 HD 
HETATM   18  O   UNL     2     -13.063  13.762  70.754  1.00  0.00    -0.224 OA 
HETATM   19  O   UNL     2     -13.407  15.873  70.867  1.00  0.00    -0.498 OA 
ENDBRANCH  11  14
ENDBRANCH   8  11
ENDBRANCH   2   8
TORSDOF 3
ENDMDL
MODEL      240
REMARK 921   NORMALIZED FREE ENERGY PREDICTED BY IDOCK:   -3.02 KCAL/MOL
REMARK 922        TOTAL FREE ENERGY PREDICTED BY IDOCK:   -4.02 KCAL/MOL
REMARK 923 INTER-LIGAND FREE ENERGY PREDICTED BY IDOCK:   -3.75 KCAL/MOL
REMARK 924 INTRA-LIGAND FREE ENERGY PREDICTED BY IDOCK:   -0.27 KCAL/MOL
REMARK 927      BINDING AFFINITY PREDICTED BY RF-SCORE:    0.00 PKD
ROOT
HETATM    1 CA   UNL     1      -8.155  12.025  69.667  1.00  0.00    -0.341 Ca 
HETATM    2  C   UNL     2     -10.933  13.907  67.279  1.00  0.00    -0.290 C  
HETATM    3  H   UNL     2     -11.574  13.114  65.569  1.00  0.00     0.000 HD 
HETATM    4  C   UNL     2     -10.648  13.387  68.694  1.00  0.00    -0.241 C  
HETATM    5  O   UNL     2     -11.397  12.793  66.445  1.00  0.00    -0.292 OA 
HETATM    6  O   UNL     2     -10.947  14.090  69.679  1.00  0.00    -0.169 OA 
HETATM    7  O   UNL     2     -10.019  12.264  68.782  1.00  0.00    -0.155 OA 
ENDROOT
BRANCH   2   8
HETATM    8  C   UNL     2      -9.689  14.463  66.569  1.00  0.00    -0.290 C  
HETATM    9  H   UNL     2      -9.283  14.989  64.726  1.00  0.00     0.000 HD 
HETATM   10  O   UNL     2     -10.052  14.645  65.165  1.00  0.00    -0.377 OA 
BRANCH   8  11
HETATM   11  C   UNL     2      -9.060  15.812  67.029  1.00  0.00    -0.220 C  
HETATM   12  H   UNL     2      -9.336  17.682  66.561  1.00  0.00     0.000 HD 
HETATM   13  O   UNL     2      -9.719  16.860  66.280  1.00  0.00    -0.262 OA 
BRANCH  11  14
HETATM   14  C   UNL     2      -7.541  16.006  66.920  1.00  0.00    -0.233 C  
HETATM   15  C   UNL     2      -6.907  17.076  67.805  1.00  0.00    -0.148 C  
HETATM   16  O   UNL     2      -6.827  14.754  67.045  1.00  0.00    -0.343 OA 
HETATM   17  H   UNL     2      -5.887  14.874  66.977  1.00  0.00     0.000 HD 
HETATM   18  O   UNL     2      -7.590  17.815  68.572  1.00  0.00    -0.258 OA 
HETATM   19  O   UNL     2      -5.768  17.563  67.476  1.00  0.00    -0.129 OA 
ENDBRANCH  11  14
ENDBRANCH   8  11
ENDBRANCH   2   8
TORSDOF 3
ENDMDL
MODEL      241
REMARK 921   NORMALIZED FREE ENERGY PREDICTED BY IDOCK:   -3.00 KCAL/MOL
REMARK 922        TOTAL FREE ENERGY PREDICTED BY IDOCK:   -4.00 KCAL/MOL
REMARK 923 INTER-LIGAND FREE ENERGY PREDICTED BY IDOCK:   -3.52 KCAL/MOL
REMARK 924 INTRA-LIGAND FREE ENERGY PREDICTED BY IDOCK:   -0.48 KCAL/MOL
REMARK 927      BINDING AFFINITY PREDICTED BY RF-SCORE:    0.00 PKD
ROOT
HETATM    1 CA   UNL     1     -13.936   9.801  70.158  1.00  0.00    -0.635 Ca 
HETATM    2  C   UNL     2     -10.013   9.035  69.168  1.00  0.00    -0.185 C  
HETATM    3  H   UNL     2      -8.620  10.458  69.170  1.00  0.00     0.000 HD 
HETATM    4  C   UNL     2     -11.172   8.629  70.087  1.00  0.00    -0.146 C  
HETATM    5  O   UNL     2      -9.338  10.207  69.739  1.00  0.00    -0.211 OA 
HETATM    6  O   UNL     2     -11.410   7.422  70.279  1.00  0.00    -0.274 OA 
HETATM    7  O   UNL     2     -11.907   9.584  70.548  1.00  0.00    -0.256 OA 
ENDROOT
BRANCH   2   8
HETATM    8  C   UNL     2     -10.466   9.464  67.764  1.00  0.00    -0.254 C  
HETATM    9  H   UNL     2     -10.207  11.069  66.670  1.00  0.00     0.000 HD 
HETATM   10  O   UNL     2      -9.927  10.804  67.538  1.00  0.00    -0.169 OA 
BRANCH   8  11
HETATM   11  C   UNL     2     -10.059   8.622  66.517  1.00  0.00    -0.269 C  
HETATM   12  H   UNL     2      -9.750   6.728  66.185  1.00  0.00     0.000 HD 
HETATM   13  O   UNL     2      -9.998   7.242  66.945  1.00  0.00    -0.198 OA 
BRANCH  11  14
HETATM   14  C   UNL     2      -8.763   8.967  65.771  1.00  0.00    -0.169 C  
HETATM   15  C   UNL     2      -8.880   9.867  64.544  1.00  0.00    -0.209 C  
HETATM   16  O   UNL     2      -7.740   9.461  66.668  1.00  0.00    -0.096 OA 
HETATM   17  H   UNL     2      -6.937   9.674  66.206  1.00  0.00     0.000 HD 
HETATM   18  O   UNL     2      -9.993  10.287  64.114  1.00  0.00    -0.315 OA 
HETATM   19  O   UNL     2      -7.945   9.851  63.666  1.00  0.00    -0.134 OA 
ENDBRANCH  11  14
ENDBRANCH   8  11
ENDBRANCH   2   8
TORSDOF 3
ENDMDL
MODEL      242
REMARK 921   NORMALIZED FREE ENERGY PREDICTED BY IDOCK:   -3.00 KCAL/MOL
REMARK 922        TOTAL FREE ENERGY PREDICTED BY IDOCK:   -4.00 KCAL/MOL
REMARK 923 INTER-LIGAND FREE ENERGY PREDICTED BY IDOCK:   -4.33 KCAL/MOL
REMARK 924 INTRA-LIGAND FREE ENERGY PREDICTED BY IDOCK:    0.32 KCAL/MOL
REMARK 927      BINDING AFFINITY PREDICTED BY RF-SCORE:    0.00 PKD
ROOT
HETATM    1 CA   UNL     1      -7.418  16.342  68.793  1.00  0.00    -0.133 Ca 
HETATM    2  C   UNL     2     -10.021  14.209  66.418  1.00  0.00    -0.293 C  
HETATM    3  H   UNL     2     -10.953  15.030  64.861  1.00  0.00     0.000 HD 
HETATM    4  C   UNL     2      -8.600  14.248  66.994  1.00  0.00    -0.192 C  
HETATM    5  O   UNL     2     -10.073  15.054  65.218  1.00  0.00    -0.354 OA 
HETATM    6  O   UNL     2      -8.098  13.208  67.462  1.00  0.00    -0.158 OA 
HETATM    7  O   UNL     2      -8.026  15.402  67.042  1.00  0.00    -0.203 OA 
ENDROOT
BRANCH   2   8
HETATM    8  C   UNL     2     -11.083  14.781  67.370  1.00  0.00    -0.324 C  
HETATM    9  H   UNL     2     -12.961  14.362  67.739  1.00  0.00     0.000 HD 
HETATM   10  O   UNL     2     -12.305  14.009  67.150  1.00  0.00    -0.373 OA 
BRANCH   8  11
HETATM   11  C   UNL     2     -10.841  14.774  68.909  1.00  0.00    -0.254 C  
HETATM   12  H   UNL     2     -11.775  14.013  70.439  1.00  0.00     0.000 HD 
HETATM   13  O   UNL     2     -11.922  14.017  69.501  1.00  0.00    -0.299 OA 
BRANCH  11  14
HETATM   14  C   UNL     2     -10.710  16.111  69.652  1.00  0.00    -0.325 C  
HETATM   15  C   UNL     2     -10.634  17.378  68.804  1.00  0.00    -0.283 C  
HETATM   16  O   UNL     2     -11.709  16.253  70.689  1.00  0.00    -0.500 OA 
HETATM   17  H   UNL     2     -11.628  17.081  71.148  1.00  0.00     0.000 HD 
HETATM   18  O   UNL     2     -10.632  17.349  67.539  1.00  0.00    -0.356 OA 
HETATM   19  O   UNL     2     -10.120  18.439  69.310  1.00  0.00    -0.278 OA 
ENDBRANCH  11  14
ENDBRANCH   8  11
ENDBRANCH   2   8
TORSDOF 3
ENDMDL
MODEL      243
REMARK 921   NORMALIZED FREE ENERGY PREDICTED BY IDOCK:   -2.98 KCAL/MOL
REMARK 922        TOTAL FREE ENERGY PREDICTED BY IDOCK:   -3.98 KCAL/MOL
REMARK 923 INTER-LIGAND FREE ENERGY PREDICTED BY IDOCK:   -3.45 KCAL/MOL
REMARK 924 INTRA-LIGAND FREE ENERGY PREDICTED BY IDOCK:   -0.53 KCAL/MOL
REMARK 927      BINDING AFFINITY PREDICTED BY RF-SCORE:    0.00 PKD
ROOT
HETATM    1 CA   UNL     1      -8.057   6.911  73.642  1.00  0.00    -0.100 Ca 
HETATM    2  C   UNL     2     -10.494   5.595  70.593  1.00  0.00    -0.270 C  
HETATM    3  H   UNL     2      -9.798   4.524  69.065  1.00  0.00     0.000 HD 
HETATM    4  C   UNL     2     -10.288   5.605  72.113  1.00  0.00    -0.209 C  
HETATM    5  O   UNL     2      -9.671   4.531  70.007  1.00  0.00    -0.178 OA 
HETATM    6  O   UNL     2     -11.260   5.817  72.863  1.00  0.00    -0.275 OA 
HETATM    7  O   UNL     2      -9.075   5.478  72.534  1.00  0.00    -0.136 OA 
ENDROOT
BRANCH   2   8
HETATM    8  C   UNL     2     -10.040   6.892  69.905  1.00  0.00    -0.188 C  
HETATM    9  H   UNL     2      -9.351   7.331  68.125  1.00  0.00     0.000 HD 
HETATM   10  O   UNL     2      -9.631   6.529  68.550  1.00  0.00    -0.125 OA 
BRANCH   8  11
HETATM   11  C   UNL     2     -11.031   8.085  69.750  1.00  0.00    -0.137 C  
HETATM   12  H   UNL     2     -11.201   9.570  68.502  1.00  0.00     0.000 HD 
HETATM   13  O   UNL     2     -10.597   8.843  68.597  1.00  0.00    -0.209 OA 
BRANCH  11  14
HETATM   14  C   UNL     2     -11.234   9.048  70.928  1.00  0.00    -0.287 C  
HETATM   15  C   UNL     2     -12.528   8.915  71.725  1.00  0.00    -0.362 C  
HETATM   16  O   UNL     2     -10.090   9.063  71.815  1.00  0.00    -0.326 OA 
HETATM   17  H   UNL     2     -10.216   9.659  72.544  1.00  0.00     0.000 HD 
HETATM   18  O   UNL     2     -13.432   8.084  71.419  1.00  0.00    -0.297 OA 
HETATM   19  O   UNL     2     -12.939   9.912  72.419  1.00  0.00    -0.347 OA 
ENDBRANCH  11  14
ENDBRANCH   8  11
ENDBRANCH   2   8
TORSDOF 3
ENDMDL
MODEL      244
REMARK 921   NORMALIZED FREE ENERGY PREDICTED BY IDOCK:   -2.97 KCAL/MOL
REMARK 922        TOTAL FREE ENERGY PREDICTED BY IDOCK:   -3.97 KCAL/MOL
REMARK 923 INTER-LIGAND FREE ENERGY PREDICTED BY IDOCK:   -3.56 KCAL/MOL
REMARK 924 INTRA-LIGAND FREE ENERGY PREDICTED BY IDOCK:   -0.41 KCAL/MOL
REMARK 927      BINDING AFFINITY PREDICTED BY RF-SCORE:    0.00 PKD
ROOT
HETATM    1 CA   UNL     1     -10.140   3.495  67.567  1.00  0.00    -0.202 Ca 
HETATM    2  C   UNL     2      -8.647   5.728  70.689  1.00  0.00    -0.132 C  
HETATM    3  H   UNL     2      -7.501   4.933  72.110  1.00  0.00     0.000 HD 
HETATM    4  C   UNL     2      -8.740   5.620  69.161  1.00  0.00    -0.108 C  
HETATM    5  O   UNL     2      -7.558   4.866  71.164  1.00  0.00    -0.077 OA 
HETATM    6  O   UNL     2      -8.985   6.638  68.487  1.00  0.00    -0.122 OA 
HETATM    7  O   UNL     2      -8.643   4.436  68.659  1.00  0.00    -0.090 OA 
ENDROOT
BRANCH   2   8
HETATM    8  C   UNL     2      -9.908   5.236  71.415  1.00  0.00    -0.174 C  
HETATM    9  H   UNL     2     -10.237   4.068  72.953  1.00  0.00     0.000 HD 
HETATM   10  O   UNL     2      -9.457   4.372  72.505  1.00  0.00    -0.131 OA 
BRANCH   8  11
HETATM   11  C   UNL     2     -10.893   6.259  72.058  1.00  0.00    -0.245 C  
HETATM   12  H   UNL     2     -11.973   6.288  73.677  1.00  0.00     0.000 HD 
HETATM   13  O   UNL     2     -11.373   5.665  73.285  1.00  0.00    -0.241 OA 
BRANCH  11  14
HETATM   14  C   UNL     2     -12.097   6.752  71.243  1.00  0.00    -0.370 C  
HETATM   15  C   UNL     2     -12.752   8.058  71.684  1.00  0.00    -0.326 C  
HETATM   16  O   UNL     2     -11.813   6.780  69.824  1.00  0.00    -0.627 OA 
HETATM   17  H   UNL     2     -12.558   7.085  69.320  1.00  0.00     0.000 HD 
HETATM   18  O   UNL     2     -12.366   8.701  72.702  1.00  0.00    -0.372 OA 
HETATM   19  O   UNL     2     -13.962   8.299  71.332  1.00  0.00    -0.339 OA 
ENDBRANCH  11  14
ENDBRANCH   8  11
ENDBRANCH   2   8
TORSDOF 3
ENDMDL
MODEL      245
REMARK 921   NORMALIZED FREE ENERGY PREDICTED BY IDOCK:   -2.96 KCAL/MOL
REMARK 922        TOTAL FREE ENERGY PREDICTED BY IDOCK:   -3.95 KCAL/MOL
REMARK 923 INTER-LIGAND FREE ENERGY PREDICTED BY IDOCK:   -3.67 KCAL/MOL
REMARK 924 INTRA-LIGAND FREE ENERGY PREDICTED BY IDOCK:   -0.28 KCAL/MOL
REMARK 927      BINDING AFFINITY PREDICTED BY RF-SCORE:    0.00 PKD
ROOT
HETATM    1 CA   UNL     1      -6.994  15.327  66.977  1.00  0.00    -0.148 Ca 
HETATM    2  C   UNL     2      -9.409  12.248  68.260  1.00  0.00    -0.199 C  
HETATM    3  H   UNL     2      -8.674  10.478  68.802  1.00  0.00     0.000 HD 
HETATM    4  C   UNL     2      -9.025  13.715  68.491  1.00  0.00    -0.102 C  
HETATM    5  O   UNL     2      -8.437  11.387  68.945  1.00  0.00    -0.123 OA 
HETATM    6  O   UNL     2      -9.919  14.561  68.683  1.00  0.00    -0.227 OA 
HETATM    7  O   UNL     2      -7.774  14.010  68.382  1.00  0.00    -0.122 OA 
ENDROOT
BRANCH   2   8
HETATM    8  C   UNL     2      -9.362  11.828  66.783  1.00  0.00    -0.194 C  
HETATM    9  H   UNL     2      -9.772  10.175  65.814  1.00  0.00     0.000 HD 
HETATM   10  O   UNL     2      -9.801  10.435  66.727  1.00  0.00    -0.181 OA 
BRANCH   8  11
HETATM   11  C   UNL     2     -10.215  12.589  65.724  1.00  0.00    -0.270 C  
HETATM   12  H   UNL     2      -9.985  14.234  64.706  1.00  0.00     0.000 HD 
HETATM   13  O   UNL     2      -9.466  13.769  65.352  1.00  0.00     0.016 OA 
BRANCH  11  14
HETATM   14  C   UNL     2     -11.650  13.005  66.077  1.00  0.00    -0.365 C  
HETATM   15  C   UNL     2     -12.597  13.302  64.917  1.00  0.00    -0.384 C  
HETATM   16  O   UNL     2     -12.263  12.087  67.012  1.00  0.00    -0.516 OA 
HETATM   17  H   UNL     2     -13.151  12.344  67.230  1.00  0.00     0.000 HD 
HETATM   18  O   UNL     2     -12.225  13.258  63.709  1.00  0.00    -0.561 OA 
HETATM   19  O   UNL     2     -13.631  14.030  65.127  1.00  0.00    -0.293 OA 
ENDBRANCH  11  14
ENDBRANCH   8  11
ENDBRANCH   2   8
TORSDOF 3
ENDMDL
MODEL      246
REMARK 921   NORMALIZED FREE ENERGY PREDICTED BY IDOCK:   -2.95 KCAL/MOL
REMARK 922        TOTAL FREE ENERGY PREDICTED BY IDOCK:   -3.94 KCAL/MOL
REMARK 923 INTER-LIGAND FREE ENERGY PREDICTED BY IDOCK:   -3.58 KCAL/MOL
REMARK 924 INTRA-LIGAND FREE ENERGY PREDICTED BY IDOCK:   -0.36 KCAL/MOL
REMARK 927      BINDING AFFINITY PREDICTED BY RF-SCORE:    0.00 PKD
ROOT
HETATM    1 CA   UNL     1      -9.909   7.735  65.366  1.00  0.00    -0.410 Ca 
HETATM    2  C   UNL     2      -8.978  10.357  68.402  1.00  0.00    -0.137 C  
HETATM    3  H   UNL     2      -7.302  10.198  69.465  1.00  0.00     0.000 HD 
HETATM    4  C   UNL     2      -9.355  10.244  66.919  1.00  0.00    -0.158 C  
HETATM    5  O   UNL     2      -7.535  10.128  68.547  1.00  0.00    -0.082 OA 
HETATM    6  O   UNL     2     -10.198  11.024  66.439  1.00  0.00    -0.221 OA 
HETATM    7  O   UNL     2      -8.828   9.267  66.261  1.00  0.00    -0.135 OA 
ENDROOT
BRANCH   2   8
HETATM    8  C   UNL     2      -9.653   9.299  69.288  1.00  0.00    -0.161 C  
HETATM    9  H   UNL     2      -9.275   8.546  71.056  1.00  0.00     0.000 HD 
HETATM   10  O   UNL     2      -8.857   9.200  70.509  1.00  0.00    -0.184 OA 
BRANCH   8  11
HETATM   11  C   UNL     2     -11.129   9.490  69.751  1.00  0.00    -0.191 C  
HETATM   12  H   UNL     2     -12.213  11.022  70.272  1.00  0.00     0.000 HD 
HETATM   13  O   UNL     2     -11.314  10.905  69.990  1.00  0.00    -0.288 OA 
BRANCH  11  14
HETATM   14  C   UNL     2     -11.637   8.712  70.973  1.00  0.00    -0.281 C  
HETATM   15  C   UNL     2     -11.809   7.203  70.820  1.00  0.00    -0.325 C  
HETATM   16  O   UNL     2     -10.872   9.018  72.163  1.00  0.00    -0.337 OA 
HETATM   17  H   UNL     2     -11.187   8.536  72.920  1.00  0.00     0.000 HD 
HETATM   18  O   UNL     2     -11.591   6.603  69.727  1.00  0.00    -0.351 OA 
HETATM   19  O   UNL     2     -12.593   6.580  71.620  1.00  0.00    -0.318 OA 
ENDBRANCH  11  14
ENDBRANCH   8  11
ENDBRANCH   2   8
TORSDOF 3
ENDMDL
MODEL      247
REMARK 921   NORMALIZED FREE ENERGY PREDICTED BY IDOCK:   -2.94 KCAL/MOL
REMARK 922        TOTAL FREE ENERGY PREDICTED BY IDOCK:   -3.93 KCAL/MOL
REMARK 923 INTER-LIGAND FREE ENERGY PREDICTED BY IDOCK:   -3.06 KCAL/MOL
REMARK 924 INTRA-LIGAND FREE ENERGY PREDICTED BY IDOCK:   -0.87 KCAL/MOL
REMARK 927      BINDING AFFINITY PREDICTED BY RF-SCORE:    0.00 PKD
ROOT
HETATM    1 CA   UNL     1     -11.669   5.063  66.043  1.00  0.00    -0.535 Ca 
HETATM    2  C   UNL     2      -9.522   7.435  68.637  1.00  0.00    -0.139 C  
HETATM    3  H   UNL     2      -9.053   9.322  68.209  1.00  0.00     0.000 HD 
HETATM    4  C   UNL     2     -10.767   6.550  68.491  1.00  0.00    -0.273 C  
HETATM    5  O   UNL     2      -9.824   8.774  68.119  1.00  0.00    -0.158 OA 
HETATM    6  O   UNL     2     -11.055   5.741  69.393  1.00  0.00    -0.346 OA 
HETATM    7  O   UNL     2     -11.410   6.636  67.376  1.00  0.00    -0.299 OA 
ENDROOT
BRANCH   2   8
HETATM    8  C   UNL     2      -8.320   6.938  67.820  1.00  0.00    -0.120 C  
HETATM    9  H   UNL     2      -6.376   7.101  68.004  1.00  0.00     0.000 HD 
HETATM   10  O   UNL     2      -7.119   7.408  68.509  1.00  0.00    -0.079 OA 
BRANCH   8  11
HETATM   11  C   UNL     2      -8.109   5.412  67.583  1.00  0.00    -0.100 C  
HETATM   12  H   UNL     2      -6.566   4.224  67.598  1.00  0.00     0.000 HD 
HETATM   13  O   UNL     2      -6.695   5.154  67.743  1.00  0.00    -0.052 OA 
BRANCH  11  14
HETATM   14  C   UNL     2      -8.579   4.789  66.261  1.00  0.00    -0.114 C  
HETATM   15  C   UNL     2      -9.316   3.454  66.341  1.00  0.00    -0.149 C  
HETATM   16  O   UNL     2      -9.322   5.732  65.454  1.00  0.00    -0.360 OA 
HETATM   17  H   UNL     2      -9.613   5.346  64.636  1.00  0.00     0.000 HD 
HETATM   18  O   UNL     2      -9.503   2.847  67.434  1.00  0.00    -0.189 OA 
HETATM   19  O   UNL     2      -9.360   2.703  65.303  1.00  0.00    -0.146 OA 
ENDBRANCH  11  14
ENDBRANCH   8  11
ENDBRANCH   2   8
TORSDOF 3
ENDMDL
MODEL      248
REMARK 921   NORMALIZED FREE ENERGY PREDICTED BY IDOCK:   -2.94 KCAL/MOL
REMARK 922        TOTAL FREE ENERGY PREDICTED BY IDOCK:   -3.93 KCAL/MOL
REMARK 923 INTER-LIGAND FREE ENERGY PREDICTED BY IDOCK:   -3.95 KCAL/MOL
REMARK 924 INTRA-LIGAND FREE ENERGY PREDICTED BY IDOCK:    0.03 KCAL/MOL
REMARK 927      BINDING AFFINITY PREDICTED BY RF-SCORE:    0.00 PKD
ROOT
HETATM    1 CA   UNL     1     -12.309  16.517  64.042  1.00  0.00    -0.424 Ca 
HETATM    2  C   UNL     2      -9.427  16.745  66.975  1.00  0.00    -0.232 C  
HETATM    3  H   UNL     2      -7.600  15.994  66.729  1.00  0.00     0.000 HD 
HETATM    4  C   UNL     2     -10.407  17.558  66.119  1.00  0.00    -0.329 C  
HETATM    5  O   UNL     2      -8.207  16.497  66.199  1.00  0.00    -0.321 OA 
HETATM    6  O   UNL     2     -11.087  18.456  66.650  1.00  0.00     0.018 OA 
HETATM    7  O   UNL     2     -10.537  17.196  64.888  1.00  0.00    -0.620 OA 
ENDROOT
BRANCH   2   8
HETATM    8  C   UNL     2      -9.959  15.357  67.362  1.00  0.00    -0.229 C  
HETATM    9  H   UNL     2     -11.664  14.685  68.055  1.00  0.00     0.000 HD 
HETATM   10  O   UNL     2     -11.335  15.544  67.816  1.00  0.00    -0.330 OA 
BRANCH   8  11
HETATM   11  C   UNL     2     -10.007  14.213  66.305  1.00  0.00    -0.303 C  
HETATM   12  H   UNL     2     -11.411  13.401  65.228  1.00  0.00     0.000 HD 
HETATM   13  O   UNL     2     -11.382  14.098  65.873  1.00  0.00    -0.313 OA 
BRANCH  11  14
HETATM   14  C   UNL     2      -9.490  12.819  66.686  1.00  0.00    -0.249 C  
HETATM   15  C   UNL     2      -8.208  12.749  67.511  1.00  0.00    -0.179 C  
HETATM   16  O   UNL     2     -10.525  12.005  67.287  1.00  0.00    -0.212 OA 
HETATM   17  H   UNL     2     -10.205  11.142  67.523  1.00  0.00     0.000 HD 
HETATM   18  O   UNL     2      -7.556  13.782  67.841  1.00  0.00    -0.123 OA 
HETATM   19  O   UNL     2      -7.519  11.668  67.505  1.00  0.00    -0.108 OA 
ENDBRANCH  11  14
ENDBRANCH   8  11
ENDBRANCH   2   8
TORSDOF 3
ENDMDL
MODEL      249
REMARK 921   NORMALIZED FREE ENERGY PREDICTED BY IDOCK:   -2.94 KCAL/MOL
REMARK 922        TOTAL FREE ENERGY PREDICTED BY IDOCK:   -3.93 KCAL/MOL
REMARK 923 INTER-LIGAND FREE ENERGY PREDICTED BY IDOCK:   -3.13 KCAL/MOL
REMARK 924 INTRA-LIGAND FREE ENERGY PREDICTED BY IDOCK:   -0.79 KCAL/MOL
REMARK 927      BINDING AFFINITY PREDICTED BY RF-SCORE:    0.00 PKD
ROOT
HETATM    1 CA   UNL     1      -9.517   5.228  70.227  1.00  0.00    -0.129 Ca 
HETATM    2  C   UNL     2     -10.782   8.719  72.009  1.00  0.00    -0.347 C  
HETATM    3  H   UNL     2     -12.587   8.898  72.830  1.00  0.00     0.000 HD 
HETATM    4  C   UNL     2      -9.681   7.650  71.995  1.00  0.00    -0.166 C  
HETATM    5  O   UNL     2     -11.905   8.237  72.821  1.00  0.00    -0.388 OA 
HETATM    6  O   UNL     2      -8.486   7.998  72.050  1.00  0.00    -0.120 OA 
HETATM    7  O   UNL     2     -10.063   6.429  71.833  1.00  0.00    -0.183 OA 
ENDROOT
BRANCH   2   8
HETATM    8  C   UNL     2     -11.371   9.010  70.621  1.00  0.00    -0.265 C  
HETATM    9  H   UNL     2     -12.428  10.472  69.858  1.00  0.00     0.000 HD 
HETATM   10  O   UNL     2     -12.064  10.293  70.717  1.00  0.00    -0.298 OA 
BRANCH   8  11
HETATM   11  C   UNL     2     -10.436   9.118  69.379  1.00  0.00    -0.219 C  
HETATM   12  H   UNL     2     -10.157  10.452  67.987  1.00  0.00     0.000 HD 
HETATM   13  O   UNL     2     -10.727  10.385  68.744  1.00  0.00    -0.199 OA 
BRANCH  11  14
HETATM   14  C   UNL     2     -10.472   8.012  68.315  1.00  0.00    -0.161 C  
HETATM   15  C   UNL     2      -9.234   7.843  67.440  1.00  0.00    -0.140 C  
HETATM   16  O   UNL     2     -10.878   6.740  68.874  1.00  0.00    -0.239 OA 
HETATM   17  H   UNL     2     -10.900   6.055  68.215  1.00  0.00     0.000 HD 
HETATM   18  O   UNL     2      -8.225   8.600  67.537  1.00  0.00    -0.109 OA 
HETATM   19  O   UNL     2      -9.346   7.254  66.306  1.00  0.00    -0.169 OA 
ENDBRANCH  11  14
ENDBRANCH   8  11
ENDBRANCH   2   8
TORSDOF 3
ENDMDL
MODEL      250
REMARK 921   NORMALIZED FREE ENERGY PREDICTED BY IDOCK:   -2.93 KCAL/MOL
REMARK 922        TOTAL FREE ENERGY PREDICTED BY IDOCK:   -3.92 KCAL/MOL
REMARK 923 INTER-LIGAND FREE ENERGY PREDICTED BY IDOCK:   -3.76 KCAL/MOL
REMARK 924 INTRA-LIGAND FREE ENERGY PREDICTED BY IDOCK:   -0.16 KCAL/MOL
REMARK 927      BINDING AFFINITY PREDICTED BY RF-SCORE:    0.00 PKD
ROOT
HETATM    1 CA   UNL     1      -7.860  14.354  67.283  1.00  0.00    -0.125 Ca 
HETATM    2  C   UNL     2     -11.918  13.649  67.249  1.00  0.00    -0.381 C  
HETATM    3  H   UNL     2     -12.818  12.561  68.653  1.00  0.00     0.000 HD 
HETATM    4  C   UNL     2     -10.838  14.738  67.226  1.00  0.00    -0.309 C  
HETATM    5  O   UNL     2     -12.149  13.236  68.638  1.00  0.00    -0.337 OA 
HETATM    6  O   UNL     2     -10.949  15.697  66.438  1.00  0.00    -0.291 OA 
HETATM    7  O   UNL     2      -9.808  14.548  67.980  1.00  0.00    -0.214 OA 
ENDROOT
BRANCH   2   8
HETATM    8  C   UNL     2     -11.513  12.370  66.501  1.00  0.00    -0.371 C  
HETATM    9  H   UNL     2     -11.326  11.889  64.611  1.00  0.00     0.000 HD 
HETATM   10  O   UNL     2     -11.577  12.679  65.073  1.00  0.00    -0.319 OA 
BRANCH   8  11
HETATM   11  C   UNL     2     -10.112  11.731  66.740  1.00  0.00    -0.209 C  
HETATM   12  H   UNL     2      -8.337  12.002  65.988  1.00  0.00     0.000 HD 
HETATM   13  O   UNL     2      -9.191  12.391  65.842  1.00  0.00    -0.132 OA 
BRANCH  11  14
HETATM   14  C   UNL     2      -9.947  10.212  66.590  1.00  0.00    -0.216 C  
HETATM   15  C   UNL     2     -10.648   9.328  67.617  1.00  0.00    -0.261 C  
HETATM   16  O   UNL     2     -10.247   9.767  65.246  1.00  0.00    -0.311 OA 
HETATM   17  H   UNL     2     -10.145   8.827  65.154  1.00  0.00     0.000 HD 
HETATM   18  O   UNL     2     -11.307   9.804  68.586  1.00  0.00    -0.079 OA 
HETATM   19  O   UNL     2     -10.228   8.130  67.800  1.00  0.00    -0.202 OA 
ENDBRANCH  11  14
ENDBRANCH   8  11
ENDBRANCH   2   8
TORSDOF 3
ENDMDL
MODEL      251
REMARK 921   NORMALIZED FREE ENERGY PREDICTED BY IDOCK:   -2.93 KCAL/MOL
REMARK 922        TOTAL FREE ENERGY PREDICTED BY IDOCK:   -3.92 KCAL/MOL
REMARK 923 INTER-LIGAND FREE ENERGY PREDICTED BY IDOCK:   -3.99 KCAL/MOL
REMARK 924 INTRA-LIGAND FREE ENERGY PREDICTED BY IDOCK:    0.07 KCAL/MOL
REMARK 927      BINDING AFFINITY PREDICTED BY RF-SCORE:    0.00 PKD
ROOT
HETATM    1 CA   UNL     1      -7.412  11.416  65.417  1.00  0.00    -0.326 Ca 
HETATM    2  C   UNL     2     -11.391  11.686  66.448  1.00  0.00    -0.245 C  
HETATM    3  H   UNL     2     -12.641  12.937  65.534  1.00  0.00     0.000 HD 
HETATM    4  C   UNL     2     -10.275  10.729  66.008  1.00  0.00    -0.251 C  
HETATM    5  O   UNL     2     -11.951  12.344  65.262  1.00  0.00    -0.404 OA 
HETATM    6  O   UNL     2     -10.154   9.626  66.574  1.00  0.00    -0.227 OA 
HETATM    7  O   UNL     2      -9.454  11.169  65.116  1.00  0.00    -0.216 OA 
ENDROOT
BRANCH   2   8
HETATM    8  C   UNL     2     -10.898  12.824  67.356  1.00  0.00    -0.240 C  
HETATM    9  H   UNL     2     -10.275  12.925  69.211  1.00  0.00     0.000 HD 
HETATM   10  O   UNL     2     -10.579  12.222  68.649  1.00  0.00    -0.228 OA 
BRANCH   8  11
HETATM   11  C   UNL     2      -9.649  13.664  66.953  1.00  0.00    -0.262 C  
HETATM   12  H   UNL     2      -7.924  14.035  67.778  1.00  0.00     0.000 HD 
HETATM   13  O   UNL     2      -8.686  13.523  68.023  1.00  0.00    -0.164 OA 
BRANCH  11  14
HETATM   14  C   UNL     2      -9.821  15.156  66.636  1.00  0.00    -0.252 C  
HETATM   15  C   UNL     2     -10.291  16.063  67.770  1.00  0.00    -0.279 C  
HETATM   16  O   UNL     2      -8.649  15.710  65.994  1.00  0.00    -0.376 OA 
HETATM   17  H   UNL     2      -8.755  16.633  65.798  1.00  0.00     0.000 HD 
HETATM   18  O   UNL     2     -10.576  15.619  68.920  1.00  0.00    -0.212 OA 
HETATM   19  O   UNL     2     -10.840  17.186  67.484  1.00  0.00    -0.309 OA 
ENDBRANCH  11  14
ENDBRANCH   8  11
ENDBRANCH   2   8
TORSDOF 3
ENDMDL
MODEL      252
REMARK 921   NORMALIZED FREE ENERGY PREDICTED BY IDOCK:   -2.93 KCAL/MOL
REMARK 922        TOTAL FREE ENERGY PREDICTED BY IDOCK:   -3.92 KCAL/MOL
REMARK 923 INTER-LIGAND FREE ENERGY PREDICTED BY IDOCK:   -3.80 KCAL/MOL
REMARK 924 INTRA-LIGAND FREE ENERGY PREDICTED BY IDOCK:   -0.12 KCAL/MOL
REMARK 927      BINDING AFFINITY PREDICTED BY RF-SCORE:    0.00 PKD
ROOT
HETATM    1 CA   UNL     1      -7.085   8.443  67.963  1.00  0.00    -0.068 Ca 
HETATM    2  C   UNL     2     -10.823   8.886  69.636  1.00  0.00    -0.178 C  
HETATM    3  H   UNL     2     -11.229  10.314  70.963  1.00  0.00     0.000 HD 
HETATM    4  C   UNL     2     -10.046   8.800  68.316  1.00  0.00    -0.188 C  
HETATM    5  O   UNL     2     -10.748  10.260  70.145  1.00  0.00    -0.280 OA 
HETATM    6  O   UNL     2     -10.492   8.104  67.384  1.00  0.00    -0.260 OA 
HETATM    7  O   UNL     2      -8.904   9.398  68.277  1.00  0.00    -0.128 OA 
ENDROOT
BRANCH   2   8
HETATM    8  C   UNL     2     -10.239   8.002  70.748  1.00  0.00    -0.194 C  
HETATM    9  H   UNL     2     -10.245   8.078  72.706  1.00  0.00     0.000 HD 
HETATM   10  O   UNL     2     -10.606   8.625  72.018  1.00  0.00    -0.306 OA 
BRANCH   8  11
HETATM   11  C   UNL     2     -10.662   6.507  70.865  1.00  0.00    -0.242 C  
HETATM   12  H   UNL     2     -11.805   5.322  69.826  1.00  0.00     0.000 HD 
HETATM   13  O   UNL     2     -11.548   6.233  69.755  1.00  0.00    -0.436 OA 
BRANCH  11  14
HETATM   14  C   UNL     2     -11.324   6.015  72.159  1.00  0.00    -0.299 C  
HETATM   15  C   UNL     2     -10.430   5.858  73.386  1.00  0.00    -0.246 C  
HETATM   16  O   UNL     2     -12.505   6.784  72.486  1.00  0.00    -0.499 OA 
HETATM   17  H   UNL     2     -12.915   6.479  73.288  1.00  0.00     0.000 HD 
HETATM   18  O   UNL     2      -9.184   6.075  73.351  1.00  0.00    -0.132 OA 
HETATM   19  O   UNL     2     -10.806   5.085  74.338  1.00  0.00    -0.340 OA 
ENDBRANCH  11  14
ENDBRANCH   8  11
ENDBRANCH   2   8
TORSDOF 3
ENDMDL
MODEL      253
REMARK 921   NORMALIZED FREE ENERGY PREDICTED BY IDOCK:   -2.92 KCAL/MOL
REMARK 922        TOTAL FREE ENERGY PREDICTED BY IDOCK:   -3.90 KCAL/MOL
REMARK 923 INTER-LIGAND FREE ENERGY PREDICTED BY IDOCK:   -4.14 KCAL/MOL
REMARK 924 INTRA-LIGAND FREE ENERGY PREDICTED BY IDOCK:    0.23 KCAL/MOL
REMARK 927      BINDING AFFINITY PREDICTED BY RF-SCORE:    0.00 PKD
ROOT
HETATM    1 CA   UNL     1      -7.940  12.809  69.549  1.00  0.00    -0.320 Ca 
HETATM    2  C   UNL     2      -9.855  10.799  66.507  1.00  0.00    -0.203 C  
HETATM    3  H   UNL     2     -10.232  11.649  64.746  1.00  0.00     0.000 HD 
HETATM    4  C   UNL     2      -8.668  10.760  67.478  1.00  0.00    -0.125 C  
HETATM    5  O   UNL     2      -9.497  11.624  65.347  1.00  0.00    -0.224 OA 
HETATM    6  O   UNL     2      -8.394   9.700  68.071  1.00  0.00    -0.116 OA 
HETATM    7  O   UNL     2      -8.062  11.878  67.695  1.00  0.00    -0.131 OA 
ENDROOT
BRANCH   2   8
HETATM    8  C   UNL     2     -11.112  11.450  67.103  1.00  0.00    -0.305 C  
HETATM    9  H   UNL     2     -12.431  10.907  68.446  1.00  0.00     0.000 HD 
HETATM   10  O   UNL     2     -11.654  10.505  68.078  1.00  0.00    -0.442 OA 
BRANCH   8  11
HETATM   11  C   UNL     2     -11.012  12.818  67.842  1.00  0.00    -0.234 C  
HETATM   12  H   UNL     2     -11.924  13.624  69.362  1.00  0.00     0.000 HD 
HETATM   13  O   UNL     2     -11.986  12.790  68.911  1.00  0.00    -0.300 OA 
BRANCH  11  14
HETATM   14  C   UNL     2     -11.193  14.116  67.042  1.00  0.00    -0.318 C  
HETATM   15  C   UNL     2     -12.242  14.113  65.933  1.00  0.00    -0.439 C  
HETATM   16  O   UNL     2     -11.370  15.262  67.906  1.00  0.00    -0.321 OA 
HETATM   17  H   UNL     2     -11.483  16.066  67.411  1.00  0.00     0.000 HD 
HETATM   18  O   UNL     2     -12.915  13.083  65.638  1.00  0.00    -0.402 OA 
HETATM   19  O   UNL     2     -12.157  14.979  64.990  1.00  0.00    -0.258 OA 
ENDBRANCH  11  14
ENDBRANCH   8  11
ENDBRANCH   2   8
TORSDOF 3
ENDMDL
MODEL      254
REMARK 921   NORMALIZED FREE ENERGY PREDICTED BY IDOCK:   -2.92 KCAL/MOL
REMARK 922        TOTAL FREE ENERGY PREDICTED BY IDOCK:   -3.90 KCAL/MOL
REMARK 923 INTER-LIGAND FREE ENERGY PREDICTED BY IDOCK:   -3.70 KCAL/MOL
REMARK 924 INTRA-LIGAND FREE ENERGY PREDICTED BY IDOCK:   -0.20 KCAL/MOL
REMARK 927      BINDING AFFINITY PREDICTED BY RF-SCORE:    0.00 PKD
ROOT
HETATM    1 CA   UNL     1      -9.640   5.104  69.949  1.00  0.00    -0.118 Ca 
HETATM    2  C   UNL     2     -10.536   8.588  71.954  1.00  0.00    -0.322 C  
HETATM    3  H   UNL     2     -12.304   8.891  72.818  1.00  0.00     0.000 HD 
HETATM    4  C   UNL     2      -9.545   7.422  71.856  1.00  0.00    -0.151 C  
HETATM    5  O   UNL     2     -11.690   8.169  72.758  1.00  0.00    -0.403 OA 
HETATM    6  O   UNL     2      -8.321   7.649  71.908  1.00  0.00    -0.103 OA 
HETATM    7  O   UNL     2     -10.045   6.254  71.631  1.00  0.00    -0.186 OA 
ENDROOT
BRANCH   2   8
HETATM    8  C   UNL     2     -11.114   9.016  70.596  1.00  0.00    -0.265 C  
HETATM    9  H   UNL     2     -12.468  10.313  70.029  1.00  0.00     0.000 HD 
HETATM   10  O   UNL     2     -12.111  10.049  70.868  1.00  0.00    -0.307 OA 
BRANCH   8  11
HETATM   11  C   UNL     2     -10.179   9.600  69.494  1.00  0.00    -0.218 C  
HETATM   12  H   UNL     2      -8.446  10.488  69.498  1.00  0.00     0.000 HD 
HETATM   13  O   UNL     2      -9.016  10.132  70.170  1.00  0.00    -0.095 OA 
BRANCH  11  14
HETATM   14  C   UNL     2     -10.727  10.668  68.537  1.00  0.00    -0.217 C  
HETATM   15  C   UNL     2      -9.952  10.914  67.246  1.00  0.00    -0.186 C  
HETATM   16  O   UNL     2     -12.133  10.471  68.257  1.00  0.00    -0.797 OA 
HETATM   17  H   UNL     2     -12.472  11.133  67.664  1.00  0.00     0.000 HD 
HETATM   18  O   UNL     2      -8.875  10.307  66.974  1.00  0.00    -0.135 OA 
HETATM   19  O   UNL     2     -10.100  12.030  66.631  1.00  0.00    -0.196 OA 
ENDBRANCH  11  14
ENDBRANCH   8  11
ENDBRANCH   2   8
TORSDOF 3
ENDMDL
MODEL      255
REMARK 921   NORMALIZED FREE ENERGY PREDICTED BY IDOCK:   -2.90 KCAL/MOL
REMARK 922        TOTAL FREE ENERGY PREDICTED BY IDOCK:   -3.89 KCAL/MOL
REMARK 923 INTER-LIGAND FREE ENERGY PREDICTED BY IDOCK:   -3.85 KCAL/MOL
REMARK 924 INTRA-LIGAND FREE ENERGY PREDICTED BY IDOCK:   -0.04 KCAL/MOL
REMARK 927      BINDING AFFINITY PREDICTED BY RF-SCORE:    0.00 PKD
ROOT
HETATM    1 CA   UNL     1      -9.706  15.448  70.096  1.00  0.00    -0.233 Ca 
HETATM    2  C   UNL     2     -11.212  14.936  66.297  1.00  0.00    -0.331 C  
HETATM    3  H   UNL     2     -12.614  13.584  65.884  1.00  0.00     0.000 HD 
HETATM    4  C   UNL     2     -10.963  15.955  67.416  1.00  0.00    -0.257 C  
HETATM    5  O   UNL     2     -12.459  14.215  66.577  1.00  0.00    -0.447 OA 
HETATM    6  O   UNL     2     -10.500  17.077  67.134  1.00  0.00    -0.317 OA 
HETATM    7  O   UNL     2     -11.169  15.550  68.624  1.00  0.00    -0.285 OA 
ENDROOT
BRANCH   2   8
HETATM    8  C   UNL     2     -10.124  13.856  66.199  1.00  0.00    -0.308 C  
HETATM    9  H   UNL     2      -8.243  13.752  66.735  1.00  0.00     0.000 HD 
HETATM   10  O   UNL     2      -8.915  14.420  66.795  1.00  0.00    -0.246 OA 
BRANCH   8  11
HETATM   11  C   UNL     2     -10.332  12.470  66.881  1.00  0.00    -0.229 C  
HETATM   12  H   UNL     2     -10.353  11.839  68.723  1.00  0.00     0.000 HD 
HETATM   13  O   UNL     2     -10.226  12.683  68.307  1.00  0.00    -0.229 OA 
BRANCH  11  14
HETATM   14  C   UNL     2      -9.422  11.298  66.487  1.00  0.00    -0.193 C  
HETATM   15  C   UNL     2      -9.283  10.990  64.999  1.00  0.00    -0.197 C  
HETATM   16  O   UNL     2      -8.120  11.394  67.110  1.00  0.00    -0.140 OA 
HETATM   17  H   UNL     2      -7.556  10.668  66.867  1.00  0.00     0.000 HD 
HETATM   18  O   UNL     2      -9.916  11.631  64.111  1.00  0.00    -0.255 OA 
HETATM   19  O   UNL     2      -8.899   9.821  64.636  1.00  0.00    -0.181 OA 
ENDBRANCH  11  14
ENDBRANCH   8  11
ENDBRANCH   2   8
TORSDOF 3
ENDMDL
MODEL      256
REMARK 921   NORMALIZED FREE ENERGY PREDICTED BY IDOCK:   -2.90 KCAL/MOL
REMARK 922        TOTAL FREE ENERGY PREDICTED BY IDOCK:   -3.89 KCAL/MOL
REMARK 923 INTER-LIGAND FREE ENERGY PREDICTED BY IDOCK:   -4.21 KCAL/MOL
REMARK 924 INTRA-LIGAND FREE ENERGY PREDICTED BY IDOCK:    0.33 KCAL/MOL
REMARK 927      BINDING AFFINITY PREDICTED BY RF-SCORE:    0.00 PKD
ROOT
HETATM    1 CA   UNL     1     -12.375  14.117  70.589  1.00  0.00    -0.252 Ca 
HETATM    2  C   UNL     2      -9.932  14.018  67.275  1.00  0.00    -0.242 C  
HETATM    3  H   UNL     2      -8.501  12.652  67.051  1.00  0.00     0.000 HD 
HETATM    4  C   UNL     2     -11.390  14.016  67.754  1.00  0.00    -0.303 C  
HETATM    5  O   UNL     2      -9.403  12.651  67.348  1.00  0.00    -0.178 OA 
HETATM    6  O   UNL     2     -12.228  14.732  67.175  1.00  0.00    -0.235 OA 
HETATM    7  O   UNL     2     -11.650  13.323  68.811  1.00  0.00    -0.267 OA 
ENDROOT
BRANCH   2   8
HETATM    8  C   UNL     2      -9.000  14.868  68.152  1.00  0.00    -0.176 C  
HETATM    9  H   UNL     2      -7.115  14.744  68.671  1.00  0.00     0.000 HD 
HETATM   10  O   UNL     2      -7.691  14.219  68.128  1.00  0.00    -0.119 OA 
BRANCH   8  11
HETATM   11  C   UNL     2      -8.744  16.365  67.803  1.00  0.00    -0.180 C  
HETATM   12  H   UNL     2      -9.368  18.065  68.519  1.00  0.00     0.000 HD 
HETATM   13  O   UNL     2      -9.524  17.152  68.731  1.00  0.00    -0.268 OA 
BRANCH  11  14
HETATM   14  C   UNL     2      -9.025  16.860  66.377  1.00  0.00    -0.283 C  
HETATM   15  C   UNL     2     -10.306  17.658  66.153  1.00  0.00    -0.334 C  
HETATM   16  O   UNL     2      -7.887  17.555  65.814  1.00  0.00    -0.544 OA 
HETATM   17  H   UNL     2      -8.061  17.861  64.931  1.00  0.00     0.000 HD 
HETATM   18  O   UNL     2     -11.139  17.877  67.079  1.00  0.00    -0.058 OA 
HETATM   19  O   UNL     2     -10.796  17.734  64.970  1.00  0.00    -0.774 OA 
ENDBRANCH  11  14
ENDBRANCH   8  11
ENDBRANCH   2   8
TORSDOF 3
ENDMDL
MODEL      257
REMARK 921   NORMALIZED FREE ENERGY PREDICTED BY IDOCK:   -2.90 KCAL/MOL
REMARK 922        TOTAL FREE ENERGY PREDICTED BY IDOCK:   -3.88 KCAL/MOL
REMARK 923 INTER-LIGAND FREE ENERGY PREDICTED BY IDOCK:   -3.69 KCAL/MOL
REMARK 924 INTRA-LIGAND FREE ENERGY PREDICTED BY IDOCK:   -0.19 KCAL/MOL
REMARK 927      BINDING AFFINITY PREDICTED BY RF-SCORE:    0.00 PKD
ROOT
HETATM    1 CA   UNL     1     -12.842  14.592  63.410  1.00  0.00    -0.791 Ca 
HETATM    2  C   UNL     2     -11.076  13.569  66.988  1.00  0.00    -0.296 C  
HETATM    3  H   UNL     2     -11.963  13.895  68.740  1.00  0.00     0.000 HD 
HETATM    4  C   UNL     2     -11.513  13.045  65.614  1.00  0.00    -0.333 C  
HETATM    5  O   UNL     2     -12.234  13.569  67.890  1.00  0.00    -0.305 OA 
HETATM    6  O   UNL     2     -10.750  12.301  64.969  1.00  0.00    -0.279 OA 
HETATM    7  O   UNL     2     -12.636  13.486  65.157  1.00  0.00    -0.514 OA 
ENDROOT
BRANCH   2   8
HETATM    8  C   UNL     2     -10.578  15.023  66.957  1.00  0.00    -0.293 C  
HETATM    9  H   UNL     2     -11.450  16.768  66.782  1.00  0.00     0.000 HD 
HETATM   10  O   UNL     2     -11.759  15.870  66.801  1.00  0.00     0.296 OA 
BRANCH   8  11
HETATM   11  C   UNL     2      -9.787  15.606  68.167  1.00  0.00    -0.212 C  
HETATM   12  H   UNL     2     -10.105  17.038  69.448  1.00  0.00     0.000 HD 
HETATM   13  O   UNL     2     -10.586  16.682  68.711  1.00  0.00    -0.296 OA 
BRANCH  11  14
HETATM   14  C   UNL     2      -8.355  16.115  67.950  1.00  0.00    -0.161 C  
HETATM   15  C   UNL     2      -7.223  15.103  68.102  1.00  0.00    -0.115 C  
HETATM   16  O   UNL     2      -8.223  16.841  66.705  1.00  0.00    -0.190 OA 
HETATM   17  H   UNL     2      -7.337  17.156  66.571  1.00  0.00     0.000 HD 
HETATM   18  O   UNL     2      -7.428  13.900  68.437  1.00  0.00    -0.101 OA 
HETATM   19  O   UNL     2      -6.036  15.525  68.344  1.00  0.00    -0.096 OA 
ENDBRANCH  11  14
ENDBRANCH   8  11
ENDBRANCH   2   8
TORSDOF 3
ENDMDL
MODEL      258
REMARK 921   NORMALIZED FREE ENERGY PREDICTED BY IDOCK:   -2.89 KCAL/MOL
REMARK 922        TOTAL FREE ENERGY PREDICTED BY IDOCK:   -3.87 KCAL/MOL
REMARK 923 INTER-LIGAND FREE ENERGY PREDICTED BY IDOCK:   -4.00 KCAL/MOL
REMARK 924 INTRA-LIGAND FREE ENERGY PREDICTED BY IDOCK:    0.13 KCAL/MOL
REMARK 927      BINDING AFFINITY PREDICTED BY RF-SCORE:    0.00 PKD
ROOT
HETATM    1 CA   UNL     1     -13.327   8.421  73.331  1.00  0.00    -0.612 Ca 
HETATM    2  C   UNL     2     -10.204   8.250  70.652  1.00  0.00    -0.193 C  
HETATM    3  H   UNL     2      -9.774   6.597  69.628  1.00  0.00     0.000 HD 
HETATM    4  C   UNL     2     -11.484   9.005  71.034  1.00  0.00    -0.295 C  
HETATM    5  O   UNL     2     -10.566   7.065  69.864  1.00  0.00    -0.214 OA 
HETATM    6  O   UNL     2     -11.488  10.250  71.023  1.00  0.00    -0.350 OA 
HETATM    7  O   UNL     2     -12.478   8.290  71.439  1.00  0.00    -0.307 OA 
ENDROOT
BRANCH   2   8
HETATM    8  C   UNL     2      -9.423   7.716  71.863  1.00  0.00    -0.146 C  
HETATM    9  H   UNL     2      -8.224   8.524  73.184  1.00  0.00     0.000 HD 
HETATM   10  O   UNL     2      -8.706   8.854  72.436  1.00  0.00    -0.400 OA 
BRANCH   8  11
HETATM   11  C   UNL     2     -10.178   7.043  73.048  1.00  0.00    -0.233 C  
HETATM   12  H   UNL     2      -9.827   6.831  74.952  1.00  0.00     0.000 HD 
HETATM   13  O   UNL     2      -9.367   7.241  74.229  1.00  0.00    -0.238 OA 
BRANCH  11  14
HETATM   14  C   UNL     2     -10.554   5.558  72.949  1.00  0.00    -0.229 C  
HETATM   15  C   UNL     2      -9.439   4.576  72.603  1.00  0.00    -0.134 C  
HETATM   16  O   UNL     2     -11.285   5.108  74.114  1.00  0.00    -0.397 OA 
HETATM   17  H   UNL     2     -11.518   4.188  74.053  1.00  0.00     0.000 HD 
HETATM   18  O   UNL     2      -8.255   4.951  72.360  1.00  0.00    -0.115 OA 
HETATM   19  O   UNL     2      -9.744   3.432  72.109  1.00  0.00    -0.138 OA 
ENDBRANCH  11  14
ENDBRANCH   8  11
ENDBRANCH   2   8
TORSDOF 3
ENDMDL
MODEL      259
REMARK 921   NORMALIZED FREE ENERGY PREDICTED BY IDOCK:   -2.88 KCAL/MOL
REMARK 922        TOTAL FREE ENERGY PREDICTED BY IDOCK:   -3.86 KCAL/MOL
REMARK 923 INTER-LIGAND FREE ENERGY PREDICTED BY IDOCK:   -3.54 KCAL/MOL
REMARK 924 INTRA-LIGAND FREE ENERGY PREDICTED BY IDOCK:   -0.32 KCAL/MOL
REMARK 927      BINDING AFFINITY PREDICTED BY RF-SCORE:    0.00 PKD
ROOT
HETATM    1 CA   UNL     1     -14.064   9.478  70.237  1.00  0.00    -0.624 Ca 
HETATM    2  C   UNL     2     -10.047   8.653  69.856  1.00  0.00    -0.194 C  
HETATM    3  H   UNL     2      -8.641   9.857  70.591  1.00  0.00     0.000 HD 
HETATM    4  C   UNL     2     -11.394   8.108  70.346  1.00  0.00    -0.181 C  
HETATM    5  O   UNL     2      -9.476   9.519  70.894  1.00  0.00    -0.239 OA 
HETATM    6  O   UNL     2     -11.710   6.930  70.090  1.00  0.00    -0.312 OA 
HETATM    7  O   UNL     2     -12.179   8.946  70.932  1.00  0.00    -0.252 OA 
ENDROOT
BRANCH   2   8
HETATM    8  C   UNL     2     -10.162   9.534  68.603  1.00  0.00    -0.195 C  
HETATM    9  H   UNL     2     -10.036  11.460  68.264  1.00  0.00     0.000 HD 
HETATM   10  O   UNL     2      -9.965  10.915  69.039  1.00  0.00    -0.205 OA 
BRANCH   8  11
HETATM   11  C   UNL     2      -9.193   9.321  67.401  1.00  0.00    -0.126 C  
HETATM   12  H   UNL     2      -8.604  10.418  65.904  1.00  0.00     0.000 HD 
HETATM   13  O   UNL     2      -9.195  10.548  66.637  1.00  0.00    -0.154 OA 
BRANCH  11  14
HETATM   14  C   UNL     2      -9.433   8.143  66.447  1.00  0.00    -0.218 C  
HETATM   15  C   UNL     2      -8.365   7.054  66.397  1.00  0.00    -0.125 C  
HETATM   16  O   UNL     2     -10.745   7.560  66.628  1.00  0.00    -0.485 OA 
HETATM   17  H   UNL     2     -10.893   6.831  66.037  1.00  0.00     0.000 HD 
HETATM   18  O   UNL     2      -7.297   7.119  67.072  1.00  0.00    -0.085 OA 
HETATM   19  O   UNL     2      -8.294   6.295  65.365  1.00  0.00    -0.144 OA 
ENDBRANCH  11  14
ENDBRANCH   8  11
ENDBRANCH   2   8
TORSDOF 3
ENDMDL
MODEL      260
REMARK 921   NORMALIZED FREE ENERGY PREDICTED BY IDOCK:   -2.87 KCAL/MOL
REMARK 922        TOTAL FREE ENERGY PREDICTED BY IDOCK:   -3.85 KCAL/MOL
REMARK 923 INTER-LIGAND FREE ENERGY PREDICTED BY IDOCK:   -3.43 KCAL/MOL
REMARK 924 INTRA-LIGAND FREE ENERGY PREDICTED BY IDOCK:   -0.42 KCAL/MOL
REMARK 927      BINDING AFFINITY PREDICTED BY RF-SCORE:    0.00 PKD
ROOT
HETATM    1 CA   UNL     1     -12.431   6.575  69.146  1.00  0.00    -0.589 Ca 
HETATM    2  C   UNL     2     -10.190   8.977  71.630  1.00  0.00    -0.348 C  
HETATM    3  H   UNL     2      -8.223   8.749  71.837  1.00  0.00     0.000 HD 
HETATM    4  C   UNL     2     -11.182   8.969  70.460  1.00  0.00    -0.260 C  
HETATM    5  O   UNL     2      -8.837   8.744  71.112  1.00  0.00    -0.181 OA 
HETATM    6  O   UNL     2     -12.128   9.778  70.450  1.00  0.00    -0.215 OA 
HETATM    7  O   UNL     2     -11.024   8.043  69.575  1.00  0.00    -0.179 OA 
ENDROOT
BRANCH   2   8
HETATM    8  C   UNL     2     -10.439   7.856  72.651  1.00  0.00    -0.320 C  
HETATM    9  H   UNL     2     -11.929   7.385  73.834  1.00  0.00     0.000 HD 
HETATM   10  O   UNL     2     -11.775   8.078  73.203  1.00  0.00    -0.268 OA 
BRANCH   8  11
HETATM   11  C   UNL     2     -10.402   6.364  72.203  1.00  0.00    -0.189 C  
HETATM   12  H   UNL     2     -11.525   4.808  72.529  1.00  0.00     0.000 HD 
HETATM   13  O   UNL     2     -11.548   5.717  72.802  1.00  0.00    -0.281 OA 
BRANCH  11  14
HETATM   14  C   UNL     2      -9.150   5.526  72.497  1.00  0.00    -0.136 C  
HETATM   15  C   UNL     2      -8.883   4.326  71.592  1.00  0.00    -0.114 C  
HETATM   16  O   UNL     2      -7.965   6.348  72.613  1.00  0.00    -0.104 OA 
HETATM   17  H   UNL     2      -7.190   5.829  72.795  1.00  0.00     0.000 HD 
HETATM   18  O   UNL     2      -9.671   3.991  70.660  1.00  0.00    -0.184 OA 
HETATM   19  O   UNL     2      -8.131   3.379  72.017  1.00  0.00    -0.061 OA 
ENDBRANCH  11  14
ENDBRANCH   8  11
ENDBRANCH   2   8
TORSDOF 3
ENDMDL
MODEL      261
REMARK 921   NORMALIZED FREE ENERGY PREDICTED BY IDOCK:   -2.86 KCAL/MOL
REMARK 922        TOTAL FREE ENERGY PREDICTED BY IDOCK:   -3.83 KCAL/MOL
REMARK 923 INTER-LIGAND FREE ENERGY PREDICTED BY IDOCK:   -3.55 KCAL/MOL
REMARK 924 INTRA-LIGAND FREE ENERGY PREDICTED BY IDOCK:   -0.28 KCAL/MOL
REMARK 927      BINDING AFFINITY PREDICTED BY RF-SCORE:    0.00 PKD
ROOT
HETATM    1 CA   UNL     1     -10.829  17.967  65.033  1.00  0.00    -0.429 Ca 
HETATM    2  C   UNL     2      -9.433  17.791  68.903  1.00  0.00    -0.183 C  
HETATM    3  H   UNL     2      -7.570  17.235  69.335  1.00  0.00     0.000 HD 
HETATM    4  C   UNL     2     -10.097  18.691  67.853  1.00  0.00    -0.369 C  
HETATM    5  O   UNL     2      -7.981  17.793  68.685  1.00  0.00    -0.282 OA 
HETATM    6  O   UNL     2     -11.058  19.412  68.182  1.00  0.00    -0.005 OA 
HETATM    7  O   UNL     2      -9.667  18.581  66.642  1.00  0.00    -0.311 OA 
ENDROOT
BRANCH   2   8
HETATM    8  C   UNL     2      -9.862  16.319  68.806  1.00  0.00    -0.238 C  
HETATM    9  H   UNL     2     -11.479  15.399  68.193  1.00  0.00     0.000 HD 
HETATM   10  O   UNL     2     -11.214  16.309  68.253  1.00  0.00    -0.352 OA 
BRANCH   8  11
HETATM   11  C   UNL     2      -9.037  15.317  67.943  1.00  0.00    -0.175 C  
HETATM   12  H   UNL     2      -9.487  13.850  66.744  1.00  0.00     0.000 HD 
HETATM   13  O   UNL     2      -9.989  14.460  67.270  1.00  0.00    -0.242 OA 
BRANCH  11  14
HETATM   14  C   UNL     2      -7.976  14.440  68.622  1.00  0.00    -0.145 C  
HETATM   15  C   UNL     2      -6.537  14.578  68.133  1.00  0.00    -0.136 C  
HETATM   16  O   UNL     2      -8.036  14.541  70.064  1.00  0.00    -0.292 OA 
HETATM   17  H   UNL     2      -7.379  13.998  70.485  1.00  0.00     0.000 HD 
HETATM   18  O   UNL     2      -6.215  15.343  67.179  1.00  0.00    -0.307 OA 
HETATM   19  O   UNL     2      -5.711  13.620  68.347  1.00  0.00    -0.084 OA 
ENDBRANCH  11  14
ENDBRANCH   8  11
ENDBRANCH   2   8
TORSDOF 3
ENDMDL
MODEL      262
REMARK 921   NORMALIZED FREE ENERGY PREDICTED BY IDOCK:   -2.84 KCAL/MOL
REMARK 922        TOTAL FREE ENERGY PREDICTED BY IDOCK:   -3.81 KCAL/MOL
REMARK 923 INTER-LIGAND FREE ENERGY PREDICTED BY IDOCK:   -4.26 KCAL/MOL
REMARK 924 INTRA-LIGAND FREE ENERGY PREDICTED BY IDOCK:    0.45 KCAL/MOL
REMARK 927      BINDING AFFINITY PREDICTED BY RF-SCORE:    0.00 PKD
ROOT
HETATM    1 CA   UNL     1      -8.051   9.614  66.884  1.00  0.00    -0.103 Ca 
HETATM    2  C   UNL     2     -10.421  12.968  66.577  1.00  0.00    -0.277 C  
HETATM    3  H   UNL     2      -9.668  14.809  66.642  1.00  0.00     0.000 HD 
HETATM    4  C   UNL     2     -10.035  11.644  65.904  1.00  0.00    -0.231 C  
HETATM    5  O   UNL     2      -9.429  13.990  66.226  1.00  0.00    -0.278 OA 
HETATM    6  O   UNL     2     -10.925  10.912  65.431  1.00  0.00    -0.115 OA 
HETATM    7  O   UNL     2      -8.788  11.316  65.947  1.00  0.00    -0.195 OA 
ENDROOT
BRANCH   2   8
HETATM    8  C   UNL     2     -10.416  12.899  68.112  1.00  0.00    -0.237 C  
HETATM    9  H   UNL     2     -10.374  14.234  69.544  1.00  0.00     0.000 HD 
HETATM   10  O   UNL     2     -10.377  14.277  68.596  1.00  0.00    -0.237 OA 
BRANCH   8  11
HETATM   11  C   UNL     2     -11.591  12.210  68.870  1.00  0.00    -0.324 C  
HETATM   12  H   UNL     2     -12.766  12.728  70.334  1.00  0.00     0.000 HD 
HETATM   13  O   UNL     2     -12.050  13.147  69.872  1.00  0.00    -0.314 OA 
BRANCH  11  14
HETATM   14  C   UNL     2     -11.354  10.848  69.538  1.00  0.00    -0.283 C  
HETATM   15  C   UNL     2     -12.087  10.575  70.848  1.00  0.00    -0.383 C  
HETATM   16  O   UNL     2     -11.544   9.753  68.612  1.00  0.00    -0.485 OA 
HETATM   17  H   UNL     2     -11.398   8.910  69.025  1.00  0.00     0.000 HD 
HETATM   18  O   UNL     2     -12.829  11.437  71.403  1.00  0.00    -0.413 OA 
HETATM   19  O   UNL     2     -11.633   9.677  71.643  1.00  0.00    -0.382 OA 
ENDBRANCH  11  14
ENDBRANCH   8  11
ENDBRANCH   2   8
TORSDOF 3
ENDMDL
MODEL      263
REMARK 921   NORMALIZED FREE ENERGY PREDICTED BY IDOCK:   -2.84 KCAL/MOL
REMARK 922        TOTAL FREE ENERGY PREDICTED BY IDOCK:   -3.81 KCAL/MOL
REMARK 923 INTER-LIGAND FREE ENERGY PREDICTED BY IDOCK:   -4.16 KCAL/MOL
REMARK 924 INTRA-LIGAND FREE ENERGY PREDICTED BY IDOCK:    0.35 KCAL/MOL
REMARK 927      BINDING AFFINITY PREDICTED BY RF-SCORE:    0.00 PKD
ROOT
HETATM    1 CA   UNL     1     -13.828  14.828  69.735  1.00  0.00    -0.458 Ca 
HETATM    2  C   UNL     2      -9.959  14.633  68.336  1.00  0.00    -0.227 C  
HETATM    3  H   UNL     2      -9.475  15.156  66.477  1.00  0.00     0.000 HD 
HETATM    4  C   UNL     2     -10.863  15.200  69.439  1.00  0.00    -0.262 C  
HETATM    5  O   UNL     2     -10.035  15.507  67.160  1.00  0.00    -0.237 OA 
HETATM    6  O   UNL     2     -10.488  15.153  70.625  1.00  0.00    -0.155 OA 
HETATM    7  O   UNL     2     -12.026  15.623  69.073  1.00  0.00    -0.374 OA 
ENDROOT
BRANCH   2   8
HETATM    8  C   UNL     2     -10.392  13.243  67.845  1.00  0.00    -0.238 C  
HETATM    9  H   UNL     2     -12.037  12.189  67.988  1.00  0.00     0.000 HD 
HETATM   10  O   UNL     2     -11.770  13.048  68.292  1.00  0.00    -0.314 OA 
BRANCH   8  11
HETATM   11  C   UNL     2     -10.384  12.912  66.322  1.00  0.00    -0.268 C  
HETATM   12  H   UNL     2     -11.759  12.538  64.994  1.00  0.00     0.000 HD 
HETATM   13  O   UNL     2     -11.764  12.740  65.923  1.00  0.00    -0.368 OA 
BRANCH  11  14
HETATM   14  C   UNL     2      -9.571  11.710  65.821  1.00  0.00    -0.232 C  
HETATM   15  C   UNL     2      -9.908  10.343  66.410  1.00  0.00    -0.213 C  
HETATM   16  O   UNL     2      -9.535  11.647  64.376  1.00  0.00    -0.399 OA 
HETATM   17  H   UNL     2      -9.032  10.903  64.066  1.00  0.00     0.000 HD 
HETATM   18  O   UNL     2     -10.786  10.188  67.307  1.00  0.00    -0.271 OA 
HETATM   19  O   UNL     2      -9.031   9.409  66.360  1.00  0.00    -0.142 OA 
ENDBRANCH  11  14
ENDBRANCH   8  11
ENDBRANCH   2   8
TORSDOF 3
ENDMDL
MODEL      264
REMARK 921   NORMALIZED FREE ENERGY PREDICTED BY IDOCK:   -2.83 KCAL/MOL
REMARK 922        TOTAL FREE ENERGY PREDICTED BY IDOCK:   -3.80 KCAL/MOL
REMARK 923 INTER-LIGAND FREE ENERGY PREDICTED BY IDOCK:   -3.58 KCAL/MOL
REMARK 924 INTRA-LIGAND FREE ENERGY PREDICTED BY IDOCK:   -0.23 KCAL/MOL
REMARK 927      BINDING AFFINITY PREDICTED BY RF-SCORE:    0.00 PKD
ROOT
HETATM    1 CA   UNL     1     -11.706   7.255  67.562  1.00  0.00    -0.507 Ca 
HETATM    2  C   UNL     2      -9.742  10.471  69.223  1.00  0.00    -0.196 C  
HETATM    3  H   UNL     2      -7.793  10.432  69.627  1.00  0.00     0.000 HD 
HETATM    4  C   UNL     2     -10.635  10.015  68.062  1.00  0.00    -0.235 C  
HETATM    5  O   UNL     2      -8.346  10.150  68.908  1.00  0.00    -0.113 OA 
HETATM    6  O   UNL     2     -11.599  10.722  67.714  1.00  0.00    -0.521 OA 
HETATM    7  O   UNL     2     -10.380   8.855  67.558  1.00  0.00    -0.230 OA 
ENDROOT
BRANCH   2   8
HETATM    8  C   UNL     2     -10.042   9.749  70.546  1.00  0.00    -0.224 C  
HETATM    9  H   UNL     2     -11.559   9.735  71.786  1.00  0.00     0.000 HD 
HETATM   10  O   UNL     2     -11.373  10.181  70.969  1.00  0.00    -0.347 OA 
BRANCH   8  11
HETATM   11  C   UNL     2     -10.058   8.192  70.603  1.00  0.00    -0.194 C  
HETATM   12  H   UNL     2     -11.394   6.821  70.249  1.00  0.00     0.000 HD 
HETATM   13  O   UNL     2     -11.385   7.771  70.214  1.00  0.00    -0.252 OA 
BRANCH  11  14
HETATM   14  C   UNL     2      -9.679   7.488  71.914  1.00  0.00    -0.159 C  
HETATM   15  C   UNL     2      -8.211   7.524  72.329  1.00  0.00    -0.103 C  
HETATM   16  O   UNL     2     -10.528   7.898  73.011  1.00  0.00    -0.334 OA 
HETATM   17  H   UNL     2     -10.293   7.462  73.823  1.00  0.00     0.000 HD 
HETATM   18  O   UNL     2      -7.317   8.067  71.616  1.00  0.00    -0.065 OA 
HETATM   19  O   UNL     2      -7.771   6.640  73.147  1.00  0.00    -0.095 OA 
ENDBRANCH  11  14
ENDBRANCH   8  11
ENDBRANCH   2   8
TORSDOF 3
ENDMDL
MODEL      265
REMARK 921   NORMALIZED FREE ENERGY PREDICTED BY IDOCK:   -2.82 KCAL/MOL
REMARK 922        TOTAL FREE ENERGY PREDICTED BY IDOCK:   -3.79 KCAL/MOL
REMARK 923 INTER-LIGAND FREE ENERGY PREDICTED BY IDOCK:   -2.96 KCAL/MOL
REMARK 924 INTRA-LIGAND FREE ENERGY PREDICTED BY IDOCK:   -0.83 KCAL/MOL
REMARK 927      BINDING AFFINITY PREDICTED BY RF-SCORE:    0.00 PKD
ROOT
HETATM    1 CA   UNL     1      -9.240   6.016  72.563  1.00  0.00    -0.137 Ca 
HETATM    2  C   UNL     2      -9.481   6.926  68.554  1.00  0.00    -0.133 C  
HETATM    3  H   UNL     2      -7.861   7.170  67.422  1.00  0.00     0.000 HD 
HETATM    4  C   UNL     2      -9.924   5.939  69.641  1.00  0.00    -0.180 C  
HETATM    5  O   UNL     2      -8.136   6.559  68.095  1.00  0.00    -0.111 OA 
HETATM    6  O   UNL     2     -11.108   5.553  69.674  1.00  0.00    -0.249 OA 
HETATM    7  O   UNL     2      -9.046   5.626  70.532  1.00  0.00    -0.141 OA 
ENDROOT
BRANCH   2   8
HETATM    8  C   UNL     2      -9.363   8.374  69.054  1.00  0.00    -0.147 C  
HETATM    9  H   UNL     2      -8.988  10.095  68.196  1.00  0.00     0.000 HD 
HETATM   10  O   UNL     2      -9.060   9.200  67.886  1.00  0.00    -0.128 OA 
BRANCH   8  11
HETATM   11  C   UNL     2     -10.570   9.059  69.763  1.00  0.00    -0.228 C  
HETATM   12  H   UNL     2     -11.290  10.869  69.800  1.00  0.00     0.000 HD 
HETATM   13  O   UNL     2     -10.554  10.451  69.368  1.00  0.00    -0.209 OA 
BRANCH  11  14
HETATM   14  C   UNL     2     -10.683   8.980  71.292  1.00  0.00    -0.309 C  
HETATM   15  C   UNL     2     -11.925   8.305  71.867  1.00  0.00    -0.330 C  
HETATM   16  O   UNL     2      -9.484   8.438  71.894  1.00  0.00    -0.201 OA 
HETATM   17  H   UNL     2      -9.555   8.389  72.840  1.00  0.00     0.000 HD 
HETATM   18  O   UNL     2     -12.857   7.861  71.135  1.00  0.00    -0.245 OA 
HETATM   19  O   UNL     2     -12.277   8.567  73.072  1.00  0.00    -0.211 OA 
ENDBRANCH  11  14
ENDBRANCH   8  11
ENDBRANCH   2   8
TORSDOF 3
ENDMDL
MODEL      266
REMARK 921   NORMALIZED FREE ENERGY PREDICTED BY IDOCK:   -2.82 KCAL/MOL
REMARK 922        TOTAL FREE ENERGY PREDICTED BY IDOCK:   -3.79 KCAL/MOL
REMARK 923 INTER-LIGAND FREE ENERGY PREDICTED BY IDOCK:   -3.55 KCAL/MOL
REMARK 924 INTRA-LIGAND FREE ENERGY PREDICTED BY IDOCK:   -0.24 KCAL/MOL
REMARK 927      BINDING AFFINITY PREDICTED BY RF-SCORE:    0.00 PKD
ROOT
HETATM    1 CA   UNL     1      -7.277   8.440  69.916  1.00  0.00    -0.048 Ca 
HETATM    2  C   UNL     2      -9.900   8.570  66.743  1.00  0.00    -0.257 C  
HETATM    3  H   UNL     2     -11.360   9.919  66.628  1.00  0.00     0.000 HD 
HETATM    4  C   UNL     2      -8.419   8.584  67.143  1.00  0.00    -0.118 C  
HETATM    5  O   UNL     2     -10.443   9.927  66.875  1.00  0.00    -0.238 OA 
HETATM    6  O   UNL     2      -7.604   7.892  66.503  1.00  0.00    -0.089 OA 
HETATM    7  O   UNL     2      -8.110   9.259  68.198  1.00  0.00    -0.106 OA 
ENDROOT
BRANCH   2   8
HETATM    8  C   UNL     2     -10.770   7.688  67.652  1.00  0.00    -0.175 C  
HETATM    9  H   UNL     2     -11.600   5.923  67.464  1.00  0.00     0.000 HD 
HETATM   10  O   UNL     2     -11.062   6.468  66.902  1.00  0.00    -0.399 OA 
BRANCH   8  11
HETATM   11  C   UNL     2     -10.235   7.222  69.039  1.00  0.00    -0.197 C  
HETATM   12  H   UNL     2      -9.617   5.526  69.770  1.00  0.00     0.000 HD 
HETATM   13  O   UNL     2      -9.944   5.810  68.924  1.00  0.00    -0.140 OA 
BRANCH  11  14
HETATM   14  C   UNL     2     -11.096   7.450  70.289  1.00  0.00    -0.258 C  
HETATM   15  C   UNL     2     -11.208   8.880  70.811  1.00  0.00    -0.272 C  
HETATM   16  O   UNL     2     -12.407   6.853  70.157  1.00  0.00    -0.628 OA 
HETATM   17  H   UNL     2     -12.941   6.994  70.931  1.00  0.00     0.000 HD 
HETATM   18  O   UNL     2     -10.590   9.847  70.278  1.00  0.00    -0.265 OA 
HETATM   19  O   UNL     2     -11.544   9.075  72.033  1.00  0.00    -0.361 OA 
ENDBRANCH  11  14
ENDBRANCH   8  11
ENDBRANCH   2   8
TORSDOF 3
ENDMDL
MODEL      267
REMARK 921   NORMALIZED FREE ENERGY PREDICTED BY IDOCK:   -2.82 KCAL/MOL
REMARK 922        TOTAL FREE ENERGY PREDICTED BY IDOCK:   -3.79 KCAL/MOL
REMARK 923 INTER-LIGAND FREE ENERGY PREDICTED BY IDOCK:   -3.40 KCAL/MOL
REMARK 924 INTRA-LIGAND FREE ENERGY PREDICTED BY IDOCK:   -0.39 KCAL/MOL
REMARK 927      BINDING AFFINITY PREDICTED BY RF-SCORE:    0.00 PKD
ROOT
HETATM    1 CA   UNL     1      -6.305   4.262  67.144  1.00  0.00    -0.030 Ca 
HETATM    2  C   UNL     2     -10.171   5.339  68.066  1.00  0.00    -0.143 C  
HETATM    3  H   UNL     2     -10.993   7.024  67.395  1.00  0.00     0.000 HD 
HETATM    4  C   UNL     2      -9.289   4.233  67.473  1.00  0.00    -0.162 C  
HETATM    5  O   UNL     2     -10.447   6.339  67.028  1.00  0.00    -0.208 OA 
HETATM    6  O   UNL     2      -9.491   3.046  67.796  1.00  0.00    -0.208 OA 
HETATM    7  O   UNL     2      -8.310   4.613  66.725  1.00  0.00    -0.106 OA 
ENDROOT
BRANCH   2   8
HETATM    8  C   UNL     2      -9.498   6.110  69.212  1.00  0.00    -0.133 C  
HETATM    9  H   UNL     2      -9.139   8.003  69.566  1.00  0.00     0.000 HD 
HETATM   10  O   UNL     2      -9.555   7.527  68.857  1.00  0.00    -0.149 OA 
BRANCH   8  11
HETATM   11  C   UNL     2     -10.059   6.007  70.662  1.00  0.00    -0.194 C  
HETATM   12  H   UNL     2     -10.593   4.538  71.824  1.00  0.00     0.000 HD 
HETATM   13  O   UNL     2     -10.252   4.601  70.940  1.00  0.00    -0.211 OA 
BRANCH  11  14
HETATM   14  C   UNL     2     -11.346   6.763  71.022  1.00  0.00    -0.309 C  
HETATM   15  C   UNL     2     -11.193   8.126  71.691  1.00  0.00    -0.261 C  
HETATM   16  O   UNL     2     -12.254   6.847  69.899  1.00  0.00    -0.626 OA 
HETATM   17  H   UNL     2     -13.051   7.315  70.122  1.00  0.00     0.000 HD 
HETATM   18  O   UNL     2     -10.064   8.614  71.987  1.00  0.00    -0.286 OA 
HETATM   19  O   UNL     2     -12.170   8.601  72.373  1.00  0.00    -0.374 OA 
ENDBRANCH  11  14
ENDBRANCH   8  11
ENDBRANCH   2   8
TORSDOF 3
ENDMDL
MODEL      268
REMARK 921   NORMALIZED FREE ENERGY PREDICTED BY IDOCK:   -2.81 KCAL/MOL
REMARK 922        TOTAL FREE ENERGY PREDICTED BY IDOCK:   -3.78 KCAL/MOL
REMARK 923 INTER-LIGAND FREE ENERGY PREDICTED BY IDOCK:   -4.64 KCAL/MOL
REMARK 924 INTRA-LIGAND FREE ENERGY PREDICTED BY IDOCK:    0.86 KCAL/MOL
REMARK 927      BINDING AFFINITY PREDICTED BY RF-SCORE:    0.00 PKD
ROOT
HETATM    1 CA   UNL     1     -10.853  18.438  69.417  1.00  0.00    -0.442 Ca 
HETATM    2  C   UNL     2     -10.277  14.365  69.216  1.00  0.00    -0.064 C  
HETATM    3  H   UNL     2      -8.826  13.551  68.123  1.00  0.00     0.000 HD 
HETATM    4  C   UNL     2     -10.399  15.565  70.164  1.00  0.00    -0.262 C  
HETATM    5  O   UNL     2      -8.902  14.294  68.710  1.00  0.00    -0.168 OA 
HETATM    6  O   UNL     2     -11.090  15.466  71.196  1.00  0.00    -0.353 OA 
HETATM    7  O   UNL     2      -9.838  16.662  69.783  1.00  0.00    -0.033 OA 
ENDROOT
BRANCH   2   8
HETATM    8  C   UNL     2     -11.170  14.476  67.970  1.00  0.00    -0.292 C  
HETATM    9  H   UNL     2     -12.855  15.390  67.568  1.00  0.00     0.000 HD 
HETATM   10  O   UNL     2     -12.304  15.321  68.338  1.00  0.00    -0.016 OA 
BRANCH   8  11
HETATM   11  C   UNL     2     -10.600  15.074  66.648  1.00  0.00    -0.301 C  
HETATM   12  H   UNL     2     -10.064  16.854  66.069  1.00  0.00     0.000 HD 
HETATM   13  O   UNL     2     -10.412  16.490  66.875  1.00  0.00    -0.303 OA 
BRANCH  11  14
HETATM   14  C   UNL     2     -11.382  14.881  65.341  1.00  0.00    -0.346 C  
HETATM   15  C   UNL     2     -11.542  16.099  64.436  1.00  0.00    -0.146 C  
HETATM   16  O   UNL     2     -10.899  13.746  64.586  1.00  0.00    -0.375 OA 
HETATM   17  H   UNL     2     -11.383  13.627  63.777  1.00  0.00     0.000 HD 
HETATM   18  O   UNL     2     -11.096  17.241  64.749  1.00  0.00    -0.954 OA 
HETATM   19  O   UNL     2     -12.497  16.120  63.580  1.00  0.00    -0.586 OA 
ENDBRANCH  11  14
ENDBRANCH   8  11
ENDBRANCH   2   8
TORSDOF 3
ENDMDL
MODEL      269
REMARK 921   NORMALIZED FREE ENERGY PREDICTED BY IDOCK:   -2.80 KCAL/MOL
REMARK 922        TOTAL FREE ENERGY PREDICTED BY IDOCK:   -3.76 KCAL/MOL
REMARK 923 INTER-LIGAND FREE ENERGY PREDICTED BY IDOCK:   -3.94 KCAL/MOL
REMARK 924 INTRA-LIGAND FREE ENERGY PREDICTED BY IDOCK:    0.18 KCAL/MOL
REMARK 927      BINDING AFFINITY PREDICTED BY RF-SCORE:    0.00 PKD
ROOT
HETATM    1 CA   UNL     1     -10.328  12.451  70.383  1.00  0.00     0.085 Ca 
HETATM    2  C   UNL     2     -11.659  12.554  66.487  1.00  0.00    -0.388 C  
HETATM    3  H   UNL     2     -10.471  13.065  64.973  1.00  0.00     0.000 HD 
HETATM    4  C   UNL     2     -11.529  11.680  67.741  1.00  0.00    -0.302 C  
HETATM    5  O   UNL     2     -10.391  12.523  65.749  1.00  0.00    -0.255 OA 
HETATM    6  O   UNL     2     -12.491  10.977  68.102  1.00  0.00    -0.133 OA 
HETATM    7  O   UNL     2     -10.435  11.794  68.415  1.00  0.00    -0.201 OA 
ENDROOT
BRANCH   2   8
HETATM    8  C   UNL     2     -11.918  14.037  66.799  1.00  0.00    -0.444 C  
HETATM    9  H   UNL     2     -12.018  15.095  68.444  1.00  0.00     0.000 HD 
HETATM   10  O   UNL     2     -11.858  14.179  68.252  1.00  0.00    -0.333 OA 
BRANCH   8  11
HETATM   11  C   UNL     2     -10.976  15.136  66.220  1.00  0.00    -0.335 C  
HETATM   12  H   UNL     2     -10.544  15.765  64.429  1.00  0.00     0.000 HD 
HETATM   13  O   UNL     2     -11.118  15.095  64.782  1.00  0.00    -0.395 OA 
BRANCH  11  14
HETATM   14  C   UNL     2      -9.483  15.103  66.572  1.00  0.00    -0.283 C  
HETATM   15  C   UNL     2      -8.756  16.441  66.663  1.00  0.00    -0.256 C  
HETATM   16  O   UNL     2      -9.223  14.302  67.750  1.00  0.00    -0.184 OA 
HETATM   17  H   UNL     2      -8.298  14.282  67.967  1.00  0.00     0.000 HD 
HETATM   18  O   UNL     2      -9.328  17.543  66.419  1.00  0.00    -0.261 OA 
HETATM   19  O   UNL     2      -7.479  16.469  66.538  1.00  0.00    -0.253 OA 
ENDBRANCH  11  14
ENDBRANCH   8  11
ENDBRANCH   2   8
TORSDOF 3
ENDMDL
MODEL      270
REMARK 921   NORMALIZED FREE ENERGY PREDICTED BY IDOCK:   -2.79 KCAL/MOL
REMARK 922        TOTAL FREE ENERGY PREDICTED BY IDOCK:   -3.76 KCAL/MOL
REMARK 923 INTER-LIGAND FREE ENERGY PREDICTED BY IDOCK:   -3.28 KCAL/MOL
REMARK 924 INTRA-LIGAND FREE ENERGY PREDICTED BY IDOCK:   -0.48 KCAL/MOL
REMARK 927      BINDING AFFINITY PREDICTED BY RF-SCORE:    0.00 PKD
ROOT
HETATM    1 CA   UNL     1     -13.811   9.780  70.045  1.00  0.00    -0.618 Ca 
HETATM    2  C   UNL     2     -10.308   7.967  71.229  1.00  0.00    -0.191 C  
HETATM    3  H   UNL     2      -9.181   8.695  72.700  1.00  0.00     0.000 HD 
HETATM    4  C   UNL     2     -11.809   7.754  70.996  1.00  0.00    -0.272 C  
HETATM    5  O   UNL     2     -10.110   8.563  72.556  1.00  0.00    -0.298 OA 
HETATM    6  O   UNL     2     -12.201   6.726  70.412  1.00  0.00    -0.324 OA 
HETATM    7  O   UNL     2     -12.592   8.717  71.349  1.00  0.00    -0.310 OA 
ENDROOT
BRANCH   2   8
HETATM    8  C   UNL     2      -9.668   8.950  70.237  1.00  0.00    -0.185 C  
HETATM    9  H   UNL     2      -8.235  10.280  70.355  1.00  0.00     0.000 HD 
HETATM   10  O   UNL     2      -8.630   9.673  70.969  1.00  0.00    -0.218 OA 
BRANCH   8  11
HETATM   11  C   UNL     2      -8.988   8.421  68.938  1.00  0.00    -0.146 C  
HETATM   12  H   UNL     2      -7.597   7.113  68.555  1.00  0.00     0.000 HD 
HETATM   13  O   UNL     2      -8.012   7.435  69.346  1.00  0.00    -0.119 OA 
BRANCH  11  14
HETATM   14  C   UNL     2      -8.314   9.420  67.986  1.00  0.00    -0.119 C  
HETATM   15  C   UNL     2      -8.294   9.066  66.502  1.00  0.00    -0.115 C  
HETATM   16  O   UNL     2      -8.806  10.767  68.182  1.00  0.00    -0.125 OA 
HETATM   17  H   UNL     2      -8.389  11.385  67.592  1.00  0.00     0.000 HD 
HETATM   18  O   UNL     2      -8.767   7.981  66.056  1.00  0.00    -0.143 OA 
HETATM   19  O   UNL     2      -7.420   9.616  65.741  1.00  0.00    -0.095 OA 
ENDBRANCH  11  14
ENDBRANCH   8  11
ENDBRANCH   2   8
TORSDOF 3
ENDMDL
MODEL      271
REMARK 921   NORMALIZED FREE ENERGY PREDICTED BY IDOCK:   -2.79 KCAL/MOL
REMARK 922        TOTAL FREE ENERGY PREDICTED BY IDOCK:   -3.75 KCAL/MOL
REMARK 923 INTER-LIGAND FREE ENERGY PREDICTED BY IDOCK:   -3.27 KCAL/MOL
REMARK 924 INTRA-LIGAND FREE ENERGY PREDICTED BY IDOCK:   -0.48 KCAL/MOL
REMARK 927      BINDING AFFINITY PREDICTED BY RF-SCORE:    0.00 PKD
ROOT
HETATM    1 CA   UNL     1      -7.098   3.905  71.772  1.00  0.00    -0.030 Ca 
HETATM    2  C   UNL     2     -10.126   6.142  73.443  1.00  0.00    -0.198 C  
HETATM    3  H   UNL     2     -12.040   5.614  73.298  1.00  0.00     0.000 HD 
HETATM    4  C   UNL     2      -8.804   5.418  73.727  1.00  0.00    -0.124 C  
HETATM    5  O   UNL     2     -11.221   5.166  73.473  1.00  0.00    -0.315 OA 
HETATM    6  O   UNL     2      -7.940   5.971  74.433  1.00  0.00    -0.105 OA 
HETATM    7  O   UNL     2      -8.623   4.288  73.131  1.00  0.00    -0.093 OA 
ENDROOT
BRANCH   2   8
HETATM    8  C   UNL     2     -10.185   6.784  72.049  1.00  0.00    -0.191 C  
HETATM    9  H   UNL     2     -11.106   6.346  70.375  1.00  0.00     0.000 HD 
HETATM   10  O   UNL     2     -11.069   5.949  71.237  1.00  0.00    -0.275 OA 
BRANCH   8  11
HETATM   11  C   UNL     2     -10.699   8.245  71.879  1.00  0.00    -0.283 C  
HETATM   12  H   UNL     2     -12.398   9.145  72.191  1.00  0.00     0.000 HD 
HETATM   13  O   UNL     2     -12.085   8.254  72.294  1.00  0.00    -0.341 OA 
BRANCH  11  14
HETATM   14  C   UNL     2     -10.590   8.923  70.506  1.00  0.00    -0.220 C  
HETATM   15  C   UNL     2      -9.268   9.602  70.164  1.00  0.00    -0.246 C  
HETATM   16  O   UNL     2     -11.000   8.039  69.435  1.00  0.00    -0.408 OA 
HETATM   17  H   UNL     2     -10.932   8.459  68.585  1.00  0.00     0.000 HD 
HETATM   18  O   UNL     2      -8.302   9.657  70.979  1.00  0.00    -0.253 OA 
HETATM   19  O   UNL     2      -9.247  10.509  69.257  1.00  0.00    -0.191 OA 
ENDBRANCH  11  14
ENDBRANCH   8  11
ENDBRANCH   2   8
TORSDOF 3
ENDMDL
MODEL      272
REMARK 921   NORMALIZED FREE ENERGY PREDICTED BY IDOCK:   -2.76 KCAL/MOL
REMARK 922        TOTAL FREE ENERGY PREDICTED BY IDOCK:   -3.72 KCAL/MOL
REMARK 923 INTER-LIGAND FREE ENERGY PREDICTED BY IDOCK:   -3.82 KCAL/MOL
REMARK 924 INTRA-LIGAND FREE ENERGY PREDICTED BY IDOCK:    0.10 KCAL/MOL
REMARK 927      BINDING AFFINITY PREDICTED BY RF-SCORE:    0.00 PKD
ROOT
HETATM    1 CA   UNL     1      -9.953  10.769  70.355  1.00  0.00    -0.401 Ca 
HETATM    2  C   UNL     2      -8.282  12.427  66.976  1.00  0.00    -0.141 C  
HETATM    3  H   UNL     2      -6.945  13.899  67.066  1.00  0.00     0.000 HD 
HETATM    4  C   UNL     2      -8.529  11.117  67.735  1.00  0.00    -0.124 C  
HETATM    5  O   UNL     2      -7.098  13.088  67.535  1.00  0.00    -0.146 OA 
HETATM    6  O   UNL     2      -8.907  10.107  67.111  1.00  0.00    -0.132 OA 
HETATM    7  O   UNL     2      -8.411  11.161  69.019  1.00  0.00    -0.131 OA 
ENDROOT
BRANCH   2   8
HETATM    8  C   UNL     2      -9.427  13.442  67.119  1.00  0.00    -0.244 C  
HETATM    9  H   UNL     2     -10.864  14.063  65.942  1.00  0.00     0.000 HD 
HETATM   10  O   UNL     2     -10.157  13.435  65.853  1.00  0.00    -0.286 OA 
BRANCH   8  11
HETATM   11  C   UNL     2     -10.500  13.261  68.235  1.00  0.00    -0.250 C  
HETATM   12  H   UNL     2     -12.423  12.953  68.248  1.00  0.00     0.000 HD 
HETATM   13  O   UNL     2     -11.768  13.063  67.569  1.00  0.00    -0.335 OA 
BRANCH  11  14
HETATM   14  C   UNL     2     -10.665  14.355  69.298  1.00  0.00    -0.206 C  
HETATM   15  C   UNL     2     -11.097  15.738  68.818  1.00  0.00    -0.321 C  
HETATM   16  O   UNL     2     -11.496  13.917  70.399  1.00  0.00    -0.496 OA 
HETATM   17  H   UNL     2     -11.598  14.594  71.058  1.00  0.00     0.000 HD 
HETATM   18  O   UNL     2     -11.275  16.007  67.595  1.00  0.00    -0.288 OA 
HETATM   19  O   UNL     2     -10.855  16.759  69.556  1.00  0.00    -0.317 OA 
ENDBRANCH  11  14
ENDBRANCH   8  11
ENDBRANCH   2   8
TORSDOF 3
ENDMDL
MODEL      273
REMARK 921   NORMALIZED FREE ENERGY PREDICTED BY IDOCK:   -2.74 KCAL/MOL
REMARK 922        TOTAL FREE ENERGY PREDICTED BY IDOCK:   -3.70 KCAL/MOL
REMARK 923 INTER-LIGAND FREE ENERGY PREDICTED BY IDOCK:   -3.21 KCAL/MOL
REMARK 924 INTRA-LIGAND FREE ENERGY PREDICTED BY IDOCK:   -0.49 KCAL/MOL
REMARK 927      BINDING AFFINITY PREDICTED BY RF-SCORE:    0.00 PKD
ROOT
HETATM    1 CA   UNL     1     -10.449  12.431  69.901  1.00  0.00    -0.426 Ca 
HETATM    2  C   UNL     2     -10.210  12.344  65.790  1.00  0.00    -0.260 C  
HETATM    3  H   UNL     2     -11.776  11.893  64.646  1.00  0.00     0.000 HD 
HETATM    4  C   UNL     2      -9.971  13.203  67.039  1.00  0.00    -0.244 C  
HETATM    5  O   UNL     2     -11.628  12.425  65.419  1.00  0.00    -0.350 OA 
HETATM    6  O   UNL     2      -8.924  13.871  67.134  1.00  0.00    -0.215 OA 
HETATM    7  O   UNL     2     -10.849  13.113  67.980  1.00  0.00    -0.230 OA 
ENDROOT
BRANCH   2   8
HETATM    8  C   UNL     2      -9.928  10.850  66.013  1.00  0.00    -0.240 C  
HETATM    9  H   UNL     2      -9.543   9.336  64.830  1.00  0.00     0.000 HD 
HETATM   10  O   UNL     2      -9.718  10.260  64.692  1.00  0.00    -0.293 OA 
BRANCH   8  11
HETATM   11  C   UNL     2      -8.714  10.402  66.882  1.00  0.00    -0.126 C  
HETATM   12  H   UNL     2      -6.784  10.630  66.760  1.00  0.00     0.000 HD 
HETATM   13  O   UNL     2      -7.524  10.903  66.230  1.00  0.00    -0.139 OA 
BRANCH  11  14
HETATM   14  C   UNL     2      -8.521   8.909  67.184  1.00  0.00    -0.106 C  
HETATM   15  C   UNL     2      -8.812   8.441  68.607  1.00  0.00    -0.136 C  
HETATM   16  O   UNL     2      -9.205   8.071  66.223  1.00  0.00    -0.178 OA 
HETATM   17  H   UNL     2      -9.085   7.147  66.411  1.00  0.00     0.000 HD 
HETATM   18  O   UNL     2      -9.156   9.238  69.527  1.00  0.00    -0.145 OA 
HETATM   19  O   UNL     2      -8.290   7.346  69.023  1.00  0.00    -0.124 OA 
ENDBRANCH  11  14
ENDBRANCH   8  11
ENDBRANCH   2   8
TORSDOF 3
ENDMDL
MODEL      274
REMARK 921   NORMALIZED FREE ENERGY PREDICTED BY IDOCK:   -2.74 KCAL/MOL
REMARK 922        TOTAL FREE ENERGY PREDICTED BY IDOCK:   -3.69 KCAL/MOL
REMARK 923 INTER-LIGAND FREE ENERGY PREDICTED BY IDOCK:   -3.39 KCAL/MOL
REMARK 924 INTRA-LIGAND FREE ENERGY PREDICTED BY IDOCK:   -0.30 KCAL/MOL
REMARK 927      BINDING AFFINITY PREDICTED BY RF-SCORE:    0.00 PKD
ROOT
HETATM    1 CA   UNL     1      -8.546   6.853  68.743  1.00  0.00    -0.115 Ca 
HETATM    2  C   UNL     2      -9.683  10.810  68.867  1.00  0.00    -0.198 C  
HETATM    3  H   UNL     2     -11.409  11.393  69.669  1.00  0.00     0.000 HD 
HETATM    4  C   UNL     2      -8.577   9.814  69.240  1.00  0.00    -0.158 C  
HETATM    5  O   UNL     2     -10.724  10.777  69.900  1.00  0.00    -0.236 OA 
HETATM    6  O   UNL     2      -7.386  10.113  69.032  1.00  0.00    -0.075 OA 
HETATM    7  O   UNL     2      -8.959   8.662  69.678  1.00  0.00    -0.141 OA 
ENDROOT
BRANCH   2   8
HETATM    8  C   UNL     2     -10.398  10.464  67.551  1.00  0.00    -0.224 C  
HETATM    9  H   UNL     2     -12.089   9.583  67.100  1.00  0.00     0.000 HD 
HETATM   10  O   UNL     2     -11.647   9.796  67.913  1.00  0.00     0.064 OA 
BRANCH   8  11
HETATM   11  C   UNL     2     -10.789  11.594  66.551  1.00  0.00    -0.284 C  
HETATM   12  H   UNL     2     -12.354  12.729  66.310  1.00  0.00     0.000 HD 
HETATM   13  O   UNL     2     -12.115  12.040  66.920  1.00  0.00    -0.608 OA 
BRANCH  11  14
HETATM   14  C   UNL     2     -10.767  11.301  65.045  1.00  0.00    -0.256 C  
HETATM   15  C   UNL     2     -10.448  12.464  64.110  1.00  0.00    -0.389 C  
HETATM   16  O   UNL     2      -9.941  10.155  64.731  1.00  0.00    -0.331 OA 
HETATM   17  H   UNL     2      -9.927   9.973  63.798  1.00  0.00     0.000 HD 
HETATM   18  O   UNL     2     -10.251  13.640  64.533  1.00  0.00    -0.402 OA 
HETATM   19  O   UNL     2     -10.812  12.397  62.882  1.00  0.00    -0.034 OA 
ENDBRANCH  11  14
ENDBRANCH   8  11
ENDBRANCH   2   8
TORSDOF 3
ENDMDL
MODEL      275
REMARK 921   NORMALIZED FREE ENERGY PREDICTED BY IDOCK:   -2.73 KCAL/MOL
REMARK 922        TOTAL FREE ENERGY PREDICTED BY IDOCK:   -3.69 KCAL/MOL
REMARK 923 INTER-LIGAND FREE ENERGY PREDICTED BY IDOCK:   -3.27 KCAL/MOL
REMARK 924 INTRA-LIGAND FREE ENERGY PREDICTED BY IDOCK:   -0.42 KCAL/MOL
REMARK 927      BINDING AFFINITY PREDICTED BY RF-SCORE:    0.00 PKD
ROOT
HETATM    1 CA   UNL     1     -10.325   8.423  70.449  1.00  0.00    -0.186 Ca 
HETATM    2  C   UNL     2      -8.766   8.835  66.659  1.00  0.00    -0.125 C  
HETATM    3  H   UNL     2      -6.805   8.900  66.319  1.00  0.00     0.000 HD 
HETATM    4  C   UNL     2      -9.702   8.000  67.542  1.00  0.00    -0.161 C  
HETATM    5  O   UNL     2      -7.385   8.383  66.866  1.00  0.00    -0.081 OA 
HETATM    6  O   UNL     2     -10.812   7.647  67.099  1.00  0.00    -0.317 OA 
HETATM    7  O   UNL     2      -9.312   7.780  68.752  1.00  0.00    -0.146 OA 
ENDROOT
BRANCH   2   8
HETATM    8  C   UNL     2      -8.766  10.330  67.009  1.00  0.00    -0.129 C  
HETATM    9  H   UNL     2      -7.566  11.830  66.622  1.00  0.00     0.000 HD 
HETATM   10  O   UNL     2      -7.566  10.905  66.406  1.00  0.00    -0.139 OA 
BRANCH   8  11
HETATM   11  C   UNL     2      -9.950  11.240  66.563  1.00  0.00    -0.212 C  
HETATM   12  H   UNL     2     -10.720  11.741  64.845  1.00  0.00     0.000 HD 
HETATM   13  O   UNL     2      -9.998  11.187  65.118  1.00  0.00    -0.240 OA 
BRANCH  11  14
HETATM   14  C   UNL     2      -9.972  12.710  67.004  1.00  0.00    -0.219 C  
HETATM   15  C   UNL     2     -11.327  13.411  67.033  1.00  0.00    -0.317 C  
HETATM   16  O   UNL     2      -9.270  12.909  68.254  1.00  0.00    -0.204 OA 
HETATM   17  H   UNL     2      -9.284  13.819  68.527  1.00  0.00     0.000 HD 
HETATM   18  O   UNL     2     -12.396  12.839  66.671  1.00  0.00    -0.456 OA 
HETATM   19  O   UNL     2     -11.369  14.692  66.983  1.00  0.00    -0.333 OA 
ENDBRANCH  11  14
ENDBRANCH   8  11
ENDBRANCH   2   8
TORSDOF 3
ENDMDL
MODEL      276
REMARK 921   NORMALIZED FREE ENERGY PREDICTED BY IDOCK:   -2.73 KCAL/MOL
REMARK 922        TOTAL FREE ENERGY PREDICTED BY IDOCK:   -3.68 KCAL/MOL
REMARK 923 INTER-LIGAND FREE ENERGY PREDICTED BY IDOCK:   -2.97 KCAL/MOL
REMARK 924 INTRA-LIGAND FREE ENERGY PREDICTED BY IDOCK:   -0.71 KCAL/MOL
REMARK 927      BINDING AFFINITY PREDICTED BY RF-SCORE:    0.00 PKD
ROOT
HETATM    1 CA   UNL     1      -8.949   4.603  67.561  1.00  0.00    -0.106 Ca 
HETATM    2  C   UNL     2      -9.999   8.372  68.845  1.00  0.00    -0.187 C  
HETATM    3  H   UNL     2      -8.669   9.643  69.607  1.00  0.00     0.000 HD 
HETATM    4  C   UNL     2     -10.037   7.400  67.659  1.00  0.00    -0.186 C  
HETATM    5  O   UNL     2      -8.693   9.041  68.873  1.00  0.00    -0.133 OA 
HETATM    6  O   UNL     2     -11.084   7.281  66.995  1.00  0.00    -0.308 OA 
HETATM    7  O   UNL     2      -8.985   6.678  67.469  1.00  0.00    -0.116 OA 
ENDROOT
BRANCH   2   8
HETATM    8  C   UNL     2     -10.136   7.680  70.209  1.00  0.00    -0.198 C  
HETATM    9  H   UNL     2     -10.890   8.200  71.941  1.00  0.00     0.000 HD 
HETATM   10  O   UNL     2     -10.805   8.628  71.098  1.00  0.00    -0.234 OA 
BRANCH   8  11
HETATM   11  C   UNL     2     -10.928   6.343  70.334  1.00  0.00    -0.308 C  
HETATM   12  H   UNL     2     -12.801   5.879  70.599  1.00  0.00     0.000 HD 
HETATM   13  O   UNL     2     -12.318   6.694  70.523  1.00  0.00    -0.314 OA 
BRANCH  11  14
HETATM   14  C   UNL     2     -10.522   5.331  71.415  1.00  0.00    -0.203 C  
HETATM   15  C   UNL     2      -9.876   4.030  70.947  1.00  0.00    -0.159 C  
HETATM   16  O   UNL     2      -9.730   5.945  72.459  1.00  0.00    -0.158 OA 
HETATM   17  H   UNL     2      -9.479   5.318  73.127  1.00  0.00     0.000 HD 
HETATM   18  O   UNL     2      -9.712   3.755  69.723  1.00  0.00    -0.200 OA 
HETATM   19  O   UNL     2      -9.899   3.007  71.721  1.00  0.00    -0.164 OA 
ENDBRANCH  11  14
ENDBRANCH   8  11
ENDBRANCH   2   8
TORSDOF 3
ENDMDL
MODEL      277
REMARK 921   NORMALIZED FREE ENERGY PREDICTED BY IDOCK:   -2.72 KCAL/MOL
REMARK 922        TOTAL FREE ENERGY PREDICTED BY IDOCK:   -3.68 KCAL/MOL
REMARK 923 INTER-LIGAND FREE ENERGY PREDICTED BY IDOCK:   -3.78 KCAL/MOL
REMARK 924 INTRA-LIGAND FREE ENERGY PREDICTED BY IDOCK:    0.10 KCAL/MOL
REMARK 927      BINDING AFFINITY PREDICTED BY RF-SCORE:    0.00 PKD
ROOT
HETATM    1 CA   UNL     1     -13.639  14.191  65.698  1.00  0.00    -0.585 Ca 
HETATM    2  C   UNL     2     -10.290  11.813  65.394  1.00  0.00    -0.268 C  
HETATM    3  H   UNL     2     -10.408   9.843  65.133  1.00  0.00     0.000 HD 
HETATM    4  C   UNL     2     -11.007  13.043  64.821  1.00  0.00    -0.327 C  
HETATM    5  O   UNL     2     -10.851  10.604  64.779  1.00  0.00    -0.132 OA 
HETATM    6  O   UNL     2     -10.354  14.076  64.579  1.00  0.00    -0.419 OA 
HETATM    7  O   UNL     2     -12.289  12.963  64.704  1.00  0.00    -0.409 OA 
ENDROOT
BRANCH   2   8
HETATM    8  C   UNL     2     -10.492  11.637  66.907  1.00  0.00    -0.227 C  
HETATM    9  H   UNL     2     -11.993  11.077  68.034  1.00  0.00     0.000 HD 
HETATM   10  O   UNL     2     -11.869  11.186  67.099  1.00  0.00    -0.466 OA 
BRANCH   8  11
HETATM   11  C   UNL     2      -9.599  10.641  67.707  1.00  0.00    -0.157 C  
HETATM   12  H   UNL     2      -9.262  10.318  69.597  1.00  0.00     0.000 HD 
HETATM   13  O   UNL     2      -9.806  10.925  69.109  1.00  0.00    -0.205 OA 
BRANCH  11  14
HETATM   14  C   UNL     2      -8.090  10.600  67.428  1.00  0.00    -0.112 C  
HETATM   15  C   UNL     2      -7.303  11.890  67.643  1.00  0.00    -0.123 C  
HETATM   16  O   UNL     2      -7.447   9.494  68.105  1.00  0.00    -0.078 OA 
HETATM   17  H   UNL     2      -6.512   9.469  67.932  1.00  0.00     0.000 HD 
HETATM   18  O   UNL     2      -7.857  12.972  67.992  1.00  0.00    -0.121 OA 
HETATM   19  O   UNL     2      -6.174  12.039  67.052  1.00  0.00    -0.151 OA 
ENDBRANCH  11  14
ENDBRANCH   8  11
ENDBRANCH   2   8
TORSDOF 3
ENDMDL
MODEL      278
REMARK 921   NORMALIZED FREE ENERGY PREDICTED BY IDOCK:   -2.72 KCAL/MOL
REMARK 922        TOTAL FREE ENERGY PREDICTED BY IDOCK:   -3.67 KCAL/MOL
REMARK 923 INTER-LIGAND FREE ENERGY PREDICTED BY IDOCK:   -3.70 KCAL/MOL
REMARK 924 INTRA-LIGAND FREE ENERGY PREDICTED BY IDOCK:    0.02 KCAL/MOL
REMARK 927      BINDING AFFINITY PREDICTED BY RF-SCORE:    0.00 PKD
ROOT
HETATM    1 CA   UNL     1      -6.736  14.589  67.211  1.00  0.00    -0.143 Ca 
HETATM    2  C   UNL     2      -8.582  10.951  66.647  1.00  0.00    -0.148 C  
HETATM    3  H   UNL     2      -8.279   9.848  65.017  1.00  0.00     0.000 HD 
HETATM    4  C   UNL     2      -7.703  11.773  67.598  1.00  0.00    -0.137 C  
HETATM    5  O   UNL     2      -7.735  10.357  65.606  1.00  0.00    -0.143 OA 
HETATM    6  O   UNL     2      -7.940  11.758  68.821  1.00  0.00    -0.133 OA 
HETATM    7  O   UNL     2      -6.801  12.518  67.054  1.00  0.00    -0.097 OA 
ENDROOT
BRANCH   2   8
HETATM    8  C   UNL     2      -9.625  11.793  65.897  1.00  0.00    -0.230 C  
HETATM    9  H   UNL     2     -11.034  11.392  64.596  1.00  0.00     0.000 HD 
HETATM   10  O   UNL     2     -10.389  10.871  65.059  1.00  0.00    -0.285 OA 
BRANCH   8  11
HETATM   11  C   UNL     2     -10.678  12.626  66.690  1.00  0.00    -0.253 C  
HETATM   12  H   UNL     2     -10.721  14.423  67.438  1.00  0.00     0.000 HD 
HETATM   13  O   UNL     2     -10.080  13.915  66.955  1.00  0.00    -0.252 OA 
BRANCH  11  14
HETATM   14  C   UNL     2     -11.243  12.063  68.001  1.00  0.00    -0.258 C  
HETATM   15  C   UNL     2     -11.997  13.030  68.910  1.00  0.00    -0.263 C  
HETATM   16  O   UNL     2     -12.019  10.861  67.783  1.00  0.00    -0.691 OA 
HETATM   17  H   UNL     2     -12.369  10.513  68.595  1.00  0.00     0.000 HD 
HETATM   18  O   UNL     2     -12.126  14.259  68.636  1.00  0.00    -0.325 OA 
HETATM   19  O   UNL     2     -12.121  12.750  70.155  1.00  0.00    -0.342 OA 
ENDBRANCH  11  14
ENDBRANCH   8  11
ENDBRANCH   2   8
TORSDOF 3
ENDMDL
MODEL      279
REMARK 921   NORMALIZED FREE ENERGY PREDICTED BY IDOCK:   -2.71 KCAL/MOL
REMARK 922        TOTAL FREE ENERGY PREDICTED BY IDOCK:   -3.66 KCAL/MOL
REMARK 923 INTER-LIGAND FREE ENERGY PREDICTED BY IDOCK:   -3.17 KCAL/MOL
REMARK 924 INTRA-LIGAND FREE ENERGY PREDICTED BY IDOCK:   -0.50 KCAL/MOL
REMARK 927      BINDING AFFINITY PREDICTED BY RF-SCORE:    0.00 PKD
ROOT
HETATM    1 CA   UNL     1      -5.810   4.078  70.782  1.00  0.00    -0.009 Ca 
HETATM    2  C   UNL     2      -8.735   5.561  73.273  1.00  0.00    -0.115 C  
HETATM    3  H   UNL     2     -10.618   4.917  73.201  1.00  0.00     0.000 HD 
HETATM    4  C   UNL     2      -7.347   4.910  73.224  1.00  0.00    -0.087 C  
HETATM    5  O   UNL     2      -9.758   4.514  73.171  1.00  0.00    -0.132 OA 
HETATM    6  O   UNL     2      -6.437   5.349  73.952  1.00  0.00    -0.068 OA 
HETATM    7  O   UNL     2      -7.175   3.981  72.346  1.00  0.00    -0.053 OA 
ENDROOT
BRANCH   2   8
HETATM    8  C   UNL     2      -9.005   6.517  72.101  1.00  0.00    -0.139 C  
HETATM    9  H   UNL     2     -10.051   6.398  70.448  1.00  0.00     0.000 HD 
HETATM   10  O   UNL     2      -9.884   5.808  71.173  1.00  0.00    -0.172 OA 
BRANCH   8  11
HETATM   11  C   UNL     2      -9.675   7.901  72.354  1.00  0.00    -0.213 C  
HETATM   12  H   UNL     2      -9.202   9.482  73.388  1.00  0.00     0.000 HD 
HETATM   13  O   UNL     2      -8.794   8.638  73.233  1.00  0.00    -0.323 OA 
BRANCH  11  14
HETATM   14  C   UNL     2     -11.099   7.950  72.926  1.00  0.00    -0.379 C  
HETATM   15  C   UNL     2     -12.117   8.818  72.193  1.00  0.00    -0.371 C  
HETATM   16  O   UNL     2     -11.633   6.625  73.157  1.00  0.00    -0.469 OA 
HETATM   17  H   UNL     2     -12.514   6.655  73.511  1.00  0.00     0.000 HD 
HETATM   18  O   UNL     2     -11.813   9.513  71.180  1.00  0.00    -0.306 OA 
HETATM   19  O   UNL     2     -13.158   9.225  72.822  1.00  0.00    -0.331 OA 
ENDBRANCH  11  14
ENDBRANCH   8  11
ENDBRANCH   2   8
TORSDOF 3
ENDMDL
MODEL      280
REMARK 921   NORMALIZED FREE ENERGY PREDICTED BY IDOCK:   -2.71 KCAL/MOL
REMARK 922        TOTAL FREE ENERGY PREDICTED BY IDOCK:   -3.66 KCAL/MOL
REMARK 923 INTER-LIGAND FREE ENERGY PREDICTED BY IDOCK:   -3.03 KCAL/MOL
REMARK 924 INTRA-LIGAND FREE ENERGY PREDICTED BY IDOCK:   -0.63 KCAL/MOL
REMARK 927      BINDING AFFINITY PREDICTED BY RF-SCORE:    0.00 PKD
ROOT
HETATM    1 CA   UNL     1     -10.096   7.388  67.749  1.00  0.00    -0.143 Ca 
HETATM    2  C   UNL     2      -9.361  11.421  67.358  1.00  0.00    -0.167 C  
HETATM    3  H   UNL     2      -7.821  12.311  68.252  1.00  0.00     0.000 HD 
HETATM    4  C   UNL     2      -9.581  10.110  66.592  1.00  0.00    -0.183 C  
HETATM    5  O   UNL     2      -7.957  11.500  67.777  1.00  0.00    -0.118 OA 
HETATM    6  O   UNL     2     -10.326  10.100  65.594  1.00  0.00    -0.240 OA 
HETATM    7  O   UNL     2      -9.039   9.051  67.091  1.00  0.00    -0.134 OA 
ENDROOT
BRANCH   2   8
HETATM    8  C   UNL     2     -10.184  11.519  68.652  1.00  0.00    -0.208 C  
HETATM    9  H   UNL     2     -11.963  12.208  69.097  1.00  0.00     0.000 HD 
HETATM   10  O   UNL     2     -11.455  12.148  68.297  1.00  0.00    -0.259 OA 
BRANCH   8  11
HETATM   11  C   UNL     2     -10.549  10.231  69.449  1.00  0.00    -0.237 C  
HETATM   12  H   UNL     2     -12.012   9.718  70.627  1.00  0.00     0.000 HD 
HETATM   13  O   UNL     2     -11.789  10.503  70.141  1.00  0.00    -0.274 OA 
BRANCH  11  14
HETATM   14  C   UNL     2      -9.537   9.659  70.452  1.00  0.00    -0.234 C  
HETATM   15  C   UNL     2      -9.516   8.145  70.637  1.00  0.00    -0.162 C  
HETATM   16  O   UNL     2      -8.201  10.162  70.216  1.00  0.00    -0.346 OA 
HETATM   17  H   UNL     2      -7.575   9.808  70.837  1.00  0.00     0.000 HD 
HETATM   18  O   UNL     2     -10.319   7.375  70.034  1.00  0.00    -0.209 OA 
HETATM   19  O   UNL     2      -9.021   7.654  71.714  1.00  0.00    -0.117 OA 
ENDBRANCH  11  14
ENDBRANCH   8  11
ENDBRANCH   2   8
TORSDOF 3
ENDMDL
MODEL      281
REMARK 921   NORMALIZED FREE ENERGY PREDICTED BY IDOCK:   -2.71 KCAL/MOL
REMARK 922        TOTAL FREE ENERGY PREDICTED BY IDOCK:   -3.66 KCAL/MOL
REMARK 923 INTER-LIGAND FREE ENERGY PREDICTED BY IDOCK:   -3.16 KCAL/MOL
REMARK 924 INTRA-LIGAND FREE ENERGY PREDICTED BY IDOCK:   -0.50 KCAL/MOL
REMARK 927      BINDING AFFINITY PREDICTED BY RF-SCORE:    0.00 PKD
ROOT
HETATM    1 CA   UNL     1      -9.480   2.209  70.577  1.00  0.00    -0.076 Ca 
HETATM    2  C   UNL     2     -10.382   6.155  71.339  1.00  0.00    -0.214 C  
HETATM    3  H   UNL     2     -12.232   6.873  71.169  1.00  0.00     0.000 HD 
HETATM    4  C   UNL     2      -9.744   4.884  71.915  1.00  0.00    -0.163 C  
HETATM    5  O   UNL     2     -11.836   6.086  71.526  1.00  0.00    -0.215 OA 
HETATM    6  O   UNL     2      -8.662   4.963  72.527  1.00  0.00    -0.118 OA 
HETATM    7  O   UNL     2     -10.336   3.769  71.651  1.00  0.00    -0.054 OA 
ENDROOT
BRANCH   2   8
HETATM    8  C   UNL     2     -10.169   6.315  69.826  1.00  0.00    -0.187 C  
HETATM    9  H   UNL     2     -11.363   6.433  68.278  1.00  0.00     0.000 HD 
HETATM   10  O   UNL     2     -11.495   6.334  69.213  1.00  0.00    -0.411 OA 
BRANCH   8  11
HETATM   11  C   UNL     2      -9.419   7.561  69.267  1.00  0.00    -0.154 C  
HETATM   12  H   UNL     2      -7.913   8.639  69.871  1.00  0.00     0.000 HD 
HETATM   13  O   UNL     2      -8.371   7.879  70.212  1.00  0.00    -0.122 OA 
BRANCH  11  14
HETATM   14  C   UNL     2     -10.214   8.839  68.963  1.00  0.00    -0.207 C  
HETATM   15  C   UNL     2     -10.583   9.102  67.506  1.00  0.00    -0.249 C  
HETATM   16  O   UNL     2     -11.378   8.965  69.813  1.00  0.00    -0.438 OA 
HETATM   17  H   UNL     2     -11.870   9.756  69.624  1.00  0.00     0.000 HD 
HETATM   18  O   UNL     2     -10.221   8.337  66.565  1.00  0.00    -0.288 OA 
HETATM   19  O   UNL     2     -10.860  10.299  67.138  1.00  0.00    -0.262 OA 
ENDBRANCH  11  14
ENDBRANCH   8  11
ENDBRANCH   2   8
TORSDOF 3
ENDMDL
MODEL      282
REMARK 921   NORMALIZED FREE ENERGY PREDICTED BY IDOCK:   -2.71 KCAL/MOL
REMARK 922        TOTAL FREE ENERGY PREDICTED BY IDOCK:   -3.66 KCAL/MOL
REMARK 923 INTER-LIGAND FREE ENERGY PREDICTED BY IDOCK:   -3.70 KCAL/MOL
REMARK 924 INTRA-LIGAND FREE ENERGY PREDICTED BY IDOCK:    0.05 KCAL/MOL
REMARK 927      BINDING AFFINITY PREDICTED BY RF-SCORE:    0.00 PKD
ROOT
HETATM    1 CA   UNL     1     -12.234   6.699  66.661  1.00  0.00    -0.597 Ca 
HETATM    2  C   UNL     2      -9.530   8.831  68.920  1.00  0.00    -0.145 C  
HETATM    3  H   UNL     2      -7.697   8.153  69.300  1.00  0.00     0.000 HD 
HETATM    4  C   UNL     2     -10.452   8.883  67.695  1.00  0.00    -0.255 C  
HETATM    5  O   UNL     2      -8.267   8.186  68.541  1.00  0.00    -0.122 OA 
HETATM    6  O   UNL     2     -11.156   9.891  67.499  1.00  0.00    -0.257 OA 
HETATM    7  O   UNL     2     -10.511   7.818  66.970  1.00  0.00    -0.309 OA 
ENDROOT
BRANCH   2   8
HETATM    8  C   UNL     2     -10.093   7.987  70.074  1.00  0.00    -0.196 C  
HETATM    9  H   UNL     2     -11.676   8.115  71.221  1.00  0.00     0.000 HD 
HETATM   10  O   UNL     2     -11.328   8.637  70.508  1.00  0.00    -0.259 OA 
BRANCH   8  11
HETATM   11  C   UNL     2     -10.454   6.488  69.847  1.00  0.00    -0.213 C  
HETATM   12  H   UNL     2     -12.113   5.469  69.809  1.00  0.00     0.000 HD 
HETATM   13  O   UNL     2     -11.893   6.383  69.948  1.00  0.00    -0.384 OA 
BRANCH  11  14
HETATM   14  C   UNL     2      -9.815   5.419  70.744  1.00  0.00    -0.190 C  
HETATM   15  C   UNL     2     -10.240   5.392  72.210  1.00  0.00    -0.196 C  
HETATM   16  O   UNL     2      -9.912   4.098  70.163  1.00  0.00    -0.209 OA 
HETATM   17  H   UNL     2      -9.516   3.437  70.719  1.00  0.00     0.000 HD 
HETATM   18  O   UNL     2     -11.049   6.233  72.698  1.00  0.00    -0.242 OA 
HETATM   19  O   UNL     2      -9.472   4.834  73.072  1.00  0.00    -0.128 OA 
ENDBRANCH  11  14
ENDBRANCH   8  11
ENDBRANCH   2   8
TORSDOF 3
ENDMDL
MODEL      283
REMARK 921   NORMALIZED FREE ENERGY PREDICTED BY IDOCK:   -2.71 KCAL/MOL
REMARK 922        TOTAL FREE ENERGY PREDICTED BY IDOCK:   -3.66 KCAL/MOL
REMARK 923 INTER-LIGAND FREE ENERGY PREDICTED BY IDOCK:   -3.46 KCAL/MOL
REMARK 924 INTRA-LIGAND FREE ENERGY PREDICTED BY IDOCK:   -0.19 KCAL/MOL
REMARK 927      BINDING AFFINITY PREDICTED BY RF-SCORE:    0.00 PKD
ROOT
HETATM    1 CA   UNL     1      -8.464   6.738  67.439  1.00  0.00    -0.111 Ca 
HETATM    2  C   UNL     2      -9.043   9.700  70.242  1.00  0.00    -0.225 C  
HETATM    3  H   UNL     2      -8.553   9.461  72.156  1.00  0.00     0.000 HD 
HETATM    4  C   UNL     2      -8.398   9.366  68.890  1.00  0.00    -0.120 C  
HETATM    5  O   UNL     2      -8.153   9.254  71.319  1.00  0.00    -0.320 OA 
HETATM    6  O   UNL     2      -8.496  10.173  67.946  1.00  0.00    -0.117 OA 
HETATM    7  O   UNL     2      -7.853   8.202  68.782  1.00  0.00    -0.109 OA 
ENDROOT
BRANCH   2   8
HETATM    8  C   UNL     2     -10.376   8.973  70.480  1.00  0.00    -0.218 C  
HETATM    9  H   UNL     2     -12.188   9.160  69.759  1.00  0.00     0.000 HD 
HETATM   10  O   UNL     2     -11.365   9.610  69.612  1.00  0.00    -0.185 OA 
BRANCH   8  11
HETATM   11  C   UNL     2     -10.492   7.442  70.213  1.00  0.00    -0.221 C  
HETATM   12  H   UNL     2     -10.777   6.345  68.629  1.00  0.00     0.000 HD 
HETATM   13  O   UNL     2     -10.706   7.279  68.792  1.00  0.00    -0.200 OA 
BRANCH  11  14
HETATM   14  C   UNL     2     -11.551   6.629  70.970  1.00  0.00    -0.346 C  
HETATM   15  C   UNL     2     -11.216   6.197  72.394  1.00  0.00    -0.287 C  
HETATM   16  O   UNL     2     -12.852   7.261  70.923  1.00  0.00    -0.574 OA 
HETATM   17  H   UNL     2     -13.508   6.758  71.391  1.00  0.00     0.000 HD 
HETATM   18  O   UNL     2     -10.100   6.449  72.935  1.00  0.00    -0.175 OA 
HETATM   19  O   UNL     2     -11.842   5.204  72.910  1.00  0.00    -0.256 OA 
ENDBRANCH  11  14
ENDBRANCH   8  11
ENDBRANCH   2   8
TORSDOF 3
ENDMDL
MODEL      284
REMARK 921   NORMALIZED FREE ENERGY PREDICTED BY IDOCK:   -2.70 KCAL/MOL
REMARK 922        TOTAL FREE ENERGY PREDICTED BY IDOCK:   -3.64 KCAL/MOL
REMARK 923 INTER-LIGAND FREE ENERGY PREDICTED BY IDOCK:   -3.21 KCAL/MOL
REMARK 924 INTRA-LIGAND FREE ENERGY PREDICTED BY IDOCK:   -0.43 KCAL/MOL
REMARK 927      BINDING AFFINITY PREDICTED BY RF-SCORE:    0.00 PKD
ROOT
HETATM    1 CA   UNL     1      -6.516  12.234  67.104  1.00  0.00    -0.083 Ca 
HETATM    2  C   UNL     2      -8.668   8.841  68.008  1.00  0.00    -0.141 C  
HETATM    3  H   UNL     2      -8.074   7.026  67.444  1.00  0.00     0.000 HD 
HETATM    4  C   UNL     2      -7.992  10.086  68.596  1.00  0.00    -0.097 C  
HETATM    5  O   UNL     2      -7.656   7.797  67.808  1.00  0.00    -0.107 OA 
HETATM    6  O   UNL     2      -8.581  10.751  69.469  1.00  0.00    -0.045 OA 
HETATM    7  O   UNL     2      -6.862  10.431  68.076  1.00  0.00    -0.068 OA 
ENDROOT
BRANCH   2   8
HETATM    8  C   UNL     2      -9.293   9.079  66.625  1.00  0.00    -0.177 C  
HETATM    9  H   UNL     2     -10.741   8.235  65.611  1.00  0.00     0.000 HD 
HETATM   10  O   UNL     2     -10.355   8.088  66.466  1.00  0.00    -0.260 OA 
BRANCH   8  11
HETATM   11  C   UNL     2      -9.936  10.457  66.281  1.00  0.00    -0.226 C  
HETATM   12  H   UNL     2     -11.479  11.448  66.934  1.00  0.00     0.000 HD 
HETATM   13  O   UNL     2     -11.087  10.609  67.143  1.00  0.00    -0.282 OA 
BRANCH  11  14
HETATM   14  C   UNL     2     -10.359  10.745  64.834  1.00  0.00    -0.299 C  
HETATM   15  C   UNL     2     -10.399  12.206  64.395  1.00  0.00    -0.319 C  
HETATM   16  O   UNL     2      -9.612   9.949  63.885  1.00  0.00    -0.370 OA 
HETATM   17  H   UNL     2      -9.874  10.127  62.989  1.00  0.00     0.000 HD 
HETATM   18  O   UNL     2     -10.141  13.160  65.185  1.00  0.00    -0.281 OA 
HETATM   19  O   UNL     2     -11.116  12.535  63.384  1.00  0.00    -0.459 OA 
ENDBRANCH  11  14
ENDBRANCH   8  11
ENDBRANCH   2   8
TORSDOF 3
ENDMDL
MODEL      285
REMARK 921   NORMALIZED FREE ENERGY PREDICTED BY IDOCK:   -2.68 KCAL/MOL
REMARK 922        TOTAL FREE ENERGY PREDICTED BY IDOCK:   -3.63 KCAL/MOL
REMARK 923 INTER-LIGAND FREE ENERGY PREDICTED BY IDOCK:   -3.23 KCAL/MOL
REMARK 924 INTRA-LIGAND FREE ENERGY PREDICTED BY IDOCK:   -0.40 KCAL/MOL
REMARK 927      BINDING AFFINITY PREDICTED BY RF-SCORE:    0.00 PKD
ROOT
HETATM    1 CA   UNL     1      -6.538  15.848  66.461  1.00  0.00    -0.167 Ca 
HETATM    2  C   UNL     2      -8.190  12.391  67.971  1.00  0.00    -0.168 C  
HETATM    3  H   UNL     2      -8.288  10.709  66.909  1.00  0.00     0.000 HD 
HETATM    4  C   UNL     2      -7.138  13.482  68.210  1.00  0.00    -0.110 C  
HETATM    5  O   UNL     2      -7.637  11.385  67.058  1.00  0.00    -0.136 OA 
HETATM    6  O   UNL     2      -7.012  13.975  69.346  1.00  0.00    -0.110 OA 
HETATM    7  O   UNL     2      -6.490  13.897  67.174  1.00  0.00    -0.188 OA 
ENDROOT
BRANCH   2   8
HETATM    8  C   UNL     2      -9.466  12.909  67.289  1.00  0.00    -0.216 C  
HETATM    9  H   UNL     2     -10.660  12.211  65.902  1.00  0.00     0.000 HD 
HETATM   10  O   UNL     2      -9.871  11.890  66.323  1.00  0.00    -0.214 OA 
BRANCH   8  11
HETATM   11  C   UNL     2     -10.734  13.228  68.136  1.00  0.00    -0.249 C  
HETATM   12  H   UNL     2     -12.642  12.900  67.921  1.00  0.00     0.000 HD 
HETATM   13  O   UNL     2     -11.869  12.707  67.405  1.00  0.00    -0.364 OA 
BRANCH  11  14
HETATM   14  C   UNL     2     -11.026  14.682  68.530  1.00  0.00    -0.252 C  
HETATM   15  C   UNL     2     -11.914  14.912  69.749  1.00  0.00    -0.323 C  
HETATM   16  O   UNL     2      -9.814  15.467  68.629  1.00  0.00    -0.196 OA 
HETATM   17  H   UNL     2      -9.995  16.368  68.873  1.00  0.00     0.000 HD 
HETATM   18  O   UNL     2     -12.437  13.960  70.397  1.00  0.00    -0.336 OA 
HETATM   19  O   UNL     2     -12.519  16.036  69.878  1.00  0.00    -0.198 OA 
ENDBRANCH  11  14
ENDBRANCH   8  11
ENDBRANCH   2   8
TORSDOF 3
ENDMDL
MODEL      286
REMARK 921   NORMALIZED FREE ENERGY PREDICTED BY IDOCK:   -2.68 KCAL/MOL
REMARK 922        TOTAL FREE ENERGY PREDICTED BY IDOCK:   -3.63 KCAL/MOL
REMARK 923 INTER-LIGAND FREE ENERGY PREDICTED BY IDOCK:   -3.31 KCAL/MOL
REMARK 924 INTRA-LIGAND FREE ENERGY PREDICTED BY IDOCK:   -0.32 KCAL/MOL
REMARK 927      BINDING AFFINITY PREDICTED BY RF-SCORE:    0.00 PKD
ROOT
HETATM    1 CA   UNL     1      -8.264   5.124  68.343  1.00  0.00    -0.085 Ca 
HETATM    2  C   UNL     2     -10.466   8.512  69.142  1.00  0.00    -0.205 C  
HETATM    3  H   UNL     2      -9.696  10.076  70.105  1.00  0.00     0.000 HD 
HETATM    4  C   UNL     2      -9.993   7.560  68.036  1.00  0.00    -0.172 C  
HETATM    5  O   UNL     2      -9.404   9.486  69.420  1.00  0.00    -0.161 OA 
HETATM    6  O   UNL     2     -10.799   7.183  67.163  1.00  0.00    -0.333 OA 
HETATM    7  O   UNL     2      -8.782   7.125  68.125  1.00  0.00    -0.128 OA 
ENDROOT
BRANCH   2   8
HETATM    8  C   UNL     2     -10.740   7.808  70.480  1.00  0.00    -0.236 C  
HETATM    9  H   UNL     2     -12.001   6.431  71.071  1.00  0.00     0.000 HD 
HETATM   10  O   UNL     2     -11.832   6.866  70.244  1.00  0.00    -0.323 OA 
BRANCH   8  11
HETATM   11  C   UNL     2      -9.613   6.992  71.181  1.00  0.00    -0.165 C  
HETATM   12  H   UNL     2      -9.048   5.128  71.149  1.00  0.00     0.000 HD 
HETATM   13  O   UNL     2      -9.735   5.626  70.722  1.00  0.00    -0.166 OA 
BRANCH  11  14
HETATM   14  C   UNL     2      -9.531   6.993  72.714  1.00  0.00    -0.146 C  
HETATM   15  C   UNL     2      -8.666   8.067  73.368  1.00  0.00    -0.259 C  
HETATM   16  O   UNL     2     -10.843   6.956  73.324  1.00  0.00    -0.329 OA 
HETATM   17  H   UNL     2     -10.792   6.956  74.273  1.00  0.00     0.000 HD 
HETATM   18  O   UNL     2      -7.999   8.905  72.694  1.00  0.00    -0.377 OA 
HETATM   19  O   UNL     2      -8.231   7.878  74.559  1.00  0.00    -0.223 OA 
ENDBRANCH  11  14
ENDBRANCH   8  11
ENDBRANCH   2   8
TORSDOF 3
ENDMDL
MODEL      287
REMARK 921   NORMALIZED FREE ENERGY PREDICTED BY IDOCK:   -2.65 KCAL/MOL
REMARK 922        TOTAL FREE ENERGY PREDICTED BY IDOCK:   -3.58 KCAL/MOL
REMARK 923 INTER-LIGAND FREE ENERGY PREDICTED BY IDOCK:   -3.24 KCAL/MOL
REMARK 924 INTRA-LIGAND FREE ENERGY PREDICTED BY IDOCK:   -0.34 KCAL/MOL
REMARK 927      BINDING AFFINITY PREDICTED BY RF-SCORE:    0.00 PKD
ROOT
HETATM    1 CA   UNL     1     -10.321   2.268  67.724  1.00  0.00    -0.353 Ca 
HETATM    2  C   UNL     2      -8.622   5.718  66.250  1.00  0.00    -0.130 C  
HETATM    3  H   UNL     2      -6.769   6.274  66.720  1.00  0.00     0.000 HD 
HETATM    4  C   UNL     2      -9.312   4.403  65.868  1.00  0.00    -0.161 C  
HETATM    5  O   UNL     2      -7.196   5.459  66.484  1.00  0.00    -0.074 OA 
HETATM    6  O   UNL     2     -10.196   4.405  64.990  1.00  0.00    -0.197 OA 
HETATM    7  O   UNL     2      -8.992   3.360  66.557  1.00  0.00    -0.132 OA 
ENDROOT
BRANCH   2   8
HETATM    8  C   UNL     2      -9.149   6.329  67.557  1.00  0.00    -0.110 C  
HETATM    9  H   UNL     2      -9.206   8.142  68.299  1.00  0.00     0.000 HD 
HETATM   10  O   UNL     2      -8.879   7.764  67.490  1.00  0.00    -0.124 OA 
BRANCH   8  11
HETATM   11  C   UNL     2     -10.655   6.192  67.935  1.00  0.00    -0.263 C  
HETATM   12  H   UNL     2     -12.311   6.968  67.266  1.00  0.00     0.000 HD 
HETATM   13  O   UNL     2     -11.393   7.051  67.036  1.00  0.00    -0.238 OA 
BRANCH  11  14
HETATM   14  C   UNL     2     -11.095   6.489  69.376  1.00  0.00    -0.348 C  
HETATM   15  C   UNL     2     -10.411   5.704  70.491  1.00  0.00    -0.277 C  
HETATM   16  O   UNL     2     -11.073   7.907  69.665  1.00  0.00    -0.419 OA 
HETATM   17  H   UNL     2     -11.346   8.091  70.557  1.00  0.00     0.000 HD 
HETATM   18  O   UNL     2      -9.548   4.809  70.261  1.00  0.00    -0.163 OA 
HETATM   19  O   UNL     2     -10.997   5.595  71.628  1.00  0.00    -0.253 OA 
ENDBRANCH  11  14
ENDBRANCH   8  11
ENDBRANCH   2   8
TORSDOF 3
ENDMDL
MODEL      288
REMARK 921   NORMALIZED FREE ENERGY PREDICTED BY IDOCK:   -2.64 KCAL/MOL
REMARK 922        TOTAL FREE ENERGY PREDICTED BY IDOCK:   -3.58 KCAL/MOL
REMARK 923 INTER-LIGAND FREE ENERGY PREDICTED BY IDOCK:   -3.70 KCAL/MOL
REMARK 924 INTRA-LIGAND FREE ENERGY PREDICTED BY IDOCK:    0.12 KCAL/MOL
REMARK 927      BINDING AFFINITY PREDICTED BY RF-SCORE:    0.00 PKD
ROOT
HETATM    1 CA   UNL     1     -11.879   5.356  71.642  1.00  0.00    -0.202 Ca 
HETATM    2  C   UNL     2     -10.619   9.248  71.157  1.00  0.00    -0.332 C  
HETATM    3  H   UNL     2     -11.525  10.509  69.911  1.00  0.00     0.000 HD 
HETATM    4  C   UNL     2     -11.071   8.198  72.181  1.00  0.00    -0.321 C  
HETATM    5  O   UNL     2     -11.805   9.859  70.545  1.00  0.00    -0.270 OA 
HETATM    6  O   UNL     2     -10.451   8.080  73.255  1.00  0.00    -0.293 OA 
HETATM    7  O   UNL     2     -12.037   7.420  71.824  1.00  0.00    -0.289 OA 
ENDROOT
BRANCH   2   8
HETATM    8  C   UNL     2      -9.812   8.657  69.991  1.00  0.00    -0.179 C  
HETATM    9  H   UNL     2      -8.167   7.601  69.859  1.00  0.00     0.000 HD 
HETATM   10  O   UNL     2      -8.666   7.966  70.580  1.00  0.00    -0.133 OA 
BRANCH   8  11
HETATM   11  C   UNL     2     -10.473   7.638  69.016  1.00  0.00    -0.205 C  
HETATM   12  H   UNL     2     -10.056   5.825  68.439  1.00  0.00     0.000 HD 
HETATM   13  O   UNL     2      -9.653   6.447  69.034  1.00  0.00    -0.132 OA 
BRANCH  11  14
HETATM   14  C   UNL     2     -10.718   8.048  67.557  1.00  0.00    -0.168 C  
HETATM   15  C   UNL     2      -9.595   8.796  66.844  1.00  0.00    -0.190 C  
HETATM   16  O   UNL     2     -11.179   6.937  66.754  1.00  0.00    -0.591 OA 
HETATM   17  H   UNL     2     -11.330   7.191  65.851  1.00  0.00     0.000 HD 
HETATM   18  O   UNL     2      -8.516   9.115  67.423  1.00  0.00    -0.115 OA 
HETATM   19  O   UNL     2      -9.875   9.510  65.815  1.00  0.00    -0.285 OA 
ENDBRANCH  11  14
ENDBRANCH   8  11
ENDBRANCH   2   8
TORSDOF 3
ENDMDL
MODEL      289
REMARK 921   NORMALIZED FREE ENERGY PREDICTED BY IDOCK:   -2.64 KCAL/MOL
REMARK 922        TOTAL FREE ENERGY PREDICTED BY IDOCK:   -3.58 KCAL/MOL
REMARK 923 INTER-LIGAND FREE ENERGY PREDICTED BY IDOCK:   -4.25 KCAL/MOL
REMARK 924 INTRA-LIGAND FREE ENERGY PREDICTED BY IDOCK:    0.67 KCAL/MOL
REMARK 927      BINDING AFFINITY PREDICTED BY RF-SCORE:    0.00 PKD
ROOT
HETATM    1 CA   UNL     1      -9.579  13.258  69.328  1.00  0.00    -0.367 Ca 
HETATM    2  C   UNL     2     -10.765  16.316  66.836  1.00  0.00    -0.217 C  
HETATM    3  H   UNL     2     -10.394  16.295  64.880  1.00  0.00     0.000 HD 
HETATM    4  C   UNL     2     -11.242  15.294  67.876  1.00  0.00    -0.331 C  
HETATM    5  O   UNL     2     -10.690  15.663  65.524  1.00  0.00    -0.350 OA 
HETATM    6  O   UNL     2     -12.033  15.650  68.770  1.00  0.00    -0.348 OA 
HETATM    7  O   UNL     2     -10.715  14.118  67.815  1.00  0.00    -0.244 OA 
ENDROOT
BRANCH   2   8
HETATM    8  C   UNL     2      -9.352  16.853  67.110  1.00  0.00    -0.234 C  
HETATM    9  H   UNL     2      -7.714  17.011  66.046  1.00  0.00     0.000 HD 
HETATM   10  O   UNL     2      -8.588  16.679  65.876  1.00  0.00    -0.473 OA 
BRANCH   8  11
HETATM   11  C   UNL     2      -9.146  18.338  67.536  1.00  0.00    -0.253 C  
HETATM   12  H   UNL     2      -8.771  19.996  66.586  1.00  0.00     0.000 HD 
HETATM   13  O   UNL     2      -8.896  19.091  66.327  1.00  0.00    -0.338 OA 
BRANCH  11  14
HETATM   14  C   UNL     2      -8.058  18.678  68.564  1.00  0.00    -0.341 C  
HETATM   15  C   UNL     2      -7.097  17.561  68.960  1.00  0.00    -0.234 C  
HETATM   16  O   UNL     2      -7.327  19.873  68.201  1.00  0.00    -0.295 OA 
HETATM   17  H   UNL     2      -6.654  20.084  68.838  1.00  0.00     0.000 HD 
HETATM   18  O   UNL     2      -7.199  16.385  68.508  1.00  0.00    -0.155 OA 
HETATM   19  O   UNL     2      -6.463  17.648  70.072  1.00  0.00    -0.068 OA 
ENDBRANCH  11  14
ENDBRANCH   8  11
ENDBRANCH   2   8
TORSDOF 3
ENDMDL
MODEL      290
REMARK 921   NORMALIZED FREE ENERGY PREDICTED BY IDOCK:   -2.63 KCAL/MOL
REMARK 922        TOTAL FREE ENERGY PREDICTED BY IDOCK:   -3.57 KCAL/MOL
REMARK 923 INTER-LIGAND FREE ENERGY PREDICTED BY IDOCK:   -3.74 KCAL/MOL
REMARK 924 INTRA-LIGAND FREE ENERGY PREDICTED BY IDOCK:    0.16 KCAL/MOL
REMARK 927      BINDING AFFINITY PREDICTED BY RF-SCORE:    0.00 PKD
ROOT
HETATM    1 CA   UNL     1     -10.425  14.279  70.485  1.00  0.00    -0.433 Ca 
HETATM    2  C   UNL     2      -7.892  14.909  67.299  1.00  0.00    -0.206 C  
HETATM    3  H   UNL     2      -8.513  15.730  65.595  1.00  0.00     0.000 HD 
HETATM    4  C   UNL     2      -8.112  15.176  68.794  1.00  0.00    -0.166 C  
HETATM    5  O   UNL     2      -8.649  15.896  66.521  1.00  0.00    -0.256 OA 
HETATM    6  O   UNL     2      -7.161  15.048  69.588  1.00  0.00    -0.176 OA 
HETATM    7  O   UNL     2      -9.320  15.439  69.163  1.00  0.00    -0.213 OA 
ENDROOT
BRANCH   2   8
HETATM    8  C   UNL     2      -8.410  13.537  66.840  1.00  0.00     0.008 C  
HETATM    9  H   UNL     2      -7.854  11.685  67.156  1.00  0.00     0.000 HD 
HETATM   10  O   UNL     2      -7.533  12.533  67.440  1.00  0.00    -0.142 OA 
BRANCH   8  11
HETATM   11  C   UNL     2      -9.865  13.094  67.180  1.00  0.00    -0.235 C  
HETATM   12  H   UNL     2     -10.654  11.827  68.430  1.00  0.00     0.000 HD 
HETATM   13  O   UNL     2      -9.768  12.096  68.223  1.00  0.00    -0.209 OA 
BRANCH  11  14
HETATM   14  C   UNL     2     -10.764  12.553  66.060  1.00  0.00    -0.262 C  
HETATM   15  C   UNL     2     -10.240  11.368  65.254  1.00  0.00    -0.270 C  
HETATM   16  O   UNL     2     -12.110  12.297  66.525  1.00  0.00    -0.616 OA 
HETATM   17  H   UNL     2     -12.667  11.962  65.831  1.00  0.00     0.000 HD 
HETATM   18  O   UNL     2      -9.097  10.863  65.453  1.00  0.00    -0.191 OA 
HETATM   19  O   UNL     2     -10.722  11.145  64.086  1.00  0.00    -0.368 OA 
ENDBRANCH  11  14
ENDBRANCH   8  11
ENDBRANCH   2   8
TORSDOF 3
ENDMDL
MODEL      291
REMARK 921   NORMALIZED FREE ENERGY PREDICTED BY IDOCK:   -2.63 KCAL/MOL
REMARK 922        TOTAL FREE ENERGY PREDICTED BY IDOCK:   -3.57 KCAL/MOL
REMARK 923 INTER-LIGAND FREE ENERGY PREDICTED BY IDOCK:   -3.38 KCAL/MOL
REMARK 924 INTRA-LIGAND FREE ENERGY PREDICTED BY IDOCK:   -0.19 KCAL/MOL
REMARK 927      BINDING AFFINITY PREDICTED BY RF-SCORE:    0.00 PKD
ROOT
HETATM    1 CA   UNL     1     -10.687   9.216  72.247  1.00  0.00    -0.291 Ca 
HETATM    2  C   UNL     2      -9.103   9.940  68.515  1.00  0.00    -0.125 C  
HETATM    3  H   UNL     2      -7.573  11.183  68.234  1.00  0.00     0.000 HD 
HETATM    4  C   UNL     2      -9.461   8.848  69.531  1.00  0.00    -0.159 C  
HETATM    5  O   UNL     2      -7.795  10.506  68.863  1.00  0.00    -0.105 OA 
HETATM    6  O   UNL     2     -10.029   7.809  69.142  1.00  0.00    -0.174 OA 
HETATM    7  O   UNL     2      -9.228   9.112  70.771  1.00  0.00    -0.224 OA 
ENDROOT
BRANCH   2   8
HETATM    8  C   UNL     2     -10.080  11.127  68.523  1.00  0.00    -0.201 C  
HETATM    9  H   UNL     2      -9.908  13.046  68.170  1.00  0.00     0.000 HD 
HETATM   10  O   UNL     2      -9.304  12.313  68.166  1.00  0.00    -0.196 OA 
BRANCH   8  11
HETATM   11  C   UNL     2     -11.322  11.126  67.582  1.00  0.00    -0.284 C  
HETATM   12  H   UNL     2     -12.103   9.841  66.345  1.00  0.00     0.000 HD 
HETATM   13  O   UNL     2     -11.345   9.841  66.918  1.00  0.00     0.183 OA 
BRANCH  11  14
HETATM   14  C   UNL     2     -11.461  12.231  66.526  1.00  0.00    -0.381 C  
HETATM   15  C   UNL     2     -11.867  13.619  67.015  1.00  0.00    -0.408 C  
HETATM   16  O   UNL     2     -10.295  12.314  65.674  1.00  0.00    -0.245 OA 
HETATM   17  H   UNL     2     -10.381  12.998  65.020  1.00  0.00     0.000 HD 
HETATM   18  O   UNL     2     -12.127  13.862  68.229  1.00  0.00    -0.366 OA 
HETATM   19  O   UNL     2     -12.393  14.444  66.185  1.00  0.00    -0.401 OA 
ENDBRANCH  11  14
ENDBRANCH   8  11
ENDBRANCH   2   8
TORSDOF 3
ENDMDL
MODEL      292
REMARK 921   NORMALIZED FREE ENERGY PREDICTED BY IDOCK:   -2.63 KCAL/MOL
REMARK 922        TOTAL FREE ENERGY PREDICTED BY IDOCK:   -3.57 KCAL/MOL
REMARK 923 INTER-LIGAND FREE ENERGY PREDICTED BY IDOCK:   -3.40 KCAL/MOL
REMARK 924 INTRA-LIGAND FREE ENERGY PREDICTED BY IDOCK:   -0.16 KCAL/MOL
REMARK 927      BINDING AFFINITY PREDICTED BY RF-SCORE:    0.00 PKD
ROOT
HETATM    1 CA   UNL     1      -9.181   4.111  72.128  1.00  0.00    -0.105 Ca 
HETATM    2  C   UNL     2     -11.456   7.459  71.366  1.00  0.00    -0.263 C  
HETATM    3  H   UNL     2     -12.953   7.449  70.054  1.00  0.00     0.000 HD 
HETATM    4  C   UNL     2     -10.949   6.515  72.464  1.00  0.00    -0.248 C  
HETATM    5  O   UNL     2     -12.639   6.865  70.734  1.00  0.00    -0.324 OA 
HETATM    6  O   UNL     2     -10.520   6.989  73.533  1.00  0.00    -0.311 OA 
HETATM    7  O   UNL     2     -10.913   5.258  72.175  1.00  0.00    -0.223 OA 
ENDROOT
BRANCH   2   8
HETATM    8  C   UNL     2     -10.445   7.673  70.229  1.00  0.00    -0.224 C  
HETATM    9  H   UNL     2      -9.836   6.592  68.713  1.00  0.00     0.000 HD 
HETATM   10  O   UNL     2     -10.461   6.459  69.416  1.00  0.00    -0.191 OA 
BRANCH   8  11
HETATM   11  C   UNL     2     -10.624   8.859  69.234  1.00  0.00    -0.207 C  
HETATM   12  H   UNL     2     -10.846   9.006  67.305  1.00  0.00     0.000 HD 
HETATM   13  O   UNL     2     -10.737   8.284  67.912  1.00  0.00    -0.178 OA 
BRANCH  11  14
HETATM   14  C   UNL     2      -9.570   9.974  69.200  1.00  0.00    -0.210 C  
HETATM   15  C   UNL     2     -10.020  11.348  68.712  1.00  0.00    -0.177 C  
HETATM   16  O   UNL     2      -8.864  10.088  70.458  1.00  0.00    -0.332 OA 
HETATM   17  H   UNL     2      -8.212  10.778  70.437  1.00  0.00     0.000 HD 
HETATM   18  O   UNL     2     -11.197  11.572  68.304  1.00  0.00    -0.219 OA 
HETATM   19  O   UNL     2      -9.142  12.174  68.274  1.00  0.00    -0.193 OA 
ENDBRANCH  11  14
ENDBRANCH   8  11
ENDBRANCH   2   8
TORSDOF 3
ENDMDL
MODEL      293
REMARK 921   NORMALIZED FREE ENERGY PREDICTED BY IDOCK:   -2.62 KCAL/MOL
REMARK 922        TOTAL FREE ENERGY PREDICTED BY IDOCK:   -3.56 KCAL/MOL
REMARK 923 INTER-LIGAND FREE ENERGY PREDICTED BY IDOCK:   -3.08 KCAL/MOL
REMARK 924 INTRA-LIGAND FREE ENERGY PREDICTED BY IDOCK:   -0.48 KCAL/MOL
REMARK 927      BINDING AFFINITY PREDICTED BY RF-SCORE:    0.00 PKD
ROOT
HETATM    1 CA   UNL     1     -10.770  18.382  65.245  1.00  0.00    -0.410 Ca 
HETATM    2  C   UNL     2      -7.626  19.865  67.454  1.00  0.00    -0.273 C  
HETATM    3  H   UNL     2      -5.945  20.514  66.606  1.00  0.00     0.000 HD 
HETATM    4  C   UNL     2      -9.127  20.001  67.167  1.00  0.00    -0.363 C  
HETATM    5  O   UNL     2      -6.875  20.599  66.429  1.00  0.00    -0.255 OA 
HETATM    6  O   UNL     2      -9.923  20.143  68.115  1.00  0.00    -0.392 OA 
HETATM    7  O   UNL     2      -9.495  19.870  65.938  1.00  0.00    -0.365 OA 
ENDROOT
BRANCH   2   8
HETATM    8  C   UNL     2      -7.118  18.417  67.379  1.00  0.00    -0.204 C  
HETATM    9  H   UNL     2      -5.752  17.496  66.319  1.00  0.00     0.000 HD 
HETATM   10  O   UNL     2      -6.066  18.391  66.365  1.00  0.00    -0.149 OA 
BRANCH   8  11
HETATM   11  C   UNL     2      -6.514  17.731  68.642  1.00  0.00    -0.210 C  
HETATM   12  H   UNL     2      -5.173  18.230  69.962  1.00  0.00     0.000 HD 
HETATM   13  O   UNL     2      -5.541  18.648  69.193  1.00  0.00    -0.199 OA 
BRANCH  11  14
HETATM   14  C   UNL     2      -5.867  16.346  68.504  1.00  0.00    -0.112 C  
HETATM   15  C   UNL     2      -6.007  15.388  69.683  1.00  0.00    -0.130 C  
HETATM   16  O   UNL     2      -6.247  15.693  67.270  1.00  0.00    -0.293 OA 
HETATM   17  H   UNL     2      -5.846  14.836  67.185  1.00  0.00     0.000 HD 
HETATM   18  O   UNL     2      -6.590  15.714  70.758  1.00  0.00     0.372 OA 
HETATM   19  O   UNL     2      -5.173  14.421  69.806  1.00  0.00    -0.092 OA 
ENDBRANCH  11  14
ENDBRANCH   8  11
ENDBRANCH   2   8
TORSDOF 3
ENDMDL
MODEL      294
REMARK 921   NORMALIZED FREE ENERGY PREDICTED BY IDOCK:   -2.59 KCAL/MOL
REMARK 922        TOTAL FREE ENERGY PREDICTED BY IDOCK:   -3.52 KCAL/MOL
REMARK 923 INTER-LIGAND FREE ENERGY PREDICTED BY IDOCK:   -3.33 KCAL/MOL
REMARK 924 INTRA-LIGAND FREE ENERGY PREDICTED BY IDOCK:   -0.19 KCAL/MOL
REMARK 927      BINDING AFFINITY PREDICTED BY RF-SCORE:    0.00 PKD
ROOT
HETATM    1 CA   UNL     1      -8.856  19.046  69.806  1.00  0.00    -0.089 Ca 
HETATM    2  C   UNL     2      -7.154  16.791  66.809  1.00  0.00    -0.235 C  
HETATM    3  H   UNL     2      -8.180  16.212  65.203  1.00  0.00     0.000 HD 
HETATM    4  C   UNL     2      -7.028  18.083  67.627  1.00  0.00    -0.200 C  
HETATM    5  O   UNL     2      -8.101  17.012  65.710  1.00  0.00    -0.460 OA 
HETATM    6  O   UNL     2      -5.915  18.424  68.069  1.00  0.00    -0.174 OA 
HETATM    7  O   UNL     2      -8.124  18.710  67.890  1.00  0.00    -0.255 OA 
ENDROOT
BRANCH   2   8
HETATM    8  C   UNL     2      -7.723  15.611  67.612  1.00  0.00    -0.156 C  
HETATM    9  H   UNL     2      -6.987  13.919  68.270  1.00  0.00     0.000 HD 
HETATM   10  O   UNL     2      -6.635  14.648  67.773  1.00  0.00    -0.149 OA 
BRANCH   8  11
HETATM   11  C   UNL     2      -8.307  15.842  69.038  1.00  0.00    -0.239 C  
HETATM   12  H   UNL     2      -7.637  15.591  70.850  1.00  0.00     0.000 HD 
HETATM   13  O   UNL     2      -7.282  15.450  69.980  1.00  0.00    -0.115 OA 
BRANCH  11  14
HETATM   14  C   UNL     2      -9.624  15.158  69.428  1.00  0.00    -0.192 C  
HETATM   15  C   UNL     2     -10.886  15.599  68.691  1.00  0.00    -0.273 C  
HETATM   16  O   UNL     2      -9.507  13.716  69.416  1.00  0.00    -0.117 OA 
HETATM   17  H   UNL     2     -10.323  13.292  69.657  1.00  0.00     0.000 HD 
HETATM   18  O   UNL     2     -10.879  16.520  67.824  1.00  0.00    -0.341 OA 
HETATM   19  O   UNL     2     -12.030  15.389  69.232  1.00  0.00    -0.332 OA 
ENDBRANCH  11  14
ENDBRANCH   8  11
ENDBRANCH   2   8
TORSDOF 3
ENDMDL
MODEL      295
REMARK 921   NORMALIZED FREE ENERGY PREDICTED BY IDOCK:   -2.59 KCAL/MOL
REMARK 922        TOTAL FREE ENERGY PREDICTED BY IDOCK:   -3.52 KCAL/MOL
REMARK 923 INTER-LIGAND FREE ENERGY PREDICTED BY IDOCK:   -3.15 KCAL/MOL
REMARK 924 INTRA-LIGAND FREE ENERGY PREDICTED BY IDOCK:   -0.37 KCAL/MOL
REMARK 927      BINDING AFFINITY PREDICTED BY RF-SCORE:    0.00 PKD
ROOT
HETATM    1 CA   UNL     1      -9.379  11.268  67.329  1.00  0.00    -0.153 Ca 
HETATM    2  C   UNL     2     -10.830   8.927  70.392  1.00  0.00    -0.236 C  
HETATM    3  H   UNL     2      -9.685   8.337  71.910  1.00  0.00     0.000 HD 
HETATM    4  C   UNL     2     -11.034  10.231  69.611  1.00  0.00    -0.270 C  
HETATM    5  O   UNL     2      -9.812   9.144  71.427  1.00  0.00    -0.298 OA 
HETATM    6  O   UNL     2     -12.181  10.561  69.254  1.00  0.00    -0.213 OA 
HETATM    7  O   UNL     2      -9.970  10.883  69.284  1.00  0.00    -0.196 OA 
ENDROOT
BRANCH   2   8
HETATM    8  C   UNL     2     -10.299   7.773  69.528  1.00  0.00    -0.219 C  
HETATM    9  H   UNL     2      -8.540   6.949  69.271  1.00  0.00     0.000 HD 
HETATM   10  O   UNL     2      -8.868   7.663  69.805  1.00  0.00    -0.139 OA 
BRANCH   8  11
HETATM   11  C   UNL     2     -10.880   6.337  69.694  1.00  0.00    -0.339 C  
HETATM   12  H   UNL     2     -12.606   5.611  70.230  1.00  0.00     0.000 HD 
HETATM   13  O   UNL     2     -12.252   6.487  70.129  1.00  0.00    -0.229 OA 
BRANCH  11  14
HETATM   14  C   UNL     2     -10.171   5.345  70.628  1.00  0.00    -0.253 C  
HETATM   15  C   UNL     2      -9.428   4.182  69.978  1.00  0.00    -0.190 C  
HETATM   16  O   UNL     2      -9.322   6.020  71.586  1.00  0.00    -0.149 OA 
HETATM   17  H   UNL     2      -8.883   5.406  72.163  1.00  0.00     0.000 HD 
HETATM   18  O   UNL     2      -9.420   3.996  68.726  1.00  0.00    -0.153 OA 
HETATM   19  O   UNL     2      -9.185   3.131  70.671  1.00  0.00    -0.110 OA 
ENDBRANCH  11  14
ENDBRANCH   8  11
ENDBRANCH   2   8
TORSDOF 3
ENDMDL
MODEL      296
REMARK 921   NORMALIZED FREE ENERGY PREDICTED BY IDOCK:   -2.58 KCAL/MOL
REMARK 922        TOTAL FREE ENERGY PREDICTED BY IDOCK:   -3.51 KCAL/MOL
REMARK 923 INTER-LIGAND FREE ENERGY PREDICTED BY IDOCK:   -3.75 KCAL/MOL
REMARK 924 INTRA-LIGAND FREE ENERGY PREDICTED BY IDOCK:    0.24 KCAL/MOL
REMARK 927      BINDING AFFINITY PREDICTED BY RF-SCORE:    0.00 PKD
ROOT
HETATM    1 CA   UNL     1      -7.603   4.408  68.328  1.00  0.00    -0.061 Ca 
HETATM    2  C   UNL     2     -10.933   6.664  67.445  1.00  0.00    -0.360 C  
HETATM    3  H   UNL     2     -10.888   8.654  67.406  1.00  0.00     0.000 HD 
HETATM    4  C   UNL     2     -10.022   5.533  66.950  1.00  0.00    -0.179 C  
HETATM    5  O   UNL     2     -10.324   7.954  67.100  1.00  0.00    -0.268 OA 
HETATM    6  O   UNL     2     -10.529   4.506  66.461  1.00  0.00    -0.209 OA 
HETATM    7  O   UNL     2      -8.757   5.678  67.156  1.00  0.00    -0.110 OA 
ENDROOT
BRANCH   2   8
HETATM    8  C   UNL     2     -11.109   6.686  68.971  1.00  0.00    -0.257 C  
HETATM    9  H   UNL     2     -10.828   5.378  70.402  1.00  0.00     0.000 HD 
HETATM   10  O   UNL     2     -10.720   5.364  69.459  1.00  0.00    -0.295 OA 
BRANCH   8  11
HETATM   11  C   UNL     2     -10.319   7.713  69.836  1.00  0.00    -0.225 C  
HETATM   12  H   UNL     2      -9.370   7.630  71.535  1.00  0.00     0.000 HD 
HETATM   13  O   UNL     2      -9.852   7.004  71.008  1.00  0.00    -0.181 OA 
BRANCH  11  14
HETATM   14  C   UNL     2     -11.014   9.006  70.285  1.00  0.00    -0.244 C  
HETATM   15  C   UNL     2     -11.986   8.906  71.458  1.00  0.00    -0.333 C  
HETATM   16  O   UNL     2     -10.070  10.081  70.498  1.00  0.00    -0.376 OA 
HETATM   17  H   UNL     2     -10.501  10.881  70.776  1.00  0.00     0.000 HD 
HETATM   18  O   UNL     2     -12.257   7.807  72.024  1.00  0.00    -0.295 OA 
HETATM   19  O   UNL     2     -12.881   9.813  71.606  1.00  0.00    -0.356 OA 
ENDBRANCH  11  14
ENDBRANCH   8  11
ENDBRANCH   2   8
TORSDOF 3
ENDMDL
MODEL      297
REMARK 921   NORMALIZED FREE ENERGY PREDICTED BY IDOCK:   -2.57 KCAL/MOL
REMARK 922        TOTAL FREE ENERGY PREDICTED BY IDOCK:   -3.49 KCAL/MOL
REMARK 923 INTER-LIGAND FREE ENERGY PREDICTED BY IDOCK:   -2.70 KCAL/MOL
REMARK 924 INTRA-LIGAND FREE ENERGY PREDICTED BY IDOCK:   -0.79 KCAL/MOL
REMARK 927      BINDING AFFINITY PREDICTED BY RF-SCORE:    0.00 PKD
ROOT
HETATM    1 CA   UNL     1     -11.617   5.614  69.716  1.00  0.00    -0.348 Ca 
HETATM    2  C   UNL     2     -10.478   9.269  71.235  1.00  0.00    -0.338 C  
HETATM    3  H   UNL     2     -11.006  10.986  70.376  1.00  0.00     0.000 HD 
HETATM    4  C   UNL     2     -11.176   7.942  71.561  1.00  0.00    -0.249 C  
HETATM    5  O   UNL     2     -11.437  10.165  70.578  1.00  0.00    -0.287 OA 
HETATM    6  O   UNL     2     -10.925   7.363  72.635  1.00  0.00    -0.266 OA 
HETATM    7  O   UNL     2     -11.935   7.447  70.642  1.00  0.00    -0.266 OA 
ENDROOT
BRANCH   2   8
HETATM    8  C   UNL     2      -9.311   9.120  70.247  1.00  0.00    -0.220 C  
HETATM    9  H   UNL     2      -7.658  10.118  69.918  1.00  0.00     0.000 HD 
HETATM   10  O   UNL     2      -8.379  10.211  70.528  1.00  0.00    -0.025 OA 
BRANCH   8  11
HETATM   11  C   UNL     2      -8.456   7.817  70.234  1.00  0.00    -0.133 C  
HETATM   12  H   UNL     2      -6.550   7.429  70.324  1.00  0.00     0.000 HD 
HETATM   13  O   UNL     2      -7.071   8.223  70.331  1.00  0.00    -0.037 OA 
BRANCH  11  14
HETATM   14  C   UNL     2      -8.603   6.837  69.062  1.00  0.00    -0.131 C  
HETATM   15  C   UNL     2      -8.425   5.352  69.365  1.00  0.00    -0.099 C  
HETATM   16  O   UNL     2      -9.826   7.062  68.321  1.00  0.00    -0.140 OA 
HETATM   17  H   UNL     2      -9.917   6.455  67.595  1.00  0.00     0.000 HD 
HETATM   18  O   UNL     2      -8.125   4.926  70.518  1.00  0.00    -0.081 OA 
HETATM   19  O   UNL     2      -8.126   4.551  68.409  1.00  0.00    -0.082 OA 
ENDBRANCH  11  14
ENDBRANCH   8  11
ENDBRANCH   2   8
TORSDOF 3
ENDMDL
MODEL      298
REMARK 921   NORMALIZED FREE ENERGY PREDICTED BY IDOCK:   -2.57 KCAL/MOL
REMARK 922        TOTAL FREE ENERGY PREDICTED BY IDOCK:   -3.49 KCAL/MOL
REMARK 923 INTER-LIGAND FREE ENERGY PREDICTED BY IDOCK:   -3.35 KCAL/MOL
REMARK 924 INTRA-LIGAND FREE ENERGY PREDICTED BY IDOCK:   -0.14 KCAL/MOL
REMARK 927      BINDING AFFINITY PREDICTED BY RF-SCORE:    0.00 PKD
ROOT
HETATM    1 CA   UNL     1      -9.483  11.010  67.081  1.00  0.00    -0.154 Ca 
HETATM    2  C   UNL     2     -10.074   9.060  70.660  1.00  0.00    -0.229 C  
HETATM    3  H   UNL     2      -8.575   8.640  71.901  1.00  0.00     0.000 HD 
HETATM    4  C   UNL     2     -10.493  10.266  69.809  1.00  0.00    -0.259 C  
HETATM    5  O   UNL     2      -8.834   9.387  71.374  1.00  0.00    -0.281 OA 
HETATM    6  O   UNL     2     -11.700  10.563  69.716  1.00  0.00    -0.263 OA 
HETATM    7  O   UNL     2      -9.558  10.864  69.153  1.00  0.00    -0.186 OA 
ENDROOT
BRANCH   2   8
HETATM    8  C   UNL     2      -9.755   7.807  69.831  1.00  0.00    -0.176 C  
HETATM    9  H   UNL     2      -8.189   7.190  68.827  1.00  0.00     0.000 HD 
HETATM   10  O   UNL     2      -8.387   7.964  69.340  1.00  0.00    -0.128 OA 
BRANCH   8  11
HETATM   11  C   UNL     2      -9.816   6.395  70.487  1.00  0.00    -0.183 C  
HETATM   12  H   UNL     2      -9.410   4.587  69.888  1.00  0.00     0.000 HD 
HETATM   13  O   UNL     2      -9.373   5.448  69.488  1.00  0.00    -0.117 OA 
BRANCH  11  14
HETATM   14  C   UNL     2     -11.143   5.903  71.081  1.00  0.00    -0.236 C  
HETATM   15  C   UNL     2     -11.225   5.777  72.600  1.00  0.00    -0.301 C  
HETATM   16  O   UNL     2     -12.272   6.650  70.571  1.00  0.00    -0.494 OA 
HETATM   17  H   UNL     2     -13.094   6.345  70.939  1.00  0.00     0.000 HD 
HETATM   18  O   UNL     2     -10.240   6.020  73.356  1.00  0.00    -0.189 OA 
HETATM   19  O   UNL     2     -12.111   5.007  73.116  1.00  0.00    -0.153 OA 
ENDBRANCH  11  14
ENDBRANCH   8  11
ENDBRANCH   2   8
TORSDOF 3
ENDMDL
MODEL      299
REMARK 921   NORMALIZED FREE ENERGY PREDICTED BY IDOCK:   -2.57 KCAL/MOL
REMARK 922        TOTAL FREE ENERGY PREDICTED BY IDOCK:   -3.49 KCAL/MOL
REMARK 923 INTER-LIGAND FREE ENERGY PREDICTED BY IDOCK:   -3.58 KCAL/MOL
REMARK 924 INTRA-LIGAND FREE ENERGY PREDICTED BY IDOCK:    0.09 KCAL/MOL
REMARK 927      BINDING AFFINITY PREDICTED BY RF-SCORE:    0.00 PKD
ROOT
HETATM    1 CA   UNL     1      -9.471   8.460  62.788  1.00  0.00    -0.421 Ca 
HETATM    2  C   UNL     2      -7.604  10.434  65.883  1.00  0.00    -0.146 C  
HETATM    3  H   UNL     2      -7.580   9.715  67.740  1.00  0.00     0.000 HD 
HETATM    4  C   UNL     2      -7.415   9.852  64.476  1.00  0.00    -0.140 C  
HETATM    5  O   UNL     2      -7.463   9.355  66.868  1.00  0.00    -0.090 OA 
HETATM    6  O   UNL     2      -6.794  10.508  63.618  1.00  0.00    -0.052 OA 
HETATM    7  O   UNL     2      -8.000   8.729  64.231  1.00  0.00    -0.130 OA 
ENDROOT
BRANCH   2   8
HETATM    8  C   UNL     2      -9.002  11.026  66.118  1.00  0.00    -0.191 C  
HETATM    9  H   UNL     2     -10.712  10.300  66.739  1.00  0.00     0.000 HD 
HETATM   10  O   UNL     2      -9.848   9.934  66.594  1.00  0.00    -0.185 OA 
BRANCH   8  11
HETATM   11  C   UNL     2      -9.199  12.195  67.130  1.00  0.00    -0.193 C  
HETATM   12  H   UNL     2      -9.874  12.330  68.952  1.00  0.00     0.000 HD 
HETATM   13  O   UNL     2      -9.754  11.617  68.334  1.00  0.00    -0.191 OA 
BRANCH  11  14
HETATM   14  C   UNL     2     -10.053  13.403  66.721  1.00  0.00    -0.260 C  
HETATM   15  C   UNL     2     -11.561  13.194  66.629  1.00  0.00    -0.356 C  
HETATM   16  O   UNL     2      -9.749  14.572  67.518  1.00  0.00    -0.208 OA 
HETATM   17  H   UNL     2     -10.278  15.320  67.265  1.00  0.00     0.000 HD 
HETATM   18  O   UNL     2     -12.105  12.070  66.833  1.00  0.00    -0.608 OA 
HETATM   19  O   UNL     2     -12.261  14.000  65.917  1.00  0.00    -0.408 OA 
ENDBRANCH  11  14
ENDBRANCH   8  11
ENDBRANCH   2   8
TORSDOF 3
ENDMDL
MODEL      300
REMARK 921   NORMALIZED FREE ENERGY PREDICTED BY IDOCK:   -2.56 KCAL/MOL
REMARK 922        TOTAL FREE ENERGY PREDICTED BY IDOCK:   -3.48 KCAL/MOL
REMARK 923 INTER-LIGAND FREE ENERGY PREDICTED BY IDOCK:   -3.02 KCAL/MOL
REMARK 924 INTRA-LIGAND FREE ENERGY PREDICTED BY IDOCK:   -0.46 KCAL/MOL
REMARK 927      BINDING AFFINITY PREDICTED BY RF-SCORE:    0.00 PKD
ROOT
HETATM    1 CA   UNL     1      -6.249  11.848  65.586  1.00  0.00    -0.359 Ca 
HETATM    2  C   UNL     2      -8.868   9.105  67.193  1.00  0.00    -0.119 C  
HETATM    3  H   UNL     2     -10.109   8.034  66.063  1.00  0.00     0.000 HD 
HETATM    4  C   UNL     2      -7.396   9.530  67.112  1.00  0.00    -0.088 C  
HETATM    5  O   UNL     2      -9.198   8.297  66.014  1.00  0.00    -0.192 OA 
HETATM    6  O   UNL     2      -6.704   9.549  68.148  1.00  0.00    -0.061 OA 
HETATM    7  O   UNL     2      -6.974   9.937  65.964  1.00  0.00    -0.094 OA 
ENDROOT
BRANCH   2   8
HETATM    8  C   UNL     2      -9.849  10.288  67.169  1.00  0.00    -0.185 C  
HETATM    9  H   UNL     2     -11.801  10.451  67.185  1.00  0.00     0.000 HD 
HETATM   10  O   UNL     2     -11.195   9.720  67.200  1.00  0.00    -0.034 OA 
BRANCH   8  11
HETATM   11  C   UNL     2      -9.810  11.363  68.297  1.00  0.00    -0.200 C  
HETATM   12  H   UNL     2      -9.879  11.310  70.242  1.00  0.00     0.000 HD 
HETATM   13  O   UNL     2      -9.903  10.655  69.554  1.00  0.00    -0.187 OA 
BRANCH  11  14
HETATM   14  C   UNL     2     -10.846  12.495  68.288  1.00  0.00    -0.234 C  
HETATM   15  C   UNL     2     -10.761  13.513  67.155  1.00  0.00    -0.279 C  
HETATM   16  O   UNL     2     -12.197  11.990  68.417  1.00  0.00    -0.373 OA 
HETATM   17  H   UNL     2     -12.838  12.691  68.412  1.00  0.00     0.000 HD 
HETATM   18  O   UNL     2      -9.854  13.473  66.273  1.00  0.00    -0.288 OA 
HETATM   19  O   UNL     2     -11.297  14.668  67.312  1.00  0.00    -0.327 OA 
ENDBRANCH  11  14
ENDBRANCH   8  11
ENDBRANCH   2   8
TORSDOF 3
ENDMDL
MODEL      301
REMARK 921   NORMALIZED FREE ENERGY PREDICTED BY IDOCK:   -2.55 KCAL/MOL
REMARK 922        TOTAL FREE ENERGY PREDICTED BY IDOCK:   -3.47 KCAL/MOL
REMARK 923 INTER-LIGAND FREE ENERGY PREDICTED BY IDOCK:   -3.47 KCAL/MOL
REMARK 924 INTRA-LIGAND FREE ENERGY PREDICTED BY IDOCK:   -0.00 KCAL/MOL
REMARK 927      BINDING AFFINITY PREDICTED BY RF-SCORE:    0.00 PKD
ROOT
HETATM    1 CA   UNL     1      -9.905   7.654  65.443  1.00  0.00    -0.406 Ca 
HETATM    2  C   UNL     2      -9.629   9.374  69.175  1.00  0.00    -0.163 C  
HETATM    3  H   UNL     2      -7.918   9.435  70.192  1.00  0.00     0.000 HD 
HETATM    4  C   UNL     2     -10.052   9.607  67.719  1.00  0.00    -0.187 C  
HETATM    5  O   UNL     2      -8.180   9.580  69.290  1.00  0.00    -0.099 OA 
HETATM    6  O   UNL     2     -11.126  10.189  67.477  1.00  0.00    -0.298 OA 
HETATM    7  O   UNL     2      -9.294   9.097  66.808  1.00  0.00    -0.149 OA 
ENDROOT
BRANCH   2   8
HETATM    8  C   UNL     2      -9.882   7.940  69.663  1.00  0.00    -0.179 C  
HETATM    9  H   UNL     2     -10.602   7.159  71.309  1.00  0.00     0.000 HD 
HETATM   10  O   UNL     2     -10.446   8.045  71.008  1.00  0.00    -0.202 OA 
BRANCH   8  11
HETATM   11  C   UNL     2     -10.837   6.998  68.870  1.00  0.00    -0.167 C  
HETATM   12  H   UNL     2     -12.236   5.736  69.361  1.00  0.00     0.000 HD 
HETATM   13  O   UNL     2     -11.654   6.310  69.845  1.00  0.00    -0.435 OA 
BRANCH  11  14
HETATM   14  C   UNL     2     -10.237   5.962  67.908  1.00  0.00    -0.184 C  
HETATM   15  C   UNL     2      -9.773   4.638  68.507  1.00  0.00    -0.142 C  
HETATM   16  O   UNL     2     -11.093   5.731  66.764  1.00  0.00    -0.542 OA 
HETATM   17  H   UNL     2     -10.722   5.090  66.168  1.00  0.00     0.000 HD 
HETATM   18  O   UNL     2      -9.828   4.397  69.747  1.00  0.00    -0.210 OA 
HETATM   19  O   UNL     2      -8.915   3.930  67.867  1.00  0.00    -0.107 OA 
ENDBRANCH  11  14
ENDBRANCH   8  11
ENDBRANCH   2   8
TORSDOF 3
ENDMDL
MODEL      302
REMARK 921   NORMALIZED FREE ENERGY PREDICTED BY IDOCK:   -2.54 KCAL/MOL
REMARK 922        TOTAL FREE ENERGY PREDICTED BY IDOCK:   -3.46 KCAL/MOL
REMARK 923 INTER-LIGAND FREE ENERGY PREDICTED BY IDOCK:   -3.15 KCAL/MOL
REMARK 924 INTRA-LIGAND FREE ENERGY PREDICTED BY IDOCK:   -0.31 KCAL/MOL
REMARK 927      BINDING AFFINITY PREDICTED BY RF-SCORE:    0.00 PKD
ROOT
HETATM    1 CA   UNL     1      -9.153  13.089  69.242  1.00  0.00    -0.359 Ca 
HETATM    2  C   UNL     2      -8.931   9.018  68.661  1.00  0.00    -0.137 C  
HETATM    3  H   UNL     2      -8.817   8.209  66.845  1.00  0.00     0.000 HD 
HETATM    4  C   UNL     2      -8.291  10.216  69.374  1.00  0.00    -0.168 C  
HETATM    5  O   UNL     2      -8.420   8.951  67.287  1.00  0.00    -0.114 OA 
HETATM    6  O   UNL     2      -7.956  10.112  70.570  1.00  0.00    -0.157 OA 
HETATM    7  O   UNL     2      -8.215  11.315  68.703  1.00  0.00    -0.143 OA 
ENDROOT
BRANCH   2   8
HETATM    8  C   UNL     2     -10.457   9.129  68.529  1.00  0.00    -0.204 C  
HETATM    9  H   UNL     2     -11.809   8.220  67.439  1.00  0.00     0.000 HD 
HETATM   10  O   UNL     2     -10.865   8.152  67.521  1.00  0.00    -0.194 OA 
BRANCH   8  11
HETATM   11  C   UNL     2     -11.373   8.878  69.765  1.00  0.00     0.085 C  
HETATM   12  H   UNL     2     -11.768   9.862  71.398  1.00  0.00     0.000 HD 
HETATM   13  O   UNL     2     -11.210  10.015  70.644  1.00  0.00    -0.304 OA 
BRANCH  11  14
HETATM   14  C   UNL     2     -11.192   7.591  70.581  1.00  0.00    -0.268 C  
HETATM   15  C   UNL     2     -12.359   7.150  71.460  1.00  0.00    -0.370 C  
HETATM   16  O   UNL     2     -10.730   6.492  69.761  1.00  0.00    -0.223 OA 
HETATM   17  H   UNL     2     -10.619   5.695  70.266  1.00  0.00     0.000 HD 
HETATM   18  O   UNL     2     -13.424   7.825  71.562  1.00  0.00    -0.351 OA 
HETATM   19  O   UNL     2     -12.136   6.361  72.446  1.00  0.00    -0.241 OA 
ENDBRANCH  11  14
ENDBRANCH   8  11
ENDBRANCH   2   8
TORSDOF 3
ENDMDL
MODEL      303
REMARK 921   NORMALIZED FREE ENERGY PREDICTED BY IDOCK:   -2.53 KCAL/MOL
REMARK 922        TOTAL FREE ENERGY PREDICTED BY IDOCK:   -3.45 KCAL/MOL
REMARK 923 INTER-LIGAND FREE ENERGY PREDICTED BY IDOCK:   -4.57 KCAL/MOL
REMARK 924 INTRA-LIGAND FREE ENERGY PREDICTED BY IDOCK:    1.12 KCAL/MOL
REMARK 927      BINDING AFFINITY PREDICTED BY RF-SCORE:    0.00 PKD
ROOT
HETATM    1 CA   UNL     1      -9.106  15.196  64.545  1.00  0.00     0.014 Ca 
HETATM    2  C   UNL     2     -11.862  12.440  65.877  1.00  0.00    -0.405 C  
HETATM    3  H   UNL     2     -13.779  12.514  65.344  1.00  0.00     0.000 HD 
HETATM    4  C   UNL     2     -10.515  12.618  65.165  1.00  0.00    -0.296 C  
HETATM    5  O   UNL     2     -12.945  12.623  64.904  1.00  0.00    -0.830 OA 
HETATM    6  O   UNL     2      -9.558  11.879  65.468  1.00  0.00    -0.232 OA 
HETATM    7  O   UNL     2     -10.423  13.602  64.337  1.00  0.00    -0.432 OA 
ENDROOT
BRANCH   2   8
HETATM    8  C   UNL     2     -12.116  13.485  66.975  1.00  0.00    -0.354 C  
HETATM    9  H   UNL     2     -12.302  13.408  68.924  1.00  0.00     0.000 HD 
HETATM   10  O   UNL     2     -12.146  12.762  68.246  1.00  0.00    -0.282 OA 
BRANCH   8  11
HETATM   11  C   UNL     2     -11.122  14.668  67.178  1.00  0.00    -0.326 C  
HETATM   12  H   UNL     2     -10.587  16.205  66.109  1.00  0.00     0.000 HD 
HETATM   13  O   UNL     2     -11.192  15.484  65.986  1.00  0.00    -0.247 OA 
BRANCH  11  14
HETATM   14  C   UNL     2      -9.648  14.363  67.482  1.00  0.00    -0.215 C  
HETATM   15  C   UNL     2      -8.646  15.498  67.291  1.00  0.00    -0.193 C  
HETATM   16  O   UNL     2      -9.481  13.751  68.783  1.00  0.00    -0.366 OA 
HETATM   17  H   UNL     2      -8.569  13.563  68.971  1.00  0.00     0.000 HD 
HETATM   18  O   UNL     2      -8.984  16.637  66.858  1.00  0.00    -0.204 OA 
HETATM   19  O   UNL     2      -7.406  15.214  67.123  1.00  0.00    -0.199 OA 
ENDBRANCH  11  14
ENDBRANCH   8  11
ENDBRANCH   2   8
TORSDOF 3
ENDMDL
MODEL      304
REMARK 921   NORMALIZED FREE ENERGY PREDICTED BY IDOCK:   -2.53 KCAL/MOL
REMARK 922        TOTAL FREE ENERGY PREDICTED BY IDOCK:   -3.44 KCAL/MOL
REMARK 923 INTER-LIGAND FREE ENERGY PREDICTED BY IDOCK:   -3.46 KCAL/MOL
REMARK 924 INTRA-LIGAND FREE ENERGY PREDICTED BY IDOCK:    0.02 KCAL/MOL
REMARK 927      BINDING AFFINITY PREDICTED BY RF-SCORE:    0.00 PKD
ROOT
HETATM    1 CA   UNL     1      -9.764   9.152  62.999  1.00  0.00    -0.466 Ca 
HETATM    2  C   UNL     2      -7.996   9.120  66.718  1.00  0.00    -0.104 C  
HETATM    3  H   UNL     2      -8.120   7.551  67.939  1.00  0.00     0.000 HD 
HETATM    4  C   UNL     2      -7.750   9.330  65.219  1.00  0.00    -0.103 C  
HETATM    5  O   UNL     2      -7.967   7.682  67.010  1.00  0.00    -0.112 OA 
HETATM    6  O   UNL     2      -7.047  10.286  64.840  1.00  0.00    -0.136 OA 
HETATM    7  O   UNL     2      -8.372   8.537  64.414  1.00  0.00    -0.161 OA 
ENDROOT
BRANCH   2   8
HETATM    8  C   UNL     2      -9.376   9.608  67.186  1.00  0.00    -0.139 C  
HETATM    9  H   UNL     2     -11.035  10.108  66.273  1.00  0.00     0.000 HD 
HETATM   10  O   UNL     2     -10.182   9.807  65.984  1.00  0.00    -0.259 OA 
BRANCH   8  11
HETATM   11  C   UNL     2     -10.237   8.727  68.140  1.00  0.00    -0.205 C  
HETATM   12  H   UNL     2     -11.492   7.259  67.889  1.00  0.00     0.000 HD 
HETATM   13  O   UNL     2     -10.967   7.796  67.308  1.00  0.00    -0.221 OA 
BRANCH  11  14
HETATM   14  C   UNL     2     -11.221   9.407  69.102  1.00  0.00     0.081 C  
HETATM   15  C   UNL     2     -10.727   9.701  70.515  1.00  0.00    -0.311 C  
HETATM   16  O   UNL     2     -11.820  10.587  68.516  1.00  0.00    -0.682 OA 
HETATM   17  H   UNL     2     -12.429  11.007  69.112  1.00  0.00     0.000 HD 
HETATM   18  O   UNL     2      -9.574   9.369  70.915  1.00  0.00    -0.267 OA 
HETATM   19  O   UNL     2     -11.584   9.870  71.455  1.00  0.00    -0.374 OA 
ENDBRANCH  11  14
ENDBRANCH   8  11
ENDBRANCH   2   8
TORSDOF 3
ENDMDL
MODEL      305
REMARK 921   NORMALIZED FREE ENERGY PREDICTED BY IDOCK:   -2.52 KCAL/MOL
REMARK 922        TOTAL FREE ENERGY PREDICTED BY IDOCK:   -3.43 KCAL/MOL
REMARK 923 INTER-LIGAND FREE ENERGY PREDICTED BY IDOCK:   -3.07 KCAL/MOL
REMARK 924 INTRA-LIGAND FREE ENERGY PREDICTED BY IDOCK:   -0.36 KCAL/MOL
REMARK 927      BINDING AFFINITY PREDICTED BY RF-SCORE:    0.00 PKD
ROOT
HETATM    1 CA   UNL     1      -8.206  15.522  65.645  1.00  0.00    -0.314 Ca 
HETATM    2  C   UNL     2     -10.331  12.060  66.321  1.00  0.00    -0.221 C  
HETATM    3  H   UNL     2     -10.444  11.218  68.122  1.00  0.00     0.000 HD 
HETATM    4  C   UNL     2     -10.412  13.488  65.768  1.00  0.00    -0.291 C  
HETATM    5  O   UNL     2     -10.494  12.102  67.779  1.00  0.00    -0.198 OA 
HETATM    6  O   UNL     2     -11.002  13.698  64.691  1.00  0.00    -0.357 OA 
HETATM    7  O   UNL     2      -9.772  14.399  66.421  1.00  0.00    -0.277 OA 
ENDROOT
BRANCH   2   8
HETATM    8  C   UNL     2      -8.973  11.385  66.078  1.00  0.00    -0.197 C  
HETATM    9  H   UNL     2      -7.765  10.299  67.174  1.00  0.00     0.000 HD 
HETATM   10  O   UNL     2      -8.605  10.716  67.325  1.00  0.00    -0.126 OA 
BRANCH   8  11
HETATM   11  C   UNL     2      -8.818  10.315  64.955  1.00  0.00    -0.187 C  
HETATM   12  H   UNL     2      -9.720   9.964  63.265  1.00  0.00     0.000 HD 
HETATM   13  O   UNL     2      -9.814  10.615  63.950  1.00  0.00    -0.294 OA 
BRANCH  11  14
HETATM   14  C   UNL     2      -8.916   8.828  65.320  1.00  0.00    -0.133 C  
HETATM   15  C   UNL     2      -7.607   8.073  65.537  1.00  0.00    -0.085 C  
HETATM   16  O   UNL     2      -9.822   8.602  66.425  1.00  0.00    -0.250 OA 
HETATM   17  H   UNL     2      -9.883   7.681  66.651  1.00  0.00     0.000 HD 
HETATM   18  O   UNL     2      -6.476   8.618  65.384  1.00  0.00    -0.061 OA 
HETATM   19  O   UNL     2      -7.598   6.795  65.429  1.00  0.00    -0.080 OA 
ENDBRANCH  11  14
ENDBRANCH   8  11
ENDBRANCH   2   8
TORSDOF 3
ENDMDL
MODEL      306
REMARK 921   NORMALIZED FREE ENERGY PREDICTED BY IDOCK:   -2.51 KCAL/MOL
REMARK 922        TOTAL FREE ENERGY PREDICTED BY IDOCK:   -3.42 KCAL/MOL
REMARK 923 INTER-LIGAND FREE ENERGY PREDICTED BY IDOCK:   -3.51 KCAL/MOL
REMARK 924 INTRA-LIGAND FREE ENERGY PREDICTED BY IDOCK:    0.09 KCAL/MOL
REMARK 927      BINDING AFFINITY PREDICTED BY RF-SCORE:    0.00 PKD
ROOT
HETATM    1 CA   UNL     1      -8.790  19.003  69.774  1.00  0.00    -0.089 Ca 
HETATM    2  C   UNL     2      -8.215  15.861  67.174  1.00  0.00    -0.203 C  
HETATM    3  H   UNL     2      -9.603  15.305  65.858  1.00  0.00     0.000 HD 
HETATM    4  C   UNL     2      -7.641  17.194  67.670  1.00  0.00    -0.167 C  
HETATM    5  O   UNL     2      -9.247  16.130  66.165  1.00  0.00    -0.298 OA 
HETATM    6  O   UNL     2      -6.421  17.291  67.899  1.00  0.00    -0.147 OA 
HETATM    7  O   UNL     2      -8.490  18.136  67.909  1.00  0.00    -0.244 OA 
ENDROOT
BRANCH   2   8
HETATM    8  C   UNL     2      -8.917  15.050  68.274  1.00  0.00    -0.174 C  
HETATM    9  H   UNL     2      -9.106  15.247  70.214  1.00  0.00     0.000 HD 
HETATM   10  O   UNL     2      -8.672  15.749  69.534  1.00  0.00    -0.259 OA 
BRANCH   8  11
HETATM   11  C   UNL     2     -10.454  14.806  68.209  1.00  0.00    -0.241 C  
HETATM   12  H   UNL     2     -11.981  15.399  69.262  1.00  0.00     0.000 HD 
HETATM   13  O   UNL     2     -11.044  15.548  69.302  1.00  0.00    -0.248 OA 
BRANCH  11  14
HETATM   14  C   UNL     2     -10.986  13.366  68.245  1.00  0.00    -0.259 C  
HETATM   15  C   UNL     2     -10.364  12.366  67.275  1.00  0.00    -0.215 C  
HETATM   16  O   UNL     2     -10.999  12.829  69.589  1.00  0.00    -0.458 OA 
HETATM   17  H   UNL     2     -11.328  11.938  69.611  1.00  0.00     0.000 HD 
HETATM   18  O   UNL     2      -9.477  12.697  66.435  1.00  0.00    -0.241 OA 
HETATM   19  O   UNL     2     -11.017  11.306  66.966  1.00  0.00    -0.270 OA 
ENDBRANCH  11  14
ENDBRANCH   8  11
ENDBRANCH   2   8
TORSDOF 3
ENDMDL
MODEL      307
REMARK 921   NORMALIZED FREE ENERGY PREDICTED BY IDOCK:   -2.49 KCAL/MOL
REMARK 922        TOTAL FREE ENERGY PREDICTED BY IDOCK:   -3.40 KCAL/MOL
REMARK 923 INTER-LIGAND FREE ENERGY PREDICTED BY IDOCK:   -3.51 KCAL/MOL
REMARK 924 INTRA-LIGAND FREE ENERGY PREDICTED BY IDOCK:    0.11 KCAL/MOL
REMARK 927      BINDING AFFINITY PREDICTED BY RF-SCORE:    0.00 PKD
ROOT
HETATM    1 CA   UNL     1      -9.782   9.384  72.215  1.00  0.00    -0.286 Ca 
HETATM    2  C   UNL     2     -11.681  11.461  69.209  1.00  0.00    -0.337 C  
HETATM    3  H   UNL     2     -11.421  11.019  67.285  1.00  0.00     0.000 HD 
HETATM    4  C   UNL     2     -11.890  10.663  70.502  1.00  0.00    -0.357 C  
HETATM    5  O   UNL     2     -11.551  10.525  68.086  1.00  0.00    -0.402 OA 
HETATM    6  O   UNL     2     -12.686  11.085  71.363  1.00  0.00    -0.401 OA 
HETATM    7  O   UNL     2     -11.146   9.622  70.666  1.00  0.00    -0.267 OA 
ENDROOT
BRANCH   2   8
HETATM    8  C   UNL     2     -10.389  12.293  69.205  1.00  0.00     0.144 C  
HETATM    9  H   UNL     2      -8.483  11.863  69.070  1.00  0.00     0.000 HD 
HETATM   10  O   UNL     2      -9.281  11.349  69.073  1.00  0.00    -0.079 OA 
BRANCH   8  11
HETATM   11  C   UNL     2     -10.160  13.380  68.112  1.00  0.00    -0.244 C  
HETATM   12  H   UNL     2     -11.120  13.939  66.513  1.00  0.00     0.000 HD 
HETATM   13  O   UNL     2     -11.260  13.276  67.179  1.00  0.00    -0.281 OA 
BRANCH  11  14
HETATM   14  C   UNL     2      -8.842  13.384  67.325  1.00  0.00    -0.220 C  
HETATM   15  C   UNL     2      -7.597  13.891  68.049  1.00  0.00    -0.144 C  
HETATM   16  O   UNL     2      -8.582  12.105  66.701  1.00  0.00    -0.261 OA 
HETATM   17  H   UNL     2      -7.766  12.107  66.214  1.00  0.00     0.000 HD 
HETATM   18  O   UNL     2      -7.633  14.335  69.232  1.00  0.00    -0.091 OA 
HETATM   19  O   UNL     2      -6.598  14.303  67.358  1.00  0.00    -0.284 OA 
ENDBRANCH  11  14
ENDBRANCH   8  11
ENDBRANCH   2   8
TORSDOF 3
ENDMDL
MODEL      308
REMARK 921   NORMALIZED FREE ENERGY PREDICTED BY IDOCK:   -2.45 KCAL/MOL
REMARK 922        TOTAL FREE ENERGY PREDICTED BY IDOCK:   -3.35 KCAL/MOL
REMARK 923 INTER-LIGAND FREE ENERGY PREDICTED BY IDOCK:   -3.28 KCAL/MOL
REMARK 924 INTRA-LIGAND FREE ENERGY PREDICTED BY IDOCK:   -0.07 KCAL/MOL
REMARK 927      BINDING AFFINITY PREDICTED BY RF-SCORE:    0.00 PKD
ROOT
HETATM    1 CA   UNL     1      -9.922  12.771  69.550  1.00  0.00    -0.399 Ca 
HETATM    2  C   UNL     2      -9.171  10.180  66.438  1.00  0.00    -0.158 C  
HETATM    3  H   UNL     2     -10.613   9.522  65.233  1.00  0.00     0.000 HD 
HETATM    4  C   UNL     2      -8.789  11.528  67.062  1.00  0.00    -0.173 C  
HETATM    5  O   UNL     2     -10.376  10.357  65.619  1.00  0.00    -0.255 OA 
HETATM    6  O   UNL     2      -7.587  11.845  67.152  1.00  0.00    -0.145 OA 
HETATM    7  O   UNL     2      -9.752  12.234  67.550  1.00  0.00    -0.185 OA 
ENDROOT
BRANCH   2   8
HETATM    8  C   UNL     2      -9.532   9.105  67.476  1.00  0.00    -0.139 C  
HETATM    9  H   UNL     2      -9.747   7.159  67.416  1.00  0.00     0.000 HD 
HETATM   10  O   UNL     2      -9.524   7.823  66.775  1.00  0.00    -0.172 OA 
BRANCH   8  11
HETATM   11  C   UNL     2      -8.645   8.908  68.742  1.00  0.00    -0.136 C  
HETATM   12  H   UNL     2      -7.899   7.365  69.665  1.00  0.00     0.000 HD 
HETATM   13  O   UNL     2      -8.440   7.485  68.893  1.00  0.00    -0.128 OA 
BRANCH  11  14
HETATM   14  C   UNL     2      -9.118   9.486  70.084  1.00  0.00    -0.240 C  
HETATM   15  C   UNL     2     -10.401   8.913  70.678  1.00  0.00    -0.215 C  
HETATM   16  O   UNL     2      -8.059   9.493  71.070  1.00  0.00    -0.312 OA 
HETATM   17  H   UNL     2      -8.352   9.850  71.901  1.00  0.00     0.000 HD 
HETATM   18  O   UNL     2     -11.089   8.030  70.087  1.00  0.00    -0.251 OA 
HETATM   19  O   UNL     2     -11.055   9.605  71.538  1.00  0.00    -0.370 OA 
ENDBRANCH  11  14
ENDBRANCH   8  11
ENDBRANCH   2   8
TORSDOF 3
ENDMDL
MODEL      309
REMARK 921   NORMALIZED FREE ENERGY PREDICTED BY IDOCK:   -2.43 KCAL/MOL
REMARK 922        TOTAL FREE ENERGY PREDICTED BY IDOCK:   -3.33 KCAL/MOL
REMARK 923 INTER-LIGAND FREE ENERGY PREDICTED BY IDOCK:   -2.47 KCAL/MOL
REMARK 924 INTRA-LIGAND FREE ENERGY PREDICTED BY IDOCK:   -0.86 KCAL/MOL
REMARK 927      BINDING AFFINITY PREDICTED BY RF-SCORE:    0.00 PKD
ROOT
HETATM    1 CA   UNL     1     -11.139   7.084  66.017  1.00  0.00    -0.444 Ca 
HETATM    2  C   UNL     2      -8.841   9.106  68.773  1.00  0.00    -0.132 C  
HETATM    3  H   UNL     2      -8.443  11.050  68.601  1.00  0.00     0.000 HD 
HETATM    4  C   UNL     2     -10.076   8.216  68.588  1.00  0.00    -0.196 C  
HETATM    5  O   UNL     2      -9.207  10.498  68.487  1.00  0.00    -0.153 OA 
HETATM    6  O   UNL     2     -10.277   7.272  69.376  1.00  0.00    -0.182 OA 
HETATM    7  O   UNL     2     -10.806   8.448  67.550  1.00  0.00    -0.191 OA 
ENDROOT
BRANCH   2   8
HETATM    8  C   UNL     2      -7.696   8.774  67.803  1.00  0.00    -0.102 C  
HETATM    9  H   UNL     2      -5.741   8.812  67.924  1.00  0.00     0.000 HD 
HETATM   10  O   UNL     2      -6.448   9.018  68.524  1.00  0.00    -0.053 OA 
BRANCH   8  11
HETATM   11  C   UNL     2      -7.571   7.343  67.198  1.00  0.00    -0.107 C  
HETATM   12  H   UNL     2      -6.115   6.067  66.990  1.00  0.00     0.000 HD 
HETATM   13  O   UNL     2      -6.192   6.939  67.358  1.00  0.00    -0.034 OA 
BRANCH  11  14
HETATM   14  C   UNL     2      -7.989   7.108  65.740  1.00  0.00    -0.123 C  
HETATM   15  C   UNL     2      -8.502   5.718  65.375  1.00  0.00    -0.151 C  
HETATM   16  O   UNL     2      -8.903   8.127  65.269  1.00  0.00    -0.351 OA 
HETATM   17  H   UNL     2      -9.162   7.981  64.367  1.00  0.00     0.000 HD 
HETATM   18  O   UNL     2      -8.548   4.770  66.212  1.00  0.00    -0.113 OA 
HETATM   19  O   UNL     2      -8.468   5.341  64.150  1.00  0.00    -0.135 OA 
ENDBRANCH  11  14
ENDBRANCH   8  11
ENDBRANCH   2   8
TORSDOF 3
ENDMDL
MODEL      310
REMARK 921   NORMALIZED FREE ENERGY PREDICTED BY IDOCK:   -2.43 KCAL/MOL
REMARK 922        TOTAL FREE ENERGY PREDICTED BY IDOCK:   -3.33 KCAL/MOL
REMARK 923 INTER-LIGAND FREE ENERGY PREDICTED BY IDOCK:   -2.87 KCAL/MOL
REMARK 924 INTRA-LIGAND FREE ENERGY PREDICTED BY IDOCK:   -0.46 KCAL/MOL
REMARK 927      BINDING AFFINITY PREDICTED BY RF-SCORE:    0.00 PKD
ROOT
HETATM    1 CA   UNL     1     -12.376   8.017  69.996  1.00  0.00    -0.476 Ca 
HETATM    2  C   UNL     2      -9.627   7.959  66.930  1.00  0.00    -0.203 C  
HETATM    3  H   UNL     2      -7.672   8.155  67.253  1.00  0.00     0.000 HD 
HETATM    4  C   UNL     2     -10.780   7.191  67.590  1.00  0.00    -0.244 C  
HETATM    5  O   UNL     2      -8.386   7.680  67.662  1.00  0.00    -0.116 OA 
HETATM    6  O   UNL     2     -11.658   6.668  66.878  1.00  0.00    -0.002 OA 
HETATM    7  O   UNL     2     -10.822   7.208  68.879  1.00  0.00    -0.200 OA 
ENDROOT
BRANCH   2   8
HETATM    8  C   UNL     2      -9.800   9.484  66.978  1.00  0.00    -0.190 C  
HETATM    9  H   UNL     2      -9.877  10.900  65.626  1.00  0.00     0.000 HD 
HETATM   10  O   UNL     2      -9.770   9.957  65.595  1.00  0.00    -0.239 OA 
BRANCH   8  11
HETATM   11  C   UNL     2     -11.077  10.109  67.617  1.00  0.00    -0.206 C  
HETATM   12  H   UNL     2     -12.569  11.165  66.945  1.00  0.00     0.000 HD 
HETATM   13  O   UNL     2     -11.790  10.785  66.556  1.00  0.00     0.287 OA 
BRANCH  11  14
HETATM   14  C   UNL     2     -10.927  11.072  68.803  1.00  0.00    -0.221 C  
HETATM   15  C   UNL     2     -12.106  11.187  69.765  1.00  0.00    -0.344 C  
HETATM   16  O   UNL     2      -9.698  10.842  69.532  1.00  0.00    -0.414 OA 
HETATM   17  H   UNL     2      -9.605  11.438  70.266  1.00  0.00     0.000 HD 
HETATM   18  O   UNL     2     -13.190  10.559  69.588  1.00  0.00     0.063 OA 
HETATM   19  O   UNL     2     -12.214  12.233  70.499  1.00  0.00    -0.360 OA 
ENDBRANCH  11  14
ENDBRANCH   8  11
ENDBRANCH   2   8
TORSDOF 3
ENDMDL
MODEL      311
REMARK 921   NORMALIZED FREE ENERGY PREDICTED BY IDOCK:   -2.41 KCAL/MOL
REMARK 922        TOTAL FREE ENERGY PREDICTED BY IDOCK:   -3.31 KCAL/MOL
REMARK 923 INTER-LIGAND FREE ENERGY PREDICTED BY IDOCK:   -3.20 KCAL/MOL
REMARK 924 INTRA-LIGAND FREE ENERGY PREDICTED BY IDOCK:   -0.10 KCAL/MOL
REMARK 927      BINDING AFFINITY PREDICTED BY RF-SCORE:    0.00 PKD
ROOT
HETATM    1 CA   UNL     1     -12.077   7.917  73.478  1.00  0.00    -0.602 Ca 
HETATM    2  C   UNL     2     -10.498   7.305  69.724  1.00  0.00    -0.227 C  
HETATM    3  H   UNL     2     -10.844   5.642  68.685  1.00  0.00     0.000 HD 
HETATM    4  C   UNL     2     -11.336   8.256  70.588  1.00  0.00    -0.244 C  
HETATM    5  O   UNL     2     -11.362   6.231  69.220  1.00  0.00    -0.410 OA 
HETATM    6  O   UNL     2     -11.131   9.484  70.528  1.00  0.00    -0.242 OA 
HETATM    7  O   UNL     2     -12.165   7.710  71.412  1.00  0.00    -0.307 OA 
ENDROOT
BRANCH   2   8
HETATM    8  C   UNL     2      -9.376   6.601  70.501  1.00  0.00    -0.166 C  
HETATM    9  H   UNL     2      -9.019   4.744  71.013  1.00  0.00     0.000 HD 
HETATM   10  O   UNL     2      -9.713   5.179  70.533  1.00  0.00    -0.166 OA 
BRANCH   8  11
HETATM   11  C   UNL     2      -7.903   6.681  69.997  1.00  0.00    -0.111 C  
HETATM   12  H   UNL     2      -6.163   6.304  70.787  1.00  0.00     0.000 HD 
HETATM   13  O   UNL     2      -7.061   6.256  71.094  1.00  0.00    -0.070 OA 
BRANCH  11  14
HETATM   14  C   UNL     2      -7.370   8.014  69.452  1.00  0.00    -0.080 C  
HETATM   15  C   UNL     2      -7.240   9.171  70.439  1.00  0.00    -0.084 C  
HETATM   16  O   UNL     2      -6.141   7.839  68.708  1.00  0.00    -0.036 OA 
HETATM   17  H   UNL     2      -5.811   8.664  68.371  1.00  0.00     0.000 HD 
HETATM   18  O   UNL     2      -7.592   9.073  71.650  1.00  0.00    -0.302 OA 
HETATM   19  O   UNL     2      -7.208  10.373  69.991  1.00  0.00    -0.154 OA 
ENDBRANCH  11  14
ENDBRANCH   8  11
ENDBRANCH   2   8
TORSDOF 3
ENDMDL
MODEL      312
REMARK 921   NORMALIZED FREE ENERGY PREDICTED BY IDOCK:   -2.39 KCAL/MOL
REMARK 922        TOTAL FREE ENERGY PREDICTED BY IDOCK:   -3.28 KCAL/MOL
REMARK 923 INTER-LIGAND FREE ENERGY PREDICTED BY IDOCK:   -3.82 KCAL/MOL
REMARK 924 INTRA-LIGAND FREE ENERGY PREDICTED BY IDOCK:    0.53 KCAL/MOL
REMARK 927      BINDING AFFINITY PREDICTED BY RF-SCORE:    0.00 PKD
ROOT
HETATM    1 CA   UNL     1     -10.995   7.858  66.004  1.00  0.00    -0.379 Ca 
HETATM    2  C   UNL     2      -8.663  11.146  65.158  1.00  0.00     0.010 C  
HETATM    3  H   UNL     2      -7.254  11.797  66.405  1.00  0.00     0.000 HD 
HETATM    4  C   UNL     2      -9.131   9.779  64.643  1.00  0.00    -0.245 C  
HETATM    5  O   UNL     2      -7.543  10.950  66.086  1.00  0.00    -0.147 OA 
HETATM    6  O   UNL     2      -9.474   9.655  63.452  1.00  0.00    -0.121 OA 
HETATM    7  O   UNL     2      -9.226   8.834  65.516  1.00  0.00    -0.203 OA 
ENDROOT
BRANCH   2   8
HETATM    8  C   UNL     2      -9.737  11.897  65.962  1.00  0.00    -0.237 C  
HETATM    9  H   UNL     2      -9.695  13.168  67.452  1.00  0.00     0.000 HD 
HETATM   10  O   UNL     2      -9.032  12.704  66.956  1.00  0.00    -0.204 OA 
BRANCH   8  11
HETATM   11  C   UNL     2     -10.721  12.866  65.241  1.00  0.00    -0.296 C  
HETATM   12  H   UNL     2     -10.520  14.506  64.211  1.00  0.00     0.000 HD 
HETATM   13  O   UNL     2      -9.920  13.915  64.651  1.00  0.00    -0.267 OA 
BRANCH  11  14
HETATM   14  C   UNL     2     -11.863  13.507  66.043  1.00  0.00    -0.379 C  
HETATM   15  C   UNL     2     -11.533  14.760  66.849  1.00  0.00    -0.347 C  
HETATM   16  O   UNL     2     -13.040  13.719  65.230  1.00  0.00    -0.756 OA 
HETATM   17  H   UNL     2     -13.747  14.116  65.727  1.00  0.00     0.000 HD 
HETATM   18  O   UNL     2     -10.366  15.244  66.904  1.00  0.00    -0.267 OA 
HETATM   19  O   UNL     2     -12.290  15.088  67.831  1.00  0.00     0.023 OA 
ENDBRANCH  11  14
ENDBRANCH   8  11
ENDBRANCH   2   8
TORSDOF 3
ENDMDL
MODEL      313
REMARK 921   NORMALIZED FREE ENERGY PREDICTED BY IDOCK:   -2.39 KCAL/MOL
REMARK 922        TOTAL FREE ENERGY PREDICTED BY IDOCK:   -3.28 KCAL/MOL
REMARK 923 INTER-LIGAND FREE ENERGY PREDICTED BY IDOCK:   -3.00 KCAL/MOL
REMARK 924 INTRA-LIGAND FREE ENERGY PREDICTED BY IDOCK:   -0.29 KCAL/MOL
REMARK 927      BINDING AFFINITY PREDICTED BY RF-SCORE:    0.00 PKD
ROOT
HETATM    1 CA   UNL     1     -12.068  11.256  68.788  1.00  0.00    -0.250 Ca 
HETATM    2  C   UNL     2     -10.848   8.408  71.502  1.00  0.00    -0.258 C  
HETATM    3  H   UNL     2      -9.041   8.445  72.338  1.00  0.00     0.000 HD 
HETATM    4  C   UNL     2     -11.932   9.445  71.179  1.00  0.00    -0.337 C  
HETATM    5  O   UNL     2      -9.713   9.086  72.139  1.00  0.00    -0.279 OA 
HETATM    6  O   UNL     2     -13.132   9.148  71.333  1.00  0.00    -0.330 OA 
HETATM    7  O   UNL     2     -11.532  10.561  70.671  1.00  0.00    -0.322 OA 
ENDROOT
BRANCH   2   8
HETATM    8  C   UNL     2     -10.270   7.720  70.256  1.00  0.00    -0.199 C  
HETATM    9  H   UNL     2     -10.992   6.499  68.905  1.00  0.00     0.000 HD 
HETATM   10  O   UNL     2     -11.349   6.924  69.675  1.00  0.00    -0.259 OA 
BRANCH   8  11
HETATM   11  C   UNL     2      -9.688   8.572  69.088  1.00  0.00    -0.170 C  
HETATM   12  H   UNL     2     -10.348   9.142  67.347  1.00  0.00     0.000 HD 
HETATM   13  O   UNL     2     -10.703   8.622  68.058  1.00  0.00    -0.181 OA 
BRANCH  11  14
HETATM   14  C   UNL     2      -8.356   8.155  68.449  1.00  0.00    -0.126 C  
HETATM   15  C   UNL     2      -7.078   8.706  69.074  1.00  0.00    -0.065 C  
HETATM   16  O   UNL     2      -8.263   6.721  68.282  1.00  0.00    -0.114 OA 
HETATM   17  H   UNL     2      -7.438   6.463  67.886  1.00  0.00     0.000 HD 
HETATM   18  O   UNL     2      -7.091   9.510  70.051  1.00  0.00    -0.066 OA 
HETATM   19  O   UNL     2      -6.005   8.745  68.372  1.00  0.00    -0.044 OA 
ENDBRANCH  11  14
ENDBRANCH   8  11
ENDBRANCH   2   8
TORSDOF 3
ENDMDL
MODEL      314
REMARK 921   NORMALIZED FREE ENERGY PREDICTED BY IDOCK:   -2.39 KCAL/MOL
REMARK 922        TOTAL FREE ENERGY PREDICTED BY IDOCK:   -3.28 KCAL/MOL
REMARK 923 INTER-LIGAND FREE ENERGY PREDICTED BY IDOCK:   -3.28 KCAL/MOL
REMARK 924 INTRA-LIGAND FREE ENERGY PREDICTED BY IDOCK:   -0.00 KCAL/MOL
REMARK 927      BINDING AFFINITY PREDICTED BY RF-SCORE:    0.00 PKD
ROOT
HETATM    1 CA   UNL     1      -9.504   6.794  64.867  1.00  0.00    -0.358 Ca 
HETATM    2  C   UNL     2      -7.833  10.495  65.555  1.00  0.00    -0.138 C  
HETATM    3  H   UNL     2      -5.977  10.711  66.243  1.00  0.00     0.000 HD 
HETATM    4  C   UNL     2      -8.523   9.610  64.509  1.00  0.00    -0.178 C  
HETATM    5  O   UNL     2      -6.405  10.163  65.595  1.00  0.00    -0.086 OA 
HETATM    6  O   UNL     2      -9.416  10.093  63.787  1.00  0.00    -0.281 OA 
HETATM    7  O   UNL     2      -8.192   8.363  64.498  1.00  0.00    -0.158 OA 
ENDROOT
BRANCH   2   8
HETATM    8  C   UNL     2      -8.349  10.269  66.985  1.00  0.00    -0.126 C  
HETATM    9  H   UNL     2      -7.688   9.277  68.539  1.00  0.00     0.000 HD 
HETATM   10  O   UNL     2      -7.369   9.416  67.656  1.00  0.00    -0.083 OA 
BRANCH   8  11
HETATM   11  C   UNL     2      -8.586  11.481  67.934  1.00  0.00    -0.143 C  
HETATM   12  H   UNL     2      -8.155  11.870  69.793  1.00  0.00     0.000 HD 
HETATM   13  O   UNL     2      -8.011  11.130  69.214  1.00  0.00    -0.092 OA 
BRANCH  11  14
HETATM   14  C   UNL     2     -10.017  11.989  68.157  1.00  0.00    -0.203 C  
HETATM   15  C   UNL     2     -11.041  10.986  68.681  1.00  0.00    -0.240 C  
HETATM   16  O   UNL     2     -10.042  13.201  68.948  1.00  0.00    -0.419 OA 
HETATM   17  H   UNL     2     -10.928  13.515  69.086  1.00  0.00     0.000 HD 
HETATM   18  O   UNL     2     -10.757   9.771  68.887  1.00  0.00    -0.216 OA 
HETATM   19  O   UNL     2     -12.290  11.215  68.496  1.00  0.00    -0.561 OA 
ENDBRANCH  11  14
ENDBRANCH   8  11
ENDBRANCH   2   8
TORSDOF 3
ENDMDL
MODEL      315
REMARK 921   NORMALIZED FREE ENERGY PREDICTED BY IDOCK:   -2.38 KCAL/MOL
REMARK 922        TOTAL FREE ENERGY PREDICTED BY IDOCK:   -3.27 KCAL/MOL
REMARK 923 INTER-LIGAND FREE ENERGY PREDICTED BY IDOCK:   -2.78 KCAL/MOL
REMARK 924 INTRA-LIGAND FREE ENERGY PREDICTED BY IDOCK:   -0.49 KCAL/MOL
REMARK 927      BINDING AFFINITY PREDICTED BY RF-SCORE:    0.00 PKD
ROOT
HETATM    1 CA   UNL     1      -9.237   6.321  62.950  1.00  0.00    -0.348 Ca 
HETATM    2  C   UNL     2      -9.121   5.364  66.954  1.00  0.00    -0.114 C  
HETATM    3  H   UNL     2     -10.649   4.485  67.880  1.00  0.00     0.000 HD 
HETATM    4  C   UNL     2      -8.406   5.194  65.607  1.00  0.00    -0.123 C  
HETATM    5  O   UNL     2     -10.206   4.380  67.046  1.00  0.00    -0.158 OA 
HETATM    6  O   UNL     2      -7.168   5.311  65.549  1.00  0.00    -0.066 OA 
HETATM    7  O   UNL     2      -9.157   5.024  64.572  1.00  0.00    -0.112 OA 
ENDROOT
BRANCH   2   8
HETATM    8  C   UNL     2      -9.792   6.735  67.123  1.00  0.00    -0.161 C  
HETATM    9  H   UNL     2     -11.646   7.341  67.304  1.00  0.00     0.000 HD 
HETATM   10  O   UNL     2     -11.232   6.493  67.199  1.00  0.00    -0.388 OA 
BRANCH   8  11
HETATM   11  C   UNL     2      -9.442   7.635  68.346  1.00  0.00    -0.150 C  
HETATM   12  H   UNL     2      -9.921   7.628  70.233  1.00  0.00     0.000 HD 
HETATM   13  O   UNL     2     -10.135   7.080  69.487  1.00  0.00    -0.167 OA 
BRANCH  11  14
HETATM   14  C   UNL     2      -9.731   9.141  68.275  1.00  0.00    -0.154 C  
HETATM   15  C   UNL     2      -8.676  10.026  67.619  1.00  0.00    -0.121 C  
HETATM   16  O   UNL     2     -11.040   9.413  67.720  1.00  0.00    -0.504 OA 
HETATM   17  H   UNL     2     -11.219  10.345  67.676  1.00  0.00     0.000 HD 
HETATM   18  O   UNL     2      -7.580   9.567  67.184  1.00  0.00    -0.091 OA 
HETATM   19  O   UNL     2      -8.655  11.279  67.891  1.00  0.00    -0.126 OA 
ENDBRANCH  11  14
ENDBRANCH   8  11
ENDBRANCH   2   8
TORSDOF 3
ENDMDL
MODEL      316
REMARK 921   NORMALIZED FREE ENERGY PREDICTED BY IDOCK:   -2.38 KCAL/MOL
REMARK 922        TOTAL FREE ENERGY PREDICTED BY IDOCK:   -3.27 KCAL/MOL
REMARK 923 INTER-LIGAND FREE ENERGY PREDICTED BY IDOCK:   -3.00 KCAL/MOL
REMARK 924 INTRA-LIGAND FREE ENERGY PREDICTED BY IDOCK:   -0.27 KCAL/MOL
REMARK 927      BINDING AFFINITY PREDICTED BY RF-SCORE:    0.00 PKD
ROOT
HETATM    1 CA   UNL     1     -10.291  10.040  65.238  1.00  0.00    -0.263 Ca 
HETATM    2  C   UNL     2      -7.730   9.238  68.362  1.00  0.00    -0.090 C  
HETATM    3  H   UNL     2      -8.096   7.802  69.692  1.00  0.00     0.000 HD 
HETATM    4  C   UNL     2      -7.838   9.378  66.838  1.00  0.00    -0.105 C  
HETATM    5  O   UNL     2      -8.162   7.890  68.749  1.00  0.00    -0.124 OA 
HETATM    6  O   UNL     2      -6.959  10.005  66.215  1.00  0.00    -0.094 OA 
HETATM    7  O   UNL     2      -8.903   8.904  66.287  1.00  0.00    -0.141 OA 
ENDROOT
BRANCH   2   8
HETATM    8  C   UNL     2      -8.646  10.201  69.131  1.00  0.00    -0.165 C  
HETATM    9  H   UNL     2      -9.675  11.796  68.647  1.00  0.00     0.000 HD 
HETATM   10  O   UNL     2      -9.109  11.201  68.171  1.00  0.00    -0.147 OA 
BRANCH   8  11
HETATM   11  C   UNL     2      -9.925   9.666  69.844  1.00  0.00    -0.241 C  
HETATM   12  H   UNL     2     -11.732  10.344  70.106  1.00  0.00     0.000 HD 
HETATM   13  O   UNL     2     -10.952  10.670  69.671  1.00  0.00    -0.244 OA 
BRANCH  11  14
HETATM   14  C   UNL     2      -9.850   9.285  71.329  1.00  0.00    -0.248 C  
HETATM   15  C   UNL     2     -10.853   8.254  71.838  1.00  0.00    -0.283 C  
HETATM   16  O   UNL     2      -8.506   8.926  71.727  1.00  0.00    -0.321 OA 
HETATM   17  H   UNL     2      -8.460   8.690  72.646  1.00  0.00     0.000 HD 
HETATM   18  O   UNL     2     -11.748   7.753  71.096  1.00  0.00    -0.279 OA 
HETATM   19  O   UNL     2     -11.117   8.205  73.092  1.00  0.00    -0.254 OA 
ENDBRANCH  11  14
ENDBRANCH   8  11
ENDBRANCH   2   8
TORSDOF 3
ENDMDL
MODEL      317
REMARK 921   NORMALIZED FREE ENERGY PREDICTED BY IDOCK:   -2.37 KCAL/MOL
REMARK 922        TOTAL FREE ENERGY PREDICTED BY IDOCK:   -3.26 KCAL/MOL
REMARK 923 INTER-LIGAND FREE ENERGY PREDICTED BY IDOCK:   -2.50 KCAL/MOL
REMARK 924 INTRA-LIGAND FREE ENERGY PREDICTED BY IDOCK:   -0.76 KCAL/MOL
REMARK 927      BINDING AFFINITY PREDICTED BY RF-SCORE:    0.00 PKD
ROOT
HETATM    1 CA   UNL     1      -7.042  12.513  66.101  1.00  0.00    -0.349 Ca 
HETATM    2  C   UNL     2      -7.113   9.620  69.032  1.00  0.00    -0.066 C  
HETATM    3  H   UNL     2      -6.579   7.735  68.677  1.00  0.00     0.000 HD 
HETATM    4  C   UNL     2      -6.573  11.006  68.656  1.00  0.00    -0.058 C  
HETATM    5  O   UNL     2      -6.245   8.594  68.444  1.00  0.00    -0.052 OA 
HETATM    6  O   UNL     2      -6.605  11.926  69.495  1.00  0.00    -0.118 OA 
HETATM    7  O   UNL     2      -6.190  11.166  67.435  1.00  0.00    -0.057 OA 
ENDROOT
BRANCH   2   8
HETATM    8  C   UNL     2      -8.518   9.339  68.477  1.00  0.00    -0.123 C  
HETATM    9  H   UNL     2     -10.052   8.289  69.095  1.00  0.00     0.000 HD 
HETATM   10  O   UNL     2      -9.183   8.462  69.438  1.00  0.00    -0.153 OA 
BRANCH   8  11
HETATM   11  C   UNL     2      -9.506  10.514  68.211  1.00  0.00    -0.155 C  
HETATM   12  H   UNL     2     -10.790  11.496  69.297  1.00  0.00     0.000 HD 
HETATM   13  O   UNL     2     -10.188  10.780  69.459  1.00  0.00    -0.202 OA 
BRANCH  11  14
HETATM   14  C   UNL     2     -10.551  10.376  67.096  1.00  0.00    -0.261 C  
HETATM   15  C   UNL     2     -10.099  10.681  65.671  1.00  0.00    -0.272 C  
HETATM   16  O   UNL     2     -11.233   9.100  67.151  1.00  0.00    -0.214 OA 
HETATM   17  H   UNL     2     -11.880   9.014  66.460  1.00  0.00     0.000 HD 
HETATM   18  O   UNL     2      -8.928  11.077  65.401  1.00  0.00    -0.198 OA 
HETATM   19  O   UNL     2     -10.978  10.986  64.788  1.00  0.00    -0.224 OA 
ENDBRANCH  11  14
ENDBRANCH   8  11
ENDBRANCH   2   8
TORSDOF 3
ENDMDL
MODEL      318
REMARK 921   NORMALIZED FREE ENERGY PREDICTED BY IDOCK:   -2.37 KCAL/MOL
REMARK 922        TOTAL FREE ENERGY PREDICTED BY IDOCK:   -3.26 KCAL/MOL
REMARK 923 INTER-LIGAND FREE ENERGY PREDICTED BY IDOCK:   -3.09 KCAL/MOL
REMARK 924 INTRA-LIGAND FREE ENERGY PREDICTED BY IDOCK:   -0.17 KCAL/MOL
REMARK 927      BINDING AFFINITY PREDICTED BY RF-SCORE:    0.00 PKD
ROOT
HETATM    1 CA   UNL     1     -13.008   6.794  70.068  1.00  0.00    -0.626 Ca 
HETATM    2  C   UNL     2      -9.434   7.554  68.167  1.00  0.00    -0.143 C  
HETATM    3  H   UNL     2      -7.676   7.251  69.051  1.00  0.00     0.000 HD 
HETATM    4  C   UNL     2     -10.764   6.794  68.073  1.00  0.00    -0.241 C  
HETATM    5  O   UNL     2      -8.500   6.780  68.992  1.00  0.00    -0.126 OA 
HETATM    6  O   UNL     2     -11.390   6.782  66.996  1.00  0.00    -0.337 OA 
HETATM    7  O   UNL     2     -11.211   6.273  69.165  1.00  0.00    -0.376 OA 
ENDROOT
BRANCH   2   8
HETATM    8  C   UNL     2      -9.558   8.921  68.856  1.00  0.00    -0.160 C  
HETATM    9  H   UNL     2      -9.585   9.519  70.722  1.00  0.00     0.000 HD 
HETATM   10  O   UNL     2      -9.508   8.674  70.296  1.00  0.00    -0.158 OA 
BRANCH   8  11
HETATM   11  C   UNL     2      -8.510  10.039  68.576  1.00  0.00    -0.115 C  
HETATM   12  H   UNL     2      -6.834  10.584  69.404  1.00  0.00     0.000 HD 
HETATM   13  O   UNL     2      -7.474   9.903  69.576  1.00  0.00    -0.085 OA 
BRANCH  11  14
HETATM   14  C   UNL     2      -8.969  11.503  68.535  1.00  0.00    -0.146 C  
HETATM   15  C   UNL     2      -8.016  12.518  67.910  1.00  0.00    -0.157 C  
HETATM   16  O   UNL     2     -10.295  11.637  67.972  1.00  0.00    -0.182 OA 
HETATM   17  H   UNL     2     -10.579  12.544  67.947  1.00  0.00     0.000 HD 
HETATM   18  O   UNL     2      -6.871  12.197  67.476  1.00  0.00    -0.100 OA 
HETATM   19  O   UNL     2      -8.140  13.759  68.210  1.00  0.00    -0.136 OA 
ENDBRANCH  11  14
ENDBRANCH   8  11
ENDBRANCH   2   8
TORSDOF 3
ENDMDL
MODEL      319
REMARK 921   NORMALIZED FREE ENERGY PREDICTED BY IDOCK:   -2.35 KCAL/MOL
REMARK 922        TOTAL FREE ENERGY PREDICTED BY IDOCK:   -3.23 KCAL/MOL
REMARK 923 INTER-LIGAND FREE ENERGY PREDICTED BY IDOCK:   -3.40 KCAL/MOL
REMARK 924 INTRA-LIGAND FREE ENERGY PREDICTED BY IDOCK:    0.17 KCAL/MOL
REMARK 927      BINDING AFFINITY PREDICTED BY RF-SCORE:    0.00 PKD
ROOT
HETATM    1 CA   UNL     1     -11.813  18.771  67.216  1.00  0.00    -0.144 Ca 
HETATM    2  C   UNL     2      -7.749  18.213  66.844  1.00  0.00    -0.224 C  
HETATM    3  H   UNL     2      -6.975  16.582  66.005  1.00  0.00     0.000 HD 
HETATM    4  C   UNL     2      -8.915  19.161  66.534  1.00  0.00    -0.341 C  
HETATM    5  O   UNL     2      -7.696  17.169  65.813  1.00  0.00    -0.421 OA 
HETATM    6  O   UNL     2      -8.778  20.385  66.724  1.00  0.00    -0.281 OA 
HETATM    7  O   UNL     2     -10.025  18.614  66.170  1.00  0.00    -0.406 OA 
ENDROOT
BRANCH   2   8
HETATM    8  C   UNL     2      -7.905  17.467  68.178  1.00  0.00    -0.234 C  
HETATM    9  H   UNL     2      -8.560  15.692  68.688  1.00  0.00     0.000 HD 
HETATM   10  O   UNL     2      -8.464  16.153  67.863  1.00  0.00    -0.161 OA 
BRANCH   8  11
HETATM   11  C   UNL     2      -6.661  17.200  69.078  1.00  0.00    -0.227 C  
HETATM   12  H   UNL     2      -4.755  17.563  68.921  1.00  0.00     0.000 HD 
HETATM   13  O   UNL     2      -5.513  17.725  68.373  1.00  0.00    -0.154 OA 
BRANCH  11  14
HETATM   14  C   UNL     2      -6.354  15.764  69.523  1.00  0.00    -0.171 C  
HETATM   15  C   UNL     2      -5.667  14.850  68.512  1.00  0.00    -0.098 C  
HETATM   16  O   UNL     2      -5.660  15.730  70.793  1.00  0.00    -0.124 OA 
HETATM   17  H   UNL     2      -5.470  14.840  71.069  1.00  0.00     0.000 HD 
HETATM   18  O   UNL     2      -5.393  15.224  67.335  1.00  0.00    -0.336 OA 
HETATM   19  O   UNL     2      -5.759  13.579  68.656  1.00  0.00    -0.078 OA 
ENDBRANCH  11  14
ENDBRANCH   8  11
ENDBRANCH   2   8
TORSDOF 3
ENDMDL
MODEL      320
REMARK 921   NORMALIZED FREE ENERGY PREDICTED BY IDOCK:   -2.32 KCAL/MOL
REMARK 922        TOTAL FREE ENERGY PREDICTED BY IDOCK:   -3.21 KCAL/MOL
REMARK 923 INTER-LIGAND FREE ENERGY PREDICTED BY IDOCK:   -2.92 KCAL/MOL
REMARK 924 INTRA-LIGAND FREE ENERGY PREDICTED BY IDOCK:   -0.29 KCAL/MOL
REMARK 927      BINDING AFFINITY PREDICTED BY RF-SCORE:    0.00 PKD
ROOT
HETATM    1 CA   UNL     1      -7.979   7.365  73.315  1.00  0.00    -0.091 Ca 
HETATM    2  C   UNL     2     -10.046   4.099  71.889  1.00  0.00    -0.154 C  
HETATM    3  H   UNL     2      -9.137   2.593  70.956  1.00  0.00     0.000 HD 
HETATM    4  C   UNL     2      -9.762   4.956  73.131  1.00  0.00    -0.141 C  
HETATM    5  O   UNL     2      -8.962   3.123  71.725  1.00  0.00    -0.086 OA 
HETATM    6  O   UNL     2     -10.703   5.286  73.877  1.00  0.00    -0.276 OA 
HETATM    7  O   UNL     2      -8.549   5.367  73.285  1.00  0.00    -0.117 OA 
ENDROOT
BRANCH   2   8
HETATM    8  C   UNL     2     -10.074   4.907  70.583  1.00  0.00    -0.236 C  
HETATM    9  H   UNL     2     -10.233   4.441  68.686  1.00  0.00     0.000 HD 
HETATM   10  O   UNL     2     -10.216   3.942  69.494  1.00  0.00     0.203 OA 
BRANCH   8  11
HETATM   11  C   UNL     2     -11.177   5.983  70.349  1.00  0.00    -0.310 C  
HETATM   12  H   UNL     2     -11.849   6.940  68.792  1.00  0.00     0.000 HD 
HETATM   13  O   UNL     2     -11.176   6.285  68.935  1.00  0.00    -0.370 OA 
BRANCH  11  14
HETATM   14  C   UNL     2     -11.117   7.299  71.136  1.00  0.00    -0.253 C  
HETATM   15  C   UNL     2      -9.780   8.035  71.168  1.00  0.00    -0.160 C  
HETATM   16  O   UNL     2     -12.185   8.201  70.761  1.00  0.00    -0.488 OA 
HETATM   17  H   UNL     2     -12.147   9.016  71.248  1.00  0.00     0.000 HD 
HETATM   18  O   UNL     2      -8.740   7.576  70.614  1.00  0.00    -0.139 OA 
HETATM   19  O   UNL     2      -9.552   8.876  72.109  1.00  0.00    -0.301 OA 
ENDBRANCH  11  14
ENDBRANCH   8  11
ENDBRANCH   2   8
TORSDOF 3
ENDMDL
MODEL      321
REMARK 921   NORMALIZED FREE ENERGY PREDICTED BY IDOCK:   -2.32 KCAL/MOL
REMARK 922        TOTAL FREE ENERGY PREDICTED BY IDOCK:   -3.19 KCAL/MOL
REMARK 923 INTER-LIGAND FREE ENERGY PREDICTED BY IDOCK:   -2.86 KCAL/MOL
REMARK 924 INTRA-LIGAND FREE ENERGY PREDICTED BY IDOCK:   -0.33 KCAL/MOL
REMARK 927      BINDING AFFINITY PREDICTED BY RF-SCORE:    0.00 PKD
ROOT
HETATM    1 CA   UNL     1      -8.346   9.370  68.746  1.00  0.00    -0.100 Ca 
HETATM    2  C   UNL     2     -11.071   8.282  71.636  1.00  0.00    -0.265 C  
HETATM    3  H   UNL     2     -10.510   7.624  73.430  1.00  0.00     0.000 HD 
HETATM    4  C   UNL     2     -10.633   9.409  70.691  1.00  0.00    -0.290 C  
HETATM    5  O   UNL     2     -10.239   8.322  72.845  1.00  0.00    -0.295 OA 
HETATM    6  O   UNL     2     -11.493  10.042  70.050  1.00  0.00    -0.251 OA 
HETATM    7  O   UNL     2      -9.363   9.581  70.546  1.00  0.00    -0.252 OA 
ENDROOT
BRANCH   2   8
HETATM    8  C   UNL     2     -10.874   6.878  71.046  1.00  0.00    -0.241 C  
HETATM    9  H   UNL     2     -11.512   5.966  69.434  1.00  0.00     0.000 HD 
HETATM   10  O   UNL     2     -11.634   6.834  69.798  1.00  0.00    -0.298 OA 
BRANCH   8  11
HETATM   11  C   UNL     2      -9.443   6.368  70.695  1.00  0.00    -0.165 C  
HETATM   12  H   UNL     2      -8.333   6.398  69.096  1.00  0.00     0.000 HD 
HETATM   13  O   UNL     2      -9.205   6.708  69.310  1.00  0.00    -0.140 OA 
BRANCH  11  14
HETATM   14  C   UNL     2      -9.104   4.886  70.906  1.00  0.00    -0.142 C  
HETATM   15  C   UNL     2      -8.811   4.432  72.333  1.00  0.00    -0.113 C  
HETATM   16  O   UNL     2     -10.080   4.016  70.286  1.00  0.00    -0.120 OA 
HETATM   17  H   UNL     2      -9.870   3.098  70.417  1.00  0.00     0.000 HD 
HETATM   18  O   UNL     2      -8.798   5.233  73.312  1.00  0.00    -0.119 OA 
HETATM   19  O   UNL     2      -8.137   3.356  72.520  1.00  0.00    -0.070 OA 
ENDBRANCH  11  14
ENDBRANCH   8  11
ENDBRANCH   2   8
TORSDOF 3
ENDMDL
MODEL      322
REMARK 921   NORMALIZED FREE ENERGY PREDICTED BY IDOCK:   -2.31 KCAL/MOL
REMARK 922        TOTAL FREE ENERGY PREDICTED BY IDOCK:   -3.18 KCAL/MOL
REMARK 923 INTER-LIGAND FREE ENERGY PREDICTED BY IDOCK:   -2.88 KCAL/MOL
REMARK 924 INTRA-LIGAND FREE ENERGY PREDICTED BY IDOCK:   -0.31 KCAL/MOL
REMARK 927      BINDING AFFINITY PREDICTED BY RF-SCORE:    0.00 PKD
ROOT
HETATM    1 CA   UNL     1      -7.648   4.500  68.191  1.00  0.00    -0.067 Ca 
HETATM    2  C   UNL     2     -10.745   7.063  67.294  1.00  0.00    -0.342 C  
HETATM    3  H   UNL     2     -10.450   8.999  66.934  1.00  0.00     0.000 HD 
HETATM    4  C   UNL     2     -10.052   5.752  66.899  1.00  0.00    -0.192 C  
HETATM    5  O   UNL     2     -10.021   8.187  66.689  1.00  0.00    -0.247 OA 
HETATM    6  O   UNL     2     -10.741   4.749  66.633  1.00  0.00    -0.181 OA 
HETATM    7  O   UNL     2      -8.763   5.740  66.952  1.00  0.00    -0.111 OA 
ENDROOT
BRANCH   2   8
HETATM    8  C   UNL     2     -10.731   7.330  68.807  1.00  0.00    -0.139 C  
HETATM    9  H   UNL     2     -11.438   6.389  70.373  1.00  0.00     0.000 HD 
HETATM   10  O   UNL     2     -11.447   6.223  69.438  1.00  0.00    -0.427 OA 
BRANCH   8  11
HETATM   11  C   UNL     2      -9.377   7.455  69.569  1.00  0.00    -0.156 C  
HETATM   12  H   UNL     2      -8.511   6.453  70.997  1.00  0.00     0.000 HD 
HETATM   13  O   UNL     2      -9.337   6.378  70.533  1.00  0.00    -0.161 OA 
BRANCH  11  14
HETATM   14  C   UNL     2      -9.039   8.771  70.283  1.00  0.00    -0.170 C  
HETATM   15  C   UNL     2      -8.028   9.694  69.608  1.00  0.00    -0.137 C  
HETATM   16  O   UNL     2     -10.229   9.505  70.654  1.00  0.00    -0.265 OA 
HETATM   17  H   UNL     2     -10.020  10.320  71.097  1.00  0.00     0.000 HD 
HETATM   18  O   UNL     2      -7.447   9.389  68.526  1.00  0.00    -0.079 OA 
HETATM   19  O   UNL     2      -7.407  10.565  70.316  1.00  0.00    -0.206 OA 
ENDBRANCH  11  14
ENDBRANCH   8  11
ENDBRANCH   2   8
TORSDOF 3
ENDMDL
MODEL      323
REMARK 921   NORMALIZED FREE ENERGY PREDICTED BY IDOCK:   -2.28 KCAL/MOL
REMARK 922        TOTAL FREE ENERGY PREDICTED BY IDOCK:   -3.15 KCAL/MOL
REMARK 923 INTER-LIGAND FREE ENERGY PREDICTED BY IDOCK:   -2.72 KCAL/MOL
REMARK 924 INTRA-LIGAND FREE ENERGY PREDICTED BY IDOCK:   -0.43 KCAL/MOL
REMARK 927      BINDING AFFINITY PREDICTED BY RF-SCORE:    0.00 PKD
ROOT
HETATM    1 CA   UNL     1     -10.463   1.761  67.924  1.00  0.00    -0.361 Ca 
HETATM    2  C   UNL     2      -8.097   4.349  70.085  1.00  0.00    -0.059 C  
HETATM    3  H   UNL     2      -7.333   3.860  71.857  1.00  0.00     0.000 HD 
HETATM    4  C   UNL     2      -8.272   3.648  68.731  1.00  0.00    -0.072 C  
HETATM    5  O   UNL     2      -7.441   3.427  71.019  1.00  0.00    -0.036 OA 
HETATM    6  O   UNL     2      -8.100   4.293  67.679  1.00  0.00    -0.094 OA 
HETATM    7  O   UNL     2      -8.681   2.425  68.761  1.00  0.00    -0.068 OA 
ENDROOT
BRANCH   2   8
HETATM    8  C   UNL     2      -9.428   4.732  70.751  1.00  0.00    -0.162 C  
HETATM    9  H   UNL     2     -10.132   4.614  72.576  1.00  0.00     0.000 HD 
HETATM   10  O   UNL     2      -9.309   4.377  72.164  1.00  0.00    -0.123 OA 
BRANCH   8  11
HETATM   11  C   UNL     2      -9.924   6.209  70.720  1.00  0.00    -0.189 C  
HETATM   12  H   UNL     2      -9.047   7.947  70.653  1.00  0.00     0.000 HD 
HETATM   13  O   UNL     2      -8.745   7.047  70.673  1.00  0.00    -0.146 OA 
BRANCH  11  14
HETATM   14  C   UNL     2     -10.844   6.713  71.840  1.00  0.00    -0.236 C  
HETATM   15  C   UNL     2     -11.675   7.961  71.553  1.00  0.00    -0.283 C  
HETATM   16  O   UNL     2     -11.680   5.657  72.368  1.00  0.00    -0.277 OA 
HETATM   17  H   UNL     2     -12.250   5.969  73.061  1.00  0.00     0.000 HD 
HETATM   18  O   UNL     2     -11.593   8.596  70.462  1.00  0.00    -0.243 OA 
HETATM   19  O   UNL     2     -12.123   8.653  72.536  1.00  0.00    -0.374 OA 
ENDBRANCH  11  14
ENDBRANCH   8  11
ENDBRANCH   2   8
TORSDOF 3
ENDMDL
MODEL      324
REMARK 921   NORMALIZED FREE ENERGY PREDICTED BY IDOCK:   -2.27 KCAL/MOL
REMARK 922        TOTAL FREE ENERGY PREDICTED BY IDOCK:   -3.15 KCAL/MOL
REMARK 923 INTER-LIGAND FREE ENERGY PREDICTED BY IDOCK:   -2.72 KCAL/MOL
REMARK 924 INTRA-LIGAND FREE ENERGY PREDICTED BY IDOCK:   -0.43 KCAL/MOL
REMARK 927      BINDING AFFINITY PREDICTED BY RF-SCORE:    0.00 PKD
ROOT
HETATM    1 CA   UNL     1     -10.926  10.810  66.312  1.00  0.00    -0.240 Ca 
HETATM    2  C   UNL     2      -9.171   7.430  67.880  1.00  0.00    -0.131 C  
HETATM    3  H   UNL     2      -9.581   5.606  67.195  1.00  0.00     0.000 HD 
HETATM    4  C   UNL     2      -8.900   8.805  67.255  1.00  0.00    -0.132 C  
HETATM    5  O   UNL     2      -9.413   6.457  66.809  1.00  0.00    -0.141 OA 
HETATM    6  O   UNL     2      -8.031   9.545  67.753  1.00  0.00    -0.098 OA 
HETATM    7  O   UNL     2      -9.666   9.158  66.279  1.00  0.00    -0.231 OA 
ENDROOT
BRANCH   2   8
HETATM    8  C   UNL     2     -10.430   7.396  68.760  1.00  0.00    -0.199 C  
HETATM    9  H   UNL     2     -12.029   6.265  68.821  1.00  0.00     0.000 HD 
HETATM   10  O   UNL     2     -11.251   6.286  68.277  1.00  0.00    -0.328 OA 
BRANCH   8  11
HETATM   11  C   UNL     2     -10.306   7.200  70.301  1.00  0.00    -0.201 C  
HETATM   12  H   UNL     2      -9.526   8.234  71.754  1.00  0.00     0.000 HD 
HETATM   13  O   UNL     2      -9.601   8.353  70.815  1.00  0.00    -0.164 OA 
BRANCH  11  14
HETATM   14  C   UNL     2      -9.636   5.929  70.842  1.00  0.00    -0.170 C  
HETATM   15  C   UNL     2      -9.896   5.569  72.302  1.00  0.00    -0.161 C  
HETATM   16  O   UNL     2      -9.876   4.787  69.986  1.00  0.00    -0.189 OA 
HETATM   17  H   UNL     2      -9.461   4.000  70.322  1.00  0.00     0.000 HD 
HETATM   18  O   UNL     2     -10.595   6.296  73.066  1.00  0.00    -0.215 OA 
HETATM   19  O   UNL     2      -9.072   4.798  72.912  1.00  0.00    -0.118 OA 
ENDBRANCH  11  14
ENDBRANCH   8  11
ENDBRANCH   2   8
TORSDOF 3
ENDMDL
MODEL      325
REMARK 921   NORMALIZED FREE ENERGY PREDICTED BY IDOCK:   -2.25 KCAL/MOL
REMARK 922        TOTAL FREE ENERGY PREDICTED BY IDOCK:   -3.12 KCAL/MOL
REMARK 923 INTER-LIGAND FREE ENERGY PREDICTED BY IDOCK:   -2.93 KCAL/MOL
REMARK 924 INTRA-LIGAND FREE ENERGY PREDICTED BY IDOCK:   -0.19 KCAL/MOL
REMARK 927      BINDING AFFINITY PREDICTED BY RF-SCORE:    0.00 PKD
ROOT
HETATM    1 CA   UNL     1      -9.210  11.671  68.452  1.00  0.00    -0.142 Ca 
HETATM    2  C   UNL     2      -8.189   7.881  69.699  1.00  0.00    -0.122 C  
HETATM    3  H   UNL     2      -7.852   6.396  68.416  1.00  0.00     0.000 HD 
HETATM    4  C   UNL     2      -7.819   9.368  69.784  1.00  0.00    -0.115 C  
HETATM    5  O   UNL     2      -7.623   7.317  68.469  1.00  0.00    -0.111 OA 
HETATM    6  O   UNL     2      -7.517   9.864  70.885  1.00  0.00    -0.314 OA 
HETATM    7  O   UNL     2      -7.929  10.054  68.697  1.00  0.00    -0.091 OA 
ENDROOT
BRANCH   2   8
HETATM    8  C   UNL     2      -9.703   7.632  69.608  1.00  0.00    -0.171 C  
HETATM    9  H   UNL     2     -11.037   7.803  68.183  1.00  0.00     0.000 HD 
HETATM   10  O   UNL     2     -10.101   7.957  68.240  1.00  0.00    -0.182 OA 
BRANCH   8  11
HETATM   11  C   UNL     2     -10.284   6.216  69.900  1.00  0.00    -0.192 C  
HETATM   12  H   UNL     2     -11.103   4.821  68.816  1.00  0.00     0.000 HD 
HETATM   13  O   UNL     2     -10.749   5.685  68.638  1.00  0.00    -0.229 OA 
BRANCH  11  14
HETATM   14  C   UNL     2     -11.400   6.066  70.942  1.00  0.00    -0.229 C  
HETATM   15  C   UNL     2     -10.998   5.590  72.335  1.00  0.00    -0.255 C  
HETATM   16  O   UNL     2     -12.221   7.254  71.029  1.00  0.00    -0.343 OA 
HETATM   17  H   UNL     2     -12.913   7.161  71.674  1.00  0.00     0.000 HD 
HETATM   18  O   UNL     2      -9.806   5.283  72.630  1.00  0.00    -0.157 OA 
HETATM   19  O   UNL     2     -11.885   5.058  73.094  1.00  0.00    -0.279 OA 
ENDBRANCH  11  14
ENDBRANCH   8  11
ENDBRANCH   2   8
TORSDOF 3
ENDMDL
MODEL      326
REMARK 921   NORMALIZED FREE ENERGY PREDICTED BY IDOCK:   -2.24 KCAL/MOL
REMARK 922        TOTAL FREE ENERGY PREDICTED BY IDOCK:   -3.11 KCAL/MOL
REMARK 923 INTER-LIGAND FREE ENERGY PREDICTED BY IDOCK:   -2.85 KCAL/MOL
REMARK 924 INTRA-LIGAND FREE ENERGY PREDICTED BY IDOCK:   -0.26 KCAL/MOL
REMARK 927      BINDING AFFINITY PREDICTED BY RF-SCORE:    0.00 PKD
ROOT
HETATM    1 CA   UNL     1     -10.158   8.529  69.140  1.00  0.00    -0.169 Ca 
HETATM    2  C   UNL     2      -7.247  10.862  67.397  1.00  0.00    -0.094 C  
HETATM    3  H   UNL     2      -7.100  12.817  67.750  1.00  0.00     0.000 HD 
HETATM    4  C   UNL     2      -7.504   9.608  68.242  1.00  0.00    -0.077 C  
HETATM    5  O   UNL     2      -7.259  12.040  68.273  1.00  0.00    -0.077 OA 
HETATM    6  O   UNL     2      -6.883   8.559  67.989  1.00  0.00    -0.067 OA 
HETATM    7  O   UNL     2      -8.436   9.691  69.131  1.00  0.00    -0.127 OA 
ENDROOT
BRANCH   2   8
HETATM    8  C   UNL     2      -8.333  11.123  66.342  1.00  0.00    -0.167 C  
HETATM    9  H   UNL     2      -8.992  10.138  64.782  1.00  0.00     0.000 HD 
HETATM   10  O   UNL     2      -8.321   9.977  65.434  1.00  0.00    -0.138 OA 
BRANCH   8  11
HETATM   11  C   UNL     2      -9.818  11.313  66.775  1.00  0.00    -0.199 C  
HETATM   12  H   UNL     2     -11.464  10.309  66.499  1.00  0.00     0.000 HD 
HETATM   13  O   UNL     2     -10.558  10.194  66.235  1.00  0.00    -0.156 OA 
BRANCH  11  14
HETATM   14  C   UNL     2     -10.545  12.612  66.404  1.00  0.00    -0.251 C  
HETATM   15  C   UNL     2     -11.766  12.993  67.237  1.00  0.00    -0.375 C  
HETATM   16  O   UNL     2      -9.632  13.730  66.299  1.00  0.00    -0.309 OA 
HETATM   17  H   UNL     2     -10.083  14.535  66.070  1.00  0.00     0.000 HD 
HETATM   18  O   UNL     2     -12.205  12.261  68.171  1.00  0.00    -0.349 OA 
HETATM   19  O   UNL     2     -12.632  13.799  66.743  1.00  0.00    -0.296 OA 
ENDBRANCH  11  14
ENDBRANCH   8  11
ENDBRANCH   2   8
TORSDOF 3
ENDMDL
MODEL      327
REMARK 921   NORMALIZED FREE ENERGY PREDICTED BY IDOCK:   -2.23 KCAL/MOL
REMARK 922        TOTAL FREE ENERGY PREDICTED BY IDOCK:   -3.10 KCAL/MOL
REMARK 923 INTER-LIGAND FREE ENERGY PREDICTED BY IDOCK:   -2.27 KCAL/MOL
REMARK 924 INTRA-LIGAND FREE ENERGY PREDICTED BY IDOCK:   -0.83 KCAL/MOL
REMARK 927      BINDING AFFINITY PREDICTED BY RF-SCORE:    0.00 PKD
ROOT
HETATM    1 CA   UNL     1      -7.697   6.334  72.319  1.00  0.00    -0.089 Ca 
HETATM    2  C   UNL     2      -8.228   5.093  68.428  1.00  0.00    -0.090 C  
HETATM    3  H   UNL     2      -7.204   5.883  66.914  1.00  0.00     0.000 HD 
HETATM    4  C   UNL     2      -7.902   4.631  69.854  1.00  0.00    -0.061 C  
HETATM    5  O   UNL     2      -7.003   5.596  67.797  1.00  0.00    -0.062 OA 
HETATM    6  O   UNL     2      -8.443   3.605  70.306  1.00  0.00    -0.056 OA 
HETATM    7  O   UNL     2      -7.135   5.400  70.550  1.00  0.00    -0.057 OA 
ENDROOT
BRANCH   2   8
HETATM    8  C   UNL     2      -9.227   6.260  68.376  1.00  0.00    -0.112 C  
HETATM    9  H   UNL     2     -10.531   6.891  67.058  1.00  0.00     0.000 HD 
HETATM   10  O   UNL     2      -9.913   6.170  67.089  1.00  0.00    -0.132 OA 
BRANCH   8  11
HETATM   11  C   UNL     2     -10.346   6.382  69.453  1.00  0.00    -0.209 C  
HETATM   12  H   UNL     2     -12.282   6.588  69.399  1.00  0.00     0.000 HD 
HETATM   13  O   UNL     2     -11.599   6.514  68.743  1.00  0.00    -0.154 OA 
BRANCH  11  14
HETATM   14  C   UNL     2     -10.255   7.497  70.505  1.00  0.00    -0.201 C  
HETATM   15  C   UNL     2     -11.016   7.290  71.811  1.00  0.00    -0.227 C  
HETATM   16  O   UNL     2      -8.884   7.877  70.770  1.00  0.00    -0.136 OA 
HETATM   17  H   UNL     2      -8.828   8.566  71.422  1.00  0.00     0.000 HD 
HETATM   18  O   UNL     2     -11.736   6.271  72.023  1.00  0.00    -0.308 OA 
HETATM   19  O   UNL     2     -11.320   8.311  72.526  1.00  0.00    -0.375 OA 
ENDBRANCH  11  14
ENDBRANCH   8  11
ENDBRANCH   2   8
TORSDOF 3
ENDMDL
MODEL      328
REMARK 921   NORMALIZED FREE ENERGY PREDICTED BY IDOCK:   -2.23 KCAL/MOL
REMARK 922        TOTAL FREE ENERGY PREDICTED BY IDOCK:   -3.10 KCAL/MOL
REMARK 923 INTER-LIGAND FREE ENERGY PREDICTED BY IDOCK:   -2.56 KCAL/MOL
REMARK 924 INTRA-LIGAND FREE ENERGY PREDICTED BY IDOCK:   -0.54 KCAL/MOL
REMARK 927      BINDING AFFINITY PREDICTED BY RF-SCORE:    0.00 PKD
ROOT
HETATM    1 CA   UNL     1      -9.379  11.903  69.518  1.00  0.00    -0.382 Ca 
HETATM    2  C   UNL     2      -8.856   9.181  66.472  1.00  0.00    -0.134 C  
HETATM    3  H   UNL     2     -10.385   8.221  65.632  1.00  0.00     0.000 HD 
HETATM    4  C   UNL     2      -8.575  10.619  66.925  1.00  0.00    -0.126 C  
HETATM    5  O   UNL     2     -10.211   9.111  65.913  1.00  0.00    -0.209 OA 
HETATM    6  O   UNL     2      -7.445  11.111  66.745  1.00  0.00    -0.133 OA 
HETATM    7  O   UNL     2      -9.523  11.221  67.560  1.00  0.00    -0.167 OA 
ENDROOT
BRANCH   2   8
HETATM    8  C   UNL     2      -8.833   8.162  67.622  1.00  0.00    -0.136 C  
HETATM    9  H   UNL     2     -10.211   7.233  68.659  1.00  0.00     0.000 HD 
HETATM   10  O   UNL     2     -10.225   7.863  67.948  1.00  0.00    -0.189 OA 
BRANCH   8  11
HETATM   11  C   UNL     2      -8.130   6.783  67.434  1.00  0.00    -0.118 C  
HETATM   12  H   UNL     2      -6.388   6.212  66.776  1.00  0.00     0.000 HD 
HETATM   13  O   UNL     2      -6.817   7.052  66.890  1.00  0.00    -0.060 OA 
BRANCH  11  14
HETATM   14  C   UNL     2      -8.810   5.707  66.578  1.00  0.00    -0.123 C  
HETATM   15  C   UNL     2      -9.135   4.378  67.253  1.00  0.00    -0.132 C  
HETATM   16  O   UNL     2      -9.971   6.222  65.885  1.00  0.00    -0.388 OA 
HETATM   17  H   UNL     2     -10.392   5.556  65.355  1.00  0.00     0.000 HD 
HETATM   18  O   UNL     2      -8.826   4.134  68.456  1.00  0.00    -0.094 OA 
HETATM   19  O   UNL     2      -9.306   3.333  66.528  1.00  0.00    -0.166 OA 
ENDBRANCH  11  14
ENDBRANCH   8  11
ENDBRANCH   2   8
TORSDOF 3
ENDMDL
MODEL      329
REMARK 921   NORMALIZED FREE ENERGY PREDICTED BY IDOCK:   -2.23 KCAL/MOL
REMARK 922        TOTAL FREE ENERGY PREDICTED BY IDOCK:   -3.09 KCAL/MOL
REMARK 923 INTER-LIGAND FREE ENERGY PREDICTED BY IDOCK:   -2.83 KCAL/MOL
REMARK 924 INTRA-LIGAND FREE ENERGY PREDICTED BY IDOCK:   -0.26 KCAL/MOL
REMARK 927      BINDING AFFINITY PREDICTED BY RF-SCORE:    0.00 PKD
ROOT
HETATM    1 CA   UNL     1      -8.353   6.626  72.504  1.00  0.00    -0.107 Ca 
HETATM    2  C   UNL     2     -10.334   5.082  69.240  1.00  0.00    -0.129 C  
HETATM    3  H   UNL     2      -9.683   5.352  67.378  1.00  0.00     0.000 HD 
HETATM    4  C   UNL     2      -9.693   4.739  70.591  1.00  0.00    -0.200 C  
HETATM    5  O   UNL     2      -9.286   5.139  68.214  1.00  0.00    -0.113 OA 
HETATM    6  O   UNL     2     -10.283   3.970  71.373  1.00  0.00    -0.125 OA 
HETATM    7  O   UNL     2      -8.595   5.350  70.882  1.00  0.00    -0.122 OA 
ENDROOT
BRANCH   2   8
HETATM    8  C   UNL     2     -11.009   6.462  69.216  1.00  0.00    -0.356 C  
HETATM    9  H   UNL     2     -12.482   7.285  70.212  1.00  0.00     0.000 HD 
HETATM   10  O   UNL     2     -12.065   6.432  70.227  1.00  0.00    -0.294 OA 
BRANCH   8  11
HETATM   11  C   UNL     2     -10.177   7.748  69.503  1.00  0.00    -0.207 C  
HETATM   12  H   UNL     2     -10.379   9.272  70.698  1.00  0.00     0.000 HD 
HETATM   13  O   UNL     2     -10.886   8.488  70.523  1.00  0.00    -0.220 OA 
BRANCH  11  14
HETATM   14  C   UNL     2      -9.843   8.697  68.344  1.00  0.00    -0.172 C  
HETATM   15  C   UNL     2      -8.452   8.585  67.726  1.00  0.00    -0.130 C  
HETATM   16  O   UNL     2     -10.860   8.670  67.315  1.00  0.00    -0.437 OA 
HETATM   17  H   UNL     2     -10.653   9.258  66.597  1.00  0.00     0.000 HD 
HETATM   18  O   UNL     2      -7.578   7.781  68.163  1.00  0.00    -0.110 OA 
HETATM   19  O   UNL     2      -7.977   9.581  67.073  1.00  0.00    -0.107 OA 
ENDBRANCH  11  14
ENDBRANCH   8  11
ENDBRANCH   2   8
TORSDOF 3
ENDMDL
MODEL      330
REMARK 921   NORMALIZED FREE ENERGY PREDICTED BY IDOCK:   -2.21 KCAL/MOL
REMARK 922        TOTAL FREE ENERGY PREDICTED BY IDOCK:   -3.07 KCAL/MOL
REMARK 923 INTER-LIGAND FREE ENERGY PREDICTED BY IDOCK:   -3.08 KCAL/MOL
REMARK 924 INTRA-LIGAND FREE ENERGY PREDICTED BY IDOCK:    0.01 KCAL/MOL
REMARK 927      BINDING AFFINITY PREDICTED BY RF-SCORE:    0.00 PKD
ROOT
HETATM    1 CA   UNL     1      -8.006  15.762  65.686  1.00  0.00    -0.202 Ca 
HETATM    2  C   UNL     2     -10.347  12.730  67.201  1.00  0.00    -0.233 C  
HETATM    3  H   UNL     2     -10.488  12.373  69.154  1.00  0.00     0.000 HD 
HETATM    4  C   UNL     2     -10.340  13.978  66.308  1.00  0.00    -0.293 C  
HETATM    5  O   UNL     2     -10.484  13.146  68.601  1.00  0.00    -0.253 OA 
HETATM    6  O   UNL     2     -10.931  13.952  65.212  1.00  0.00    -0.308 OA 
HETATM    7  O   UNL     2      -9.632  14.976  66.714  1.00  0.00    -0.225 OA 
ENDROOT
BRANCH   2   8
HETATM    8  C   UNL     2      -9.040  11.925  67.136  1.00  0.00    -0.178 C  
HETATM    9  H   UNL     2      -7.138  12.386  67.240  1.00  0.00     0.000 HD 
HETATM   10  O   UNL     2      -7.946  12.884  67.280  1.00  0.00    -0.174 OA 
BRANCH   8  11
HETATM   11  C   UNL     2      -8.761  10.797  68.175  1.00  0.00    -0.130 C  
HETATM   12  H   UNL     2      -7.161   9.894  68.819  1.00  0.00     0.000 HD 
HETATM   13  O   UNL     2      -7.331  10.581  68.186  1.00  0.00    -0.086 OA 
BRANCH  11  14
HETATM   14  C   UNL     2      -9.466   9.443  68.017  1.00  0.00    -0.133 C  
HETATM   15  C   UNL     2     -10.502   9.066  69.072  1.00  0.00    -0.218 C  
HETATM   16  O   UNL     2     -10.007   9.269  66.686  1.00  0.00    -0.221 OA 
HETATM   17  H   UNL     2     -10.444   8.430  66.589  1.00  0.00     0.000 HD 
HETATM   18  O   UNL     2     -10.755   9.803  70.068  1.00  0.00    -0.241 OA 
HETATM   19  O   UNL     2     -10.806   7.831  69.235  1.00  0.00    -0.188 OA 
ENDBRANCH  11  14
ENDBRANCH   8  11
ENDBRANCH   2   8
TORSDOF 3
ENDMDL
MODEL      331
REMARK 921   NORMALIZED FREE ENERGY PREDICTED BY IDOCK:   -2.21 KCAL/MOL
REMARK 922        TOTAL FREE ENERGY PREDICTED BY IDOCK:   -3.07 KCAL/MOL
REMARK 923 INTER-LIGAND FREE ENERGY PREDICTED BY IDOCK:   -2.69 KCAL/MOL
REMARK 924 INTRA-LIGAND FREE ENERGY PREDICTED BY IDOCK:   -0.38 KCAL/MOL
REMARK 927      BINDING AFFINITY PREDICTED BY RF-SCORE:    0.00 PKD
ROOT
HETATM    1 CA   UNL     1     -11.843   5.482  65.563  1.00  0.00    -0.695 Ca 
HETATM    2  C   UNL     2      -9.971   8.700  67.325  1.00  0.00    -0.219 C  
HETATM    3  H   UNL     2     -10.898  10.437  67.618  1.00  0.00     0.000 HD 
HETATM    4  C   UNL     2     -10.333   7.218  67.492  1.00  0.00    -0.242 C  
HETATM    5  O   UNL     2     -11.121   9.520  67.722  1.00  0.00    -0.186 OA 
HETATM    6  O   UNL     2      -9.478   6.422  67.925  1.00  0.00    -0.118 OA 
HETATM    7  O   UNL     2     -11.502   6.858  67.082  1.00  0.00    -0.166 OA 
ENDROOT
BRANCH   2   8
HETATM    8  C   UNL     2      -9.664   9.095  65.873  1.00  0.00    -0.266 C  
HETATM    9  H   UNL     2      -9.743  10.771  64.862  1.00  0.00     0.000 HD 
HETATM   10  O   UNL     2      -9.933  10.527  65.760  1.00  0.00    -0.231 OA 
BRANCH   8  11
HETATM   11  C   UNL     2      -8.237   8.878  65.285  1.00  0.00    -0.137 C  
HETATM   12  H   UNL     2      -6.955  10.007  64.351  1.00  0.00     0.000 HD 
HETATM   13  O   UNL     2      -7.825  10.139  64.709  1.00  0.00    -0.142 OA 
BRANCH  11  14
HETATM   14  C   UNL     2      -8.014   7.765  64.252  1.00  0.00    -0.120 C  
HETATM   15  C   UNL     2      -6.610   7.177  64.150  1.00  0.00    -0.043 C  
HETATM   16  O   UNL     2      -8.999   6.711  64.373  1.00  0.00    -0.060 OA 
HETATM   17  H   UNL     2      -8.860   6.022  63.734  1.00  0.00     0.000 HD 
HETATM   18  O   UNL     2      -5.643   7.603  64.845  1.00  0.00    -0.033 OA 
HETATM   19  O   UNL     2      -6.262   6.574  63.072  1.00  0.00    -0.032 OA 
ENDBRANCH  11  14
ENDBRANCH   8  11
ENDBRANCH   2   8
TORSDOF 3
ENDMDL
MODEL      332
REMARK 921   NORMALIZED FREE ENERGY PREDICTED BY IDOCK:   -2.17 KCAL/MOL
REMARK 922        TOTAL FREE ENERGY PREDICTED BY IDOCK:   -3.02 KCAL/MOL
REMARK 923 INTER-LIGAND FREE ENERGY PREDICTED BY IDOCK:   -3.71 KCAL/MOL
REMARK 924 INTRA-LIGAND FREE ENERGY PREDICTED BY IDOCK:    0.69 KCAL/MOL
REMARK 927      BINDING AFFINITY PREDICTED BY RF-SCORE:    0.00 PKD
ROOT
HETATM    1 CA   UNL     1     -13.203  14.101  65.514  1.00  0.00    -0.467 Ca 
HETATM    2  C   UNL     2      -9.967  11.611  66.055  1.00  0.00    -0.228 C  
HETATM    3  H   UNL     2      -9.979  10.128  67.384  1.00  0.00     0.000 HD 
HETATM    4  C   UNL     2     -10.954  12.172  65.024  1.00  0.00    -0.309 C  
HETATM    5  O   UNL     2     -10.590  10.476  66.745  1.00  0.00    -0.247 OA 
HETATM    6  O   UNL     2     -10.533  12.558  63.917  1.00  0.00    -0.398 OA 
HETATM    7  O   UNL     2     -12.181  12.295  65.404  1.00  0.00    -0.546 OA 
ENDROOT
BRANCH   2   8
HETATM    8  C   UNL     2      -9.601  12.614  67.160  1.00  0.00    -0.207 C  
HETATM    9  H   UNL     2      -9.332  12.483  69.096  1.00  0.00     0.000 HD 
HETATM   10  O   UNL     2      -9.558  11.863  68.413  1.00  0.00    -0.203 OA 
BRANCH   8  11
HETATM   11  C   UNL     2      -8.261  13.406  67.088  1.00  0.00    -0.110 C  
HETATM   12  H   UNL     2      -6.543  13.278  67.996  1.00  0.00     0.000 HD 
HETATM   13  O   UNL     2      -7.360  12.796  68.040  1.00  0.00    -0.093 OA 
BRANCH  11  14
HETATM   14  C   UNL     2      -8.275  14.923  67.322  1.00  0.00    -0.209 C  
HETATM   15  C   UNL     2      -7.195  15.500  68.234  1.00  0.00    -0.116 C  
HETATM   16  O   UNL     2      -8.338  15.661  66.079  1.00  0.00    -0.299 OA 
HETATM   17  H   UNL     2      -8.346  16.600  66.224  1.00  0.00     0.000 HD 
HETATM   18  O   UNL     2      -6.341  14.773  68.819  1.00  0.00    -0.083 OA 
HETATM   19  O   UNL     2      -7.390  16.640  68.789  1.00  0.00    -0.194 OA 
ENDBRANCH  11  14
ENDBRANCH   8  11
ENDBRANCH   2   8
TORSDOF 3
ENDMDL
MODEL      333
REMARK 921   NORMALIZED FREE ENERGY PREDICTED BY IDOCK:   -2.16 KCAL/MOL
REMARK 922        TOTAL FREE ENERGY PREDICTED BY IDOCK:   -3.01 KCAL/MOL
REMARK 923 INTER-LIGAND FREE ENERGY PREDICTED BY IDOCK:   -3.11 KCAL/MOL
REMARK 924 INTRA-LIGAND FREE ENERGY PREDICTED BY IDOCK:    0.10 KCAL/MOL
REMARK 927      BINDING AFFINITY PREDICTED BY RF-SCORE:    0.00 PKD
ROOT
HETATM    1 CA   UNL     1      -6.968  11.658  65.652  1.00  0.00    -0.347 Ca 
HETATM    2  C   UNL     2     -10.560   9.892  66.622  1.00  0.00    -0.115 C  
HETATM    3  H   UNL     2     -11.627  10.456  68.205  1.00  0.00     0.000 HD 
HETATM    4  C   UNL     2      -9.777  10.606  65.512  1.00  0.00    -0.237 C  
HETATM    5  O   UNL     2     -11.142  10.898  67.518  1.00  0.00    -0.279 OA 
HETATM    6  O   UNL     2      -9.818  10.163  64.349  1.00  0.00    -0.322 OA 
HETATM    7  O   UNL     2      -9.033  11.596  65.874  1.00  0.00    -0.192 OA 
ENDROOT
BRANCH   2   8
HETATM    8  C   UNL     2      -9.683   9.002  67.515  1.00  0.00    -0.161 C  
HETATM    9  H   UNL     2      -7.763   8.913  67.899  1.00  0.00     0.000 HD 
HETATM   10  O   UNL     2      -8.306   9.463  67.346  1.00  0.00    -0.123 OA 
BRANCH   8  11
HETATM   11  C   UNL     2      -9.931   8.946  69.052  1.00  0.00    -0.190 C  
HETATM   12  H   UNL     2      -9.084   9.757  70.607  1.00  0.00     0.000 HD 
HETATM   13  O   UNL     2      -8.932   9.790  69.670  1.00  0.00    -0.184 OA 
BRANCH  11  14
HETATM   14  C   UNL     2      -9.935   7.585  69.761  1.00  0.00    -0.186 C  
HETATM   15  C   UNL     2     -11.193   7.204  70.537  1.00  0.00    -0.290 C  
HETATM   16  O   UNL     2      -9.543   6.513  68.872  1.00  0.00    -0.129 OA 
HETATM   17  H   UNL     2      -9.545   5.670  69.311  1.00  0.00     0.000 HD 
HETATM   18  O   UNL     2     -12.186   7.980  70.644  1.00  0.00    -0.097 OA 
HETATM   19  O   UNL     2     -11.113   6.317  71.460  1.00  0.00    -0.259 OA 
ENDBRANCH  11  14
ENDBRANCH   8  11
ENDBRANCH   2   8
TORSDOF 3
ENDMDL
MODEL      334
REMARK 921   NORMALIZED FREE ENERGY PREDICTED BY IDOCK:   -2.15 KCAL/MOL
REMARK 922        TOTAL FREE ENERGY PREDICTED BY IDOCK:   -3.00 KCAL/MOL
REMARK 923 INTER-LIGAND FREE ENERGY PREDICTED BY IDOCK:   -2.96 KCAL/MOL
REMARK 924 INTRA-LIGAND FREE ENERGY PREDICTED BY IDOCK:   -0.04 KCAL/MOL
REMARK 927      BINDING AFFINITY PREDICTED BY RF-SCORE:    0.00 PKD
ROOT
HETATM    1 CA   UNL     1     -10.178   2.803  67.079  1.00  0.00    -0.412 Ca 
HETATM    2  C   UNL     2      -8.890   5.512  69.901  1.00  0.00    -0.127 C  
HETATM    3  H   UNL     2      -7.995   4.945  71.586  1.00  0.00     0.000 HD 
HETATM    4  C   UNL     2      -8.807   5.112  68.422  1.00  0.00    -0.101 C  
HETATM    5  O   UNL     2      -7.943   4.697  70.671  1.00  0.00    -0.066 OA 
HETATM    6  O   UNL     2      -8.883   5.991  67.543  1.00  0.00    -0.112 OA 
HETATM    7  O   UNL     2      -8.750   3.849  68.167  1.00  0.00    -0.094 OA 
ENDROOT
BRANCH   2   8
HETATM    8  C   UNL     2     -10.267   5.247  70.530  1.00  0.00    -0.264 C  
HETATM    9  H   UNL     2     -10.969   3.914  71.781  1.00  0.00     0.000 HD 
HETATM   10  O   UNL     2     -10.118   4.077  71.393  1.00  0.00    -0.165 OA 
BRANCH   8  11
HETATM   11  C   UNL     2     -10.954   6.340  71.403  1.00  0.00    -0.275 C  
HETATM   12  H   UNL     2     -12.614   7.350  71.277  1.00  0.00     0.000 HD 
HETATM   13  O   UNL     2     -12.195   6.684  70.745  1.00  0.00    -0.378 OA 
BRANCH  11  14
HETATM   14  C   UNL     2     -10.189   7.632  71.723  1.00  0.00    -0.188 C  
HETATM   15  C   UNL     2      -9.070   7.544  72.757  1.00  0.00    -0.152 C  
HETATM   16  O   UNL     2      -9.723   8.295  70.524  1.00  0.00    -0.169 OA 
HETATM   17  H   UNL     2      -9.250   9.094  70.723  1.00  0.00     0.000 HD 
HETATM   18  O   UNL     2      -8.795   6.472  73.370  1.00  0.00    -0.124 OA 
HETATM   19  O   UNL     2      -8.691   8.611  73.359  1.00  0.00    -0.333 OA 
ENDBRANCH  11  14
ENDBRANCH   8  11
ENDBRANCH   2   8
TORSDOF 3
ENDMDL
MODEL      335
REMARK 921   NORMALIZED FREE ENERGY PREDICTED BY IDOCK:   -2.15 KCAL/MOL
REMARK 922        TOTAL FREE ENERGY PREDICTED BY IDOCK:   -3.00 KCAL/MOL
REMARK 923 INTER-LIGAND FREE ENERGY PREDICTED BY IDOCK:   -2.99 KCAL/MOL
REMARK 924 INTRA-LIGAND FREE ENERGY PREDICTED BY IDOCK:   -0.01 KCAL/MOL
REMARK 927      BINDING AFFINITY PREDICTED BY RF-SCORE:    0.00 PKD
ROOT
HETATM    1 CA   UNL     1     -12.518   7.901  73.540  1.00  0.00    -0.578 Ca 
HETATM    2  C   UNL     2     -10.480   7.134  70.044  1.00  0.00    -0.221 C  
HETATM    3  H   UNL     2     -10.979   5.635  68.832  1.00  0.00     0.000 HD 
HETATM    4  C   UNL     2     -11.238   8.203  70.841  1.00  0.00    -0.266 C  
HETATM    5  O   UNL     2     -11.448   6.298  69.325  1.00  0.00    -0.411 OA 
HETATM    6  O   UNL     2     -10.776   9.358  70.914  1.00  0.00    -0.270 OA 
HETATM    7  O   UNL     2     -12.291   7.814  71.477  1.00  0.00    -0.302 OA 
ENDROOT
BRANCH   2   8
HETATM    8  C   UNL     2      -9.678   6.167  70.928  1.00  0.00    -0.177 C  
HETATM    9  H   UNL     2      -9.883   4.287  71.442  1.00  0.00     0.000 HD 
HETATM   10  O   UNL     2     -10.379   4.885  70.895  1.00  0.00    -0.217 OA 
BRANCH   8  11
HETATM   11  C   UNL     2      -8.189   5.850  70.595  1.00  0.00    -0.120 C  
HETATM   12  H   UNL     2      -7.160   4.217  70.338  1.00  0.00     0.000 HD 
HETATM   13  O   UNL     2      -8.067   4.410  70.542  1.00  0.00    -0.065 OA 
BRANCH  11  14
HETATM   14  C   UNL     2      -7.084   6.407  71.503  1.00  0.00    -0.078 C  
HETATM   15  C   UNL     2      -7.129   6.020  72.978  1.00  0.00    -0.084 C  
HETATM   16  O   UNL     2      -5.765   6.170  70.955  1.00  0.00    -0.020 OA 
HETATM   17  H   UNL     2      -5.081   6.515  71.518  1.00  0.00     0.000 HD 
HETATM   18  O   UNL     2      -8.055   5.308  73.465  1.00  0.00    -0.109 OA 
HETATM   19  O   UNL     2      -6.519   6.753  73.835  1.00  0.00    -0.067 OA 
ENDBRANCH  11  14
ENDBRANCH   8  11
ENDBRANCH   2   8
TORSDOF 3
ENDMDL
MODEL      336
REMARK 921   NORMALIZED FREE ENERGY PREDICTED BY IDOCK:   -2.13 KCAL/MOL
REMARK 922        TOTAL FREE ENERGY PREDICTED BY IDOCK:   -2.98 KCAL/MOL
REMARK 923 INTER-LIGAND FREE ENERGY PREDICTED BY IDOCK:   -2.45 KCAL/MOL
REMARK 924 INTRA-LIGAND FREE ENERGY PREDICTED BY IDOCK:   -0.52 KCAL/MOL
REMARK 927      BINDING AFFINITY PREDICTED BY RF-SCORE:    0.00 PKD
ROOT
HETATM    1 CA   UNL     1      -6.385   3.552  71.530  1.00  0.00    -0.012 Ca 
HETATM    2  C   UNL     2      -9.190   6.514  72.100  1.00  0.00    -0.139 C  
HETATM    3  H   UNL     2     -10.964   6.484  71.195  1.00  0.00     0.000 HD 
HETATM    4  C   UNL     2      -8.298   5.484  72.805  1.00  0.00    -0.113 C  
HETATM    5  O   UNL     2     -10.411   5.847  71.632  1.00  0.00    -0.218 OA 
HETATM    6  O   UNL     2      -7.671   5.815  73.829  1.00  0.00    -0.096 OA 
HETATM    7  O   UNL     2      -8.177   4.335  72.233  1.00  0.00    -0.098 OA 
ENDROOT
BRANCH   2   8
HETATM    8  C   UNL     2      -8.547   7.123  70.844  1.00  0.00    -0.138 C  
HETATM    9  H   UNL     2      -8.346   6.538  68.985  1.00  0.00     0.000 HD 
HETATM   10  O   UNL     2      -8.744   6.161  69.761  1.00  0.00    -0.132 OA 
BRANCH   8  11
HETATM   11  C   UNL     2      -9.043   8.495  70.296  1.00  0.00    -0.154 C  
HETATM   12  H   UNL     2     -10.002  10.009  71.058  1.00  0.00     0.000 HD 
HETATM   13  O   UNL     2      -9.700   9.172  71.392  1.00  0.00    -0.295 OA 
BRANCH  11  14
HETATM   14  C   UNL     2      -9.969   8.521  69.072  1.00  0.00    -0.193 C  
HETATM   15  C   UNL     2      -9.309   8.575  67.697  1.00  0.00    -0.137 C  
HETATM   16  O   UNL     2     -10.957   7.466  69.120  1.00  0.00    -0.390 OA 
HETATM   17  H   UNL     2     -11.530   7.482  68.363  1.00  0.00     0.000 HD 
HETATM   18  O   UNL     2      -8.054   8.641  67.548  1.00  0.00    -0.105 OA 
HETATM   19  O   UNL     2      -9.984   9.009  66.696  1.00  0.00    -0.232 OA 
ENDBRANCH  11  14
ENDBRANCH   8  11
ENDBRANCH   2   8
TORSDOF 3
ENDMDL
MODEL      337
REMARK 921   NORMALIZED FREE ENERGY PREDICTED BY IDOCK:   -2.13 KCAL/MOL
REMARK 922        TOTAL FREE ENERGY PREDICTED BY IDOCK:   -2.97 KCAL/MOL
REMARK 923 INTER-LIGAND FREE ENERGY PREDICTED BY IDOCK:   -2.56 KCAL/MOL
REMARK 924 INTRA-LIGAND FREE ENERGY PREDICTED BY IDOCK:   -0.41 KCAL/MOL
REMARK 927      BINDING AFFINITY PREDICTED BY RF-SCORE:    0.00 PKD
ROOT
HETATM    1 CA   UNL     1      -6.848   6.347  67.913  1.00  0.00    -0.051 Ca 
HETATM    2  C   UNL     2      -8.684   9.810  69.177  1.00  0.00    -0.155 C  
HETATM    3  H   UNL     2      -8.968  10.218  71.105  1.00  0.00     0.000 HD 
HETATM    4  C   UNL     2      -7.539   9.240  68.331  1.00  0.00    -0.086 C  
HETATM    5  O   UNL     2      -8.259   9.865  70.581  1.00  0.00    -0.210 OA 
HETATM    6  O   UNL     2      -7.316   9.713  67.200  1.00  0.00    -0.087 OA 
HETATM    7  O   UNL     2      -6.916   8.219  68.814  1.00  0.00    -0.064 OA 
ENDROOT
BRANCH   2   8
HETATM    8  C   UNL     2      -9.949   8.938  69.164  1.00  0.00    -0.190 C  
HETATM    9  H   UNL     2     -11.771   9.174  68.483  1.00  0.00     0.000 HD 
HETATM   10  O   UNL     2     -10.989   9.714  68.492  1.00  0.00    -0.193 OA 
BRANCH   8  11
HETATM   11  C   UNL     2      -9.933   7.545  68.466  1.00  0.00    -0.168 C  
HETATM   12  H   UNL     2     -10.659   6.838  66.803  1.00  0.00     0.000 HD 
HETATM   13  O   UNL     2     -10.669   7.687  67.229  1.00  0.00    -0.306 OA 
BRANCH  11  14
HETATM   14  C   UNL     2     -10.471   6.322  69.223  1.00  0.00    -0.244 C  
HETATM   15  C   UNL     2      -9.445   5.359  69.814  1.00  0.00    -0.151 C  
HETATM   16  O   UNL     2     -11.453   6.693  70.219  1.00  0.00    -0.343 OA 
HETATM   17  H   UNL     2     -11.785   5.936  70.687  1.00  0.00     0.000 HD 
HETATM   18  O   UNL     2      -8.199   5.517  69.662  1.00  0.00    -0.098 OA 
HETATM   19  O   UNL     2      -9.798   4.155  70.077  1.00  0.00    -0.217 OA 
ENDBRANCH  11  14
ENDBRANCH   8  11
ENDBRANCH   2   8
TORSDOF 3
ENDMDL
MODEL      338
REMARK 921   NORMALIZED FREE ENERGY PREDICTED BY IDOCK:   -2.12 KCAL/MOL
REMARK 922        TOTAL FREE ENERGY PREDICTED BY IDOCK:   -2.97 KCAL/MOL
REMARK 923 INTER-LIGAND FREE ENERGY PREDICTED BY IDOCK:   -2.54 KCAL/MOL
REMARK 924 INTRA-LIGAND FREE ENERGY PREDICTED BY IDOCK:   -0.43 KCAL/MOL
REMARK 927      BINDING AFFINITY PREDICTED BY RF-SCORE:    0.00 PKD
ROOT
HETATM    1 CA   UNL     1      -6.211   4.122  67.211  1.00  0.00    -0.026 Ca 
HETATM    2  C   UNL     2     -10.112   5.420  67.458  1.00  0.00    -0.180 C  
HETATM    3  H   UNL     2     -10.611   7.334  67.228  1.00  0.00     0.000 HD 
HETATM    4  C   UNL     2      -9.163   4.438  66.759  1.00  0.00    -0.139 C  
HETATM    5  O   UNL     2     -10.023   6.726  66.795  1.00  0.00    -0.178 OA 
HETATM    6  O   UNL     2      -9.516   3.255  66.592  1.00  0.00    -0.173 OA 
HETATM    7  O   UNL     2      -7.991   4.884  66.456  1.00  0.00    -0.105 OA 
ENDROOT
BRANCH   2   8
HETATM    8  C   UNL     2      -9.749   5.680  68.929  1.00  0.00    -0.138 C  
HETATM    9  H   UNL     2      -9.073   7.227  69.921  1.00  0.00     0.000 HD 
HETATM   10  O   UNL     2      -9.297   7.067  69.012  1.00  0.00    -0.138 OA 
BRANCH   8  11
HETATM   11  C   UNL     2     -10.825   5.510  70.044  1.00  0.00    -0.231 C  
HETATM   12  H   UNL     2     -12.556   6.322  70.411  1.00  0.00     0.000 HD 
HETATM   13  O   UNL     2     -11.900   6.426  69.732  1.00  0.00    -0.357 OA 
BRANCH  11  14
HETATM   14  C   UNL     2     -10.418   5.705  71.511  1.00  0.00    -0.239 C  
HETATM   15  C   UNL     2      -9.966   4.469  72.282  1.00  0.00    -0.179 C  
HETATM   16  O   UNL     2      -9.462   6.780  71.668  1.00  0.00    -0.156 OA 
HETATM   17  H   UNL     2      -9.211   6.901  72.576  1.00  0.00     0.000 HD 
HETATM   18  O   UNL     2      -9.960   3.313  71.768  1.00  0.00    -0.170 OA 
HETATM   19  O   UNL     2     -10.017   4.478  73.564  1.00  0.00    -0.136 OA 
ENDBRANCH  11  14
ENDBRANCH   8  11
ENDBRANCH   2   8
TORSDOF 3
ENDMDL
MODEL      339
REMARK 921   NORMALIZED FREE ENERGY PREDICTED BY IDOCK:   -2.09 KCAL/MOL
REMARK 922        TOTAL FREE ENERGY PREDICTED BY IDOCK:   -2.94 KCAL/MOL
REMARK 923 INTER-LIGAND FREE ENERGY PREDICTED BY IDOCK:   -2.72 KCAL/MOL
REMARK 924 INTRA-LIGAND FREE ENERGY PREDICTED BY IDOCK:   -0.21 KCAL/MOL
REMARK 927      BINDING AFFINITY PREDICTED BY RF-SCORE:    0.00 PKD
ROOT
HETATM    1 CA   UNL     1      -9.193   6.286  73.580  1.00  0.00    -0.129 Ca 
HETATM    2  C   UNL     2     -11.121   6.745  69.969  1.00  0.00    -0.315 C  
HETATM    3  H   UNL     2     -10.290   6.196  68.245  1.00  0.00     0.000 HD 
HETATM    4  C   UNL     2     -11.229   6.146  71.378  1.00  0.00    -0.287 C  
HETATM    5  O   UNL     2     -10.357   5.825  69.117  1.00  0.00    -0.199 OA 
HETATM    6  O   UNL     2     -12.293   6.266  72.016  1.00  0.00    -0.328 OA 
HETATM    7  O   UNL     2     -10.159   5.617  71.866  1.00  0.00    -0.179 OA 
ENDROOT
BRANCH   2   8
HETATM    8  C   UNL     2     -10.355   8.076  69.928  1.00  0.00    -0.221 C  
HETATM    9  H   UNL     2     -10.778   9.918  70.446  1.00  0.00     0.000 HD 
HETATM   10  O   UNL     2     -11.252   9.095  70.472  1.00  0.00    -0.252 OA 
BRANCH   8  11
HETATM   11  C   UNL     2      -9.010   8.232  70.699  1.00  0.00    -0.151 C  
HETATM   12  H   UNL     2      -8.524   8.713  72.522  1.00  0.00     0.000 HD 
HETATM   13  O   UNL     2      -9.344   8.619  72.052  1.00  0.00    -0.257 OA 
BRANCH  11  14
HETATM   14  C   UNL     2      -7.944   9.195  70.157  1.00  0.00    -0.121 C  
HETATM   15  C   UNL     2      -6.796   8.589  69.356  1.00  0.00    -0.046 C  
HETATM   16  O   UNL     2      -8.535  10.305  69.440  1.00  0.00    -0.156 OA 
HETATM   17  H   UNL     2      -7.875  10.901  69.105  1.00  0.00     0.000 HD 
HETATM   18  O   UNL     2      -6.681   7.343  69.170  1.00  0.00    -0.049 OA 
HETATM   19  O   UNL     2      -5.699   9.245  69.242  1.00  0.00    -0.035 OA 
ENDBRANCH  11  14
ENDBRANCH   8  11
ENDBRANCH   2   8
TORSDOF 3
ENDMDL
MODEL      340
REMARK 921   NORMALIZED FREE ENERGY PREDICTED BY IDOCK:   -2.07 KCAL/MOL
REMARK 922        TOTAL FREE ENERGY PREDICTED BY IDOCK:   -2.91 KCAL/MOL
REMARK 923 INTER-LIGAND FREE ENERGY PREDICTED BY IDOCK:   -3.64 KCAL/MOL
REMARK 924 INTRA-LIGAND FREE ENERGY PREDICTED BY IDOCK:    0.73 KCAL/MOL
REMARK 927      BINDING AFFINITY PREDICTED BY RF-SCORE:    0.00 PKD
ROOT
HETATM    1 CA   UNL     1      -8.430  14.445  68.337  1.00  0.00    -0.123 Ca 
HETATM    2  C   UNL     2     -10.463  12.831  65.140  1.00  0.00    -0.300 C  
HETATM    3  H   UNL     2     -10.128  13.413  63.266  1.00  0.00     0.000 HD 
HETATM    4  C   UNL     2      -9.595  12.506  66.363  1.00  0.00    -0.247 C  
HETATM    5  O   UNL     2      -9.591  13.212  64.023  1.00  0.00     0.090 OA 
HETATM    6  O   UNL     2      -9.910  11.557  67.105  1.00  0.00    -0.189 OA 
HETATM    7  O   UNL     2      -8.616  13.310  66.607  1.00  0.00    -0.088 OA 
ENDROOT
BRANCH   2   8
HETATM    8  C   UNL     2     -11.402  14.028  65.357  1.00  0.00    -0.315 C  
HETATM    9  H   UNL     2     -13.339  14.291  65.235  1.00  0.00     0.000 HD 
HETATM   10  O   UNL     2     -12.759  13.551  65.101  1.00  0.00    -0.611 OA 
BRANCH   8  11
HETATM   11  C   UNL     2     -11.452  14.746  66.739  1.00  0.00    -0.338 C  
HETATM   12  H   UNL     2     -10.263  15.952  67.700  1.00  0.00     0.000 HD 
HETATM   13  O   UNL     2     -10.232  15.514  66.858  1.00  0.00    -0.267 OA 
BRANCH  11  14
HETATM   14  C   UNL     2     -11.634  13.907  68.012  1.00  0.00    -0.333 C  
HETATM   15  C   UNL     2     -12.062  14.642  69.279  1.00  0.00    -0.272 C  
HETATM   16  O   UNL     2     -12.480  12.755  67.782  1.00  0.00    -0.078 OA 
HETATM   17  H   UNL     2     -12.592  12.236  68.570  1.00  0.00     0.000 HD 
HETATM   18  O   UNL     2     -12.223  15.897  69.314  1.00  0.00    -0.273 OA 
HETATM   19  O   UNL     2     -11.832  14.105  70.420  1.00  0.00    -0.297 OA 
ENDBRANCH  11  14
ENDBRANCH   8  11
ENDBRANCH   2   8
TORSDOF 3
ENDMDL
MODEL      341
REMARK 921   NORMALIZED FREE ENERGY PREDICTED BY IDOCK:   -2.03 KCAL/MOL
REMARK 922        TOTAL FREE ENERGY PREDICTED BY IDOCK:   -2.86 KCAL/MOL
REMARK 923 INTER-LIGAND FREE ENERGY PREDICTED BY IDOCK:   -2.44 KCAL/MOL
REMARK 924 INTRA-LIGAND FREE ENERGY PREDICTED BY IDOCK:   -0.42 KCAL/MOL
REMARK 927      BINDING AFFINITY PREDICTED BY RF-SCORE:    0.00 PKD
ROOT
HETATM    1 CA   UNL     1      -6.084   2.281  66.870  1.00  0.00    -0.018 Ca 
HETATM    2  C   UNL     2      -9.352   4.663  66.092  1.00  0.00    -0.153 C  
HETATM    3  H   UNL     2      -9.169   6.549  65.479  1.00  0.00     0.000 HD 
HETATM    4  C   UNL     2      -8.671   3.329  65.763  1.00  0.00    -0.125 C  
HETATM    5  O   UNL     2      -8.747   5.722  65.275  1.00  0.00    -0.151 OA 
HETATM    6  O   UNL     2      -9.353   2.289  65.702  1.00  0.00    -0.085 OA 
HETATM    7  O   UNL     2      -7.386   3.347  65.651  1.00  0.00    -0.072 OA 
ENDROOT
BRANCH   2   8
HETATM    8  C   UNL     2      -9.158   5.106  67.550  1.00  0.00    -0.114 C  
HETATM    9  H   UNL     2      -7.938   6.343  68.457  1.00  0.00     0.000 HD 
HETATM   10  O   UNL     2      -8.058   6.069  67.555  1.00  0.00    -0.102 OA 
BRANCH   8  11
HETATM   11  C   UNL     2     -10.327   5.785  68.326  1.00  0.00    -0.212 C  
HETATM   12  H   UNL     2     -11.808   6.946  67.829  1.00  0.00     0.000 HD 
HETATM   13  O   UNL     2     -11.095   6.533  67.356  1.00  0.00    -0.357 OA 
BRANCH  11  14
HETATM   14  C   UNL     2     -10.004   6.700  69.515  1.00  0.00    -0.163 C  
HETATM   15  C   UNL     2     -11.106   6.923  70.546  1.00  0.00    -0.288 C  
HETATM   16  O   UNL     2      -8.767   6.324  70.166  1.00  0.00    -0.135 OA 
HETATM   17  H   UNL     2      -8.568   6.891  70.902  1.00  0.00     0.000 HD 
HETATM   18  O   UNL     2     -12.261   6.420  70.424  1.00  0.00    -0.224 OA 
HETATM   19  O   UNL     2     -11.057   7.959  71.300  1.00  0.00    -0.243 OA 
ENDBRANCH  11  14
ENDBRANCH   8  11
ENDBRANCH   2   8
TORSDOF 3
ENDMDL
MODEL      342
REMARK 921   NORMALIZED FREE ENERGY PREDICTED BY IDOCK:   -2.03 KCAL/MOL
REMARK 922        TOTAL FREE ENERGY PREDICTED BY IDOCK:   -2.86 KCAL/MOL
REMARK 923 INTER-LIGAND FREE ENERGY PREDICTED BY IDOCK:   -2.63 KCAL/MOL
REMARK 924 INTRA-LIGAND FREE ENERGY PREDICTED BY IDOCK:   -0.22 KCAL/MOL
REMARK 927      BINDING AFFINITY PREDICTED BY RF-SCORE:    0.00 PKD
ROOT
HETATM    1 CA   UNL     1      -6.937  11.597  65.641  1.00  0.00    -0.347 Ca 
HETATM    2  C   UNL     2      -9.873   8.810  66.402  1.00  0.00    -0.282 C  
HETATM    3  H   UNL     2     -11.033   8.905  68.017  1.00  0.00     0.000 HD 
HETATM    4  C   UNL     2      -9.338   9.813  65.372  1.00  0.00    -0.252 C  
HETATM    5  O   UNL     2     -10.702   9.525  67.379  1.00  0.00    -0.279 OA 
HETATM    6  O   UNL     2      -9.268   9.483  64.172  1.00  0.00    -0.226 OA 
HETATM    7  O   UNL     2      -8.898  10.935  65.831  1.00  0.00    -0.177 OA 
ENDROOT
BRANCH   2   8
HETATM    8  C   UNL     2      -8.768   8.126  67.222  1.00  0.00    -0.124 C  
HETATM    9  H   UNL     2      -7.612   6.570  66.937  1.00  0.00     0.000 HD 
HETATM   10  O   UNL     2      -8.295   6.992  66.430  1.00  0.00    -0.114 OA 
BRANCH   8  11
HETATM   11  C   UNL     2      -7.493   8.921  67.636  1.00  0.00    -0.092 C  
HETATM   12  H   UNL     2      -5.689   9.088  66.921  1.00  0.00     0.000 HD 
HETATM   13  O   UNL     2      -6.466   8.603  66.668  1.00  0.00    -0.058 OA 
BRANCH  11  14
HETATM   14  C   UNL     2      -6.918   8.732  69.047  1.00  0.00    -0.064 C  
HETATM   15  C   UNL     2      -7.580   9.508  70.182  1.00  0.00    -0.142 C  
HETATM   16  O   UNL     2      -6.791   7.333  69.394  1.00  0.00    -0.047 OA 
HETATM   17  H   UNL     2      -6.436   7.216  70.268  1.00  0.00     0.000 HD 
HETATM   18  O   UNL     2      -8.536  10.315  69.986  1.00  0.00    -0.101 OA 
HETATM   19  O   UNL     2      -6.921   9.721  71.261  1.00  0.00    -0.330 OA 
ENDBRANCH  11  14
ENDBRANCH   8  11
ENDBRANCH   2   8
TORSDOF 3
ENDMDL
MODEL      343
REMARK 921   NORMALIZED FREE ENERGY PREDICTED BY IDOCK:   -2.01 KCAL/MOL
REMARK 922        TOTAL FREE ENERGY PREDICTED BY IDOCK:   -2.83 KCAL/MOL
REMARK 923 INTER-LIGAND FREE ENERGY PREDICTED BY IDOCK:   -2.20 KCAL/MOL
REMARK 924 INTRA-LIGAND FREE ENERGY PREDICTED BY IDOCK:   -0.63 KCAL/MOL
REMARK 927      BINDING AFFINITY PREDICTED BY RF-SCORE:    0.00 PKD
ROOT
HETATM    1 CA   UNL     1     -10.949   6.007  69.779  1.00  0.00    -0.197 Ca 
HETATM    2  C   UNL     2      -8.966   6.535  66.209  1.00  0.00    -0.156 C  
HETATM    3  H   UNL     2      -8.270   5.003  65.144  1.00  0.00     0.000 HD 
HETATM    4  C   UNL     2     -10.255   6.843  66.980  1.00  0.00    -0.248 C  
HETATM    5  O   UNL     2      -9.069   5.194  65.622  1.00  0.00    -0.154 OA 
HETATM    6  O   UNL     2     -10.737   7.991  66.938  1.00  0.00    -0.322 OA 
HETATM    7  O   UNL     2     -10.730   5.896  67.716  1.00  0.00    -0.255 OA 
ENDROOT
BRANCH   2   8
HETATM    8  C   UNL     2      -7.714   6.500  67.099  1.00  0.00    -0.100 C  
HETATM    9  H   UNL     2      -5.800   6.780  66.786  1.00  0.00     0.000 HD 
HETATM   10  O   UNL     2      -6.574   6.801  66.236  1.00  0.00    -0.045 OA 
BRANCH   8  11
HETATM   11  C   UNL     2      -7.593   7.460  68.321  1.00  0.00    -0.114 C  
HETATM   12  H   UNL     2      -6.414   8.936  68.792  1.00  0.00     0.000 HD 
HETATM   13  O   UNL     2      -6.487   8.350  68.047  1.00  0.00    -0.055 OA 
BRANCH  11  14
HETATM   14  C   UNL     2      -7.414   6.865  69.725  1.00  0.00    -0.095 C  
HETATM   15  C   UNL     2      -8.474   7.205  70.769  1.00  0.00    -0.133 C  
HETATM   16  O   UNL     2      -7.183   5.437  69.681  1.00  0.00    -0.061 OA 
HETATM   17  H   UNL     2      -7.072   5.070  70.550  1.00  0.00     0.000 HD 
HETATM   18  O   UNL     2      -9.445   7.978  70.524  1.00  0.00    -0.164 OA 
HETATM   19  O   UNL     2      -8.181   7.100  72.013  1.00  0.00    -0.100 OA 
ENDBRANCH  11  14
ENDBRANCH   8  11
ENDBRANCH   2   8
TORSDOF 3
ENDMDL
MODEL      344
REMARK 921   NORMALIZED FREE ENERGY PREDICTED BY IDOCK:   -2.00 KCAL/MOL
REMARK 922        TOTAL FREE ENERGY PREDICTED BY IDOCK:   -2.83 KCAL/MOL
REMARK 923 INTER-LIGAND FREE ENERGY PREDICTED BY IDOCK:   -2.87 KCAL/MOL
REMARK 924 INTRA-LIGAND FREE ENERGY PREDICTED BY IDOCK:    0.05 KCAL/MOL
REMARK 927      BINDING AFFINITY PREDICTED BY RF-SCORE:    0.00 PKD
ROOT
HETATM    1 CA   UNL     1     -11.829   5.819  65.706  1.00  0.00    -0.654 Ca 
HETATM    2  C   UNL     2      -9.151   6.605  68.734  1.00  0.00    -0.131 C  
HETATM    3  H   UNL     2      -7.629   7.868  68.504  1.00  0.00     0.000 HD 
HETATM    4  C   UNL     2     -10.636   6.590  68.351  1.00  0.00    -0.246 C  
HETATM    5  O   UNL     2      -8.549   7.859  68.267  1.00  0.00    -0.124 OA 
HETATM    6  O   UNL     2     -11.471   6.119  69.146  1.00  0.00    -0.379 OA 
HETATM    7  O   UNL     2     -10.932   6.997  67.163  1.00  0.00    -0.357 OA 
ENDROOT
BRANCH   2   8
HETATM    8  C   UNL     2      -8.337   5.485  68.068  1.00  0.00    -0.099 C  
HETATM    9  H   UNL     2      -7.048   4.157  68.713  1.00  0.00     0.000 HD 
HETATM   10  O   UNL     2      -7.551   4.850  69.125  1.00  0.00    -0.063 OA 
BRANCH   8  11
HETATM   11  C   UNL     2      -9.062   4.327  67.318  1.00  0.00    -0.137 C  
HETATM   12  H   UNL     2      -9.351   2.435  67.672  1.00  0.00     0.000 HD 
HETATM   13  O   UNL     2      -8.909   3.140  68.129  1.00  0.00    -0.098 OA 
BRANCH  11  14
HETATM   14  C   UNL     2      -8.651   3.998  65.876  1.00  0.00    -0.110 C  
HETATM   15  C   UNL     2      -8.400   5.172  64.934  1.00  0.00    -0.145 C  
HETATM   16  O   UNL     2      -7.547   3.064  65.830  1.00  0.00    -0.072 OA 
HETATM   17  H   UNL     2      -7.293   2.860  64.937  1.00  0.00     0.000 HD 
HETATM   18  O   UNL     2      -8.561   6.375  65.291  1.00  0.00    -0.131 OA 
HETATM   19  O   UNL     2      -8.468   4.982  63.667  1.00  0.00    -0.128 OA 
ENDBRANCH  11  14
ENDBRANCH   8  11
ENDBRANCH   2   8
TORSDOF 3
ENDMDL
MODEL      345
REMARK 921   NORMALIZED FREE ENERGY PREDICTED BY IDOCK:   -1.99 KCAL/MOL
REMARK 922        TOTAL FREE ENERGY PREDICTED BY IDOCK:   -2.81 KCAL/MOL
REMARK 923 INTER-LIGAND FREE ENERGY PREDICTED BY IDOCK:   -2.48 KCAL/MOL
REMARK 924 INTRA-LIGAND FREE ENERGY PREDICTED BY IDOCK:   -0.34 KCAL/MOL
REMARK 927      BINDING AFFINITY PREDICTED BY RF-SCORE:    0.00 PKD
ROOT
HETATM    1 CA   UNL     1     -10.105   8.794  65.208  1.00  0.00    -0.431 Ca 
HETATM    2  C   UNL     2      -8.028   6.361  67.801  1.00  0.00    -0.114 C  
HETATM    3  H   UNL     2      -8.945   5.211  69.143  1.00  0.00     0.000 HD 
HETATM    4  C   UNL     2      -8.246   6.718  66.325  1.00  0.00    -0.120 C  
HETATM    5  O   UNL     2      -9.080   5.432  68.229  1.00  0.00    -0.108 OA 
HETATM    6  O   UNL     2      -7.263   6.832  65.569  1.00  0.00    -0.072 OA 
HETATM    7  O   UNL     2      -9.459   6.970  65.965  1.00  0.00    -0.062 OA 
ENDROOT
BRANCH   2   8
HETATM    8  C   UNL     2      -8.135   7.568  68.745  1.00  0.00    -0.128 C  
HETATM    9  H   UNL     2      -7.356   9.366  68.766  1.00  0.00     0.000 HD 
HETATM   10  O   UNL     2      -7.290   8.620  68.183  1.00  0.00    -0.088 OA 
BRANCH   8  11
HETATM   11  C   UNL     2      -9.519   8.230  69.018  1.00  0.00    -0.155 C  
HETATM   12  H   UNL     2     -10.224  10.040  68.876  1.00  0.00     0.000 HD 
HETATM   13  O   UNL     2      -9.380   9.636  68.710  1.00  0.00    -0.143 OA 
BRANCH  11  14
HETATM   14  C   UNL     2     -10.156   8.088  70.407  1.00  0.00    -0.194 C  
HETATM   15  C   UNL     2     -11.402   7.214  70.520  1.00  0.00    -0.297 C  
HETATM   16  O   UNL     2      -9.183   7.718  71.411  1.00  0.00    -0.132 OA 
HETATM   17  H   UNL     2      -9.577   7.630  72.272  1.00  0.00     0.000 HD 
HETATM   18  O   UNL     2     -11.933   6.656  69.516  1.00  0.00    -0.128 OA 
HETATM   19  O   UNL     2     -12.196   7.383  71.513  1.00  0.00    -0.305 OA 
ENDBRANCH  11  14
ENDBRANCH   8  11
ENDBRANCH   2   8
TORSDOF 3
ENDMDL
MODEL      346
REMARK 921   NORMALIZED FREE ENERGY PREDICTED BY IDOCK:   -1.98 KCAL/MOL
REMARK 922        TOTAL FREE ENERGY PREDICTED BY IDOCK:   -2.80 KCAL/MOL
REMARK 923 INTER-LIGAND FREE ENERGY PREDICTED BY IDOCK:   -2.52 KCAL/MOL
REMARK 924 INTRA-LIGAND FREE ENERGY PREDICTED BY IDOCK:   -0.27 KCAL/MOL
REMARK 927      BINDING AFFINITY PREDICTED BY RF-SCORE:    0.00 PKD
ROOT
HETATM    1 CA   UNL     1      -6.937  11.597  65.641  1.00  0.00    -0.347 Ca 
HETATM    2  C   UNL     2      -9.873   8.810  66.402  1.00  0.00    -0.282 C  
HETATM    3  H   UNL     2     -11.033   8.905  68.017  1.00  0.00     0.000 HD 
HETATM    4  C   UNL     2      -9.338   9.813  65.372  1.00  0.00    -0.252 C  
HETATM    5  O   UNL     2     -10.702   9.525  67.379  1.00  0.00    -0.279 OA 
HETATM    6  O   UNL     2      -9.268   9.483  64.172  1.00  0.00    -0.226 OA 
HETATM    7  O   UNL     2      -8.898  10.935  65.831  1.00  0.00    -0.177 OA 
ENDROOT
BRANCH   2   8
HETATM    8  C   UNL     2      -8.768   8.126  67.222  1.00  0.00    -0.124 C  
HETATM    9  H   UNL     2      -7.674   8.656  68.759  1.00  0.00     0.000 HD 
HETATM   10  O   UNL     2      -8.357   9.079  68.252  1.00  0.00    -0.119 OA 
BRANCH   8  11
HETATM   11  C   UNL     2      -9.056   6.788  67.965  1.00  0.00    -0.119 C  
HETATM   12  H   UNL     2      -9.537   6.311  69.791  1.00  0.00     0.000 HD 
HETATM   13  O   UNL     2      -9.360   7.127  69.338  1.00  0.00    -0.148 OA 
BRANCH  11  14
HETATM   14  C   UNL     2      -7.994   5.680  67.952  1.00  0.00    -0.097 C  
HETATM   15  C   UNL     2      -7.922   4.794  66.712  1.00  0.00    -0.103 C  
HETATM   16  O   UNL     2      -6.682   6.187  68.292  1.00  0.00    -0.062 OA 
HETATM   17  H   UNL     2      -6.024   5.502  68.284  1.00  0.00     0.000 HD 
HETATM   18  O   UNL     2      -8.723   4.919  65.741  1.00  0.00    -0.123 OA 
HETATM   19  O   UNL     2      -7.374   3.638  66.801  1.00  0.00    -0.066 OA 
ENDBRANCH  11  14
ENDBRANCH   8  11
ENDBRANCH   2   8
TORSDOF 3
ENDMDL
MODEL      347
REMARK 921   NORMALIZED FREE ENERGY PREDICTED BY IDOCK:   -1.98 KCAL/MOL
REMARK 922        TOTAL FREE ENERGY PREDICTED BY IDOCK:   -2.80 KCAL/MOL
REMARK 923 INTER-LIGAND FREE ENERGY PREDICTED BY IDOCK:   -2.58 KCAL/MOL
REMARK 924 INTRA-LIGAND FREE ENERGY PREDICTED BY IDOCK:   -0.22 KCAL/MOL
REMARK 927      BINDING AFFINITY PREDICTED BY RF-SCORE:    0.00 PKD
ROOT
HETATM    1 CA   UNL     1      -8.233   9.746  67.754  1.00  0.00    -0.104 Ca 
HETATM    2  C   UNL     2      -9.296   8.415  71.504  1.00  0.00    -0.200 C  
HETATM    3  H   UNL     2      -8.008   8.376  73.021  1.00  0.00     0.000 HD 
HETATM    4  C   UNL     2      -9.645   9.401  70.382  1.00  0.00    -0.266 C  
HETATM    5  O   UNL     2      -8.224   8.987  72.327  1.00  0.00    -0.354 OA 
HETATM    6  O   UNL     2     -10.835   9.554  70.045  1.00  0.00    -0.227 OA 
HETATM    7  O   UNL     2      -8.654   9.964  69.777  1.00  0.00    -0.183 OA 
ENDROOT
BRANCH   2   8
HETATM    8  C   UNL     2      -8.751   7.073  70.992  1.00  0.00    -0.139 C  
HETATM    9  H   UNL     2      -7.003   6.455  70.360  1.00  0.00     0.000 HD 
HETATM   10  O   UNL     2      -7.339   7.284  70.677  1.00  0.00    -0.069 OA 
BRANCH   8  11
HETATM   11  C   UNL     2      -8.804   5.807  71.899  1.00  0.00    -0.139 C  
HETATM   12  H   UNL     2      -7.475   4.742  72.843  1.00  0.00     0.000 HD 
HETATM   13  O   UNL     2      -7.443   5.514  72.290  1.00  0.00    -0.092 OA 
BRANCH  11  14
HETATM   14  C   UNL     2      -9.451   4.524  71.357  1.00  0.00    -0.156 C  
HETATM   15  C   UNL     2     -10.209   3.650  72.351  1.00  0.00    -0.145 C  
HETATM   16  O   UNL     2     -10.260   4.782  70.186  1.00  0.00    -0.249 OA 
HETATM   17  H   UNL     2     -10.660   3.988  69.850  1.00  0.00     0.000 HD 
HETATM   18  O   UNL     2     -10.278   3.926  73.584  1.00  0.00    -0.129 OA 
HETATM   19  O   UNL     2     -10.401   2.412  72.074  1.00  0.00    -0.130 OA 
ENDBRANCH  11  14
ENDBRANCH   8  11
ENDBRANCH   2   8
TORSDOF 3
ENDMDL
MODEL      348
REMARK 921   NORMALIZED FREE ENERGY PREDICTED BY IDOCK:   -1.95 KCAL/MOL
REMARK 922        TOTAL FREE ENERGY PREDICTED BY IDOCK:   -2.76 KCAL/MOL
REMARK 923 INTER-LIGAND FREE ENERGY PREDICTED BY IDOCK:   -3.08 KCAL/MOL
REMARK 924 INTRA-LIGAND FREE ENERGY PREDICTED BY IDOCK:    0.32 KCAL/MOL
REMARK 927      BINDING AFFINITY PREDICTED BY RF-SCORE:    0.00 PKD
ROOT
HETATM    1 CA   UNL     1      -9.528   6.530  64.888  1.00  0.00    -0.363 Ca 
HETATM    2  C   UNL     2      -9.591   9.138  68.075  1.00  0.00    -0.147 C  
HETATM    3  H   UNL     2      -8.150   9.171  69.449  1.00  0.00     0.000 HD 
HETATM    4  C   UNL     2      -9.651   9.031  66.545  1.00  0.00    -0.223 C  
HETATM    5  O   UNL     2      -8.188   9.104  68.502  1.00  0.00    -0.112 OA 
HETATM    6  O   UNL     2     -10.486   9.706  65.914  1.00  0.00    -0.138 OA 
HETATM    7  O   UNL     2      -8.873   8.162  65.996  1.00  0.00    -0.157 OA 
ENDROOT
BRANCH   2   8
HETATM    8  C   UNL     2     -10.270   7.965  68.797  1.00  0.00    -0.205 C  
HETATM    9  H   UNL     2     -10.933   6.209  68.237  1.00  0.00     0.000 HD 
HETATM   10  O   UNL     2     -10.514   6.934  67.790  1.00  0.00    -0.184 OA 
BRANCH   8  11
HETATM   11  C   UNL     2      -9.549   7.249  69.979  1.00  0.00    -0.167 C  
HETATM   12  H   UNL     2      -9.198   5.391  70.446  1.00  0.00     0.000 HD 
HETATM   13  O   UNL     2      -9.638   5.828  69.726  1.00  0.00    -0.149 OA 
BRANCH  11  14
HETATM   14  C   UNL     2     -10.013   7.525  71.416  1.00  0.00    -0.185 C  
HETATM   15  C   UNL     2     -11.499   7.354  71.716  1.00  0.00    -0.265 C  
HETATM   16  O   UNL     2      -9.213   6.811  72.388  1.00  0.00    -0.136 OA 
HETATM   17  H   UNL     2      -9.500   6.982  73.277  1.00  0.00     0.000 HD 
HETATM   18  O   UNL     2     -12.341   7.042  70.825  1.00  0.00    -0.352 OA 
HETATM   19  O   UNL     2     -12.003   7.948  72.735  1.00  0.00    -0.301 OA 
ENDBRANCH  11  14
ENDBRANCH   8  11
ENDBRANCH   2   8
TORSDOF 3
ENDMDL
MODEL      349
REMARK 921   NORMALIZED FREE ENERGY PREDICTED BY IDOCK:   -1.94 KCAL/MOL
REMARK 922        TOTAL FREE ENERGY PREDICTED BY IDOCK:   -2.75 KCAL/MOL
REMARK 923 INTER-LIGAND FREE ENERGY PREDICTED BY IDOCK:   -2.92 KCAL/MOL
REMARK 924 INTRA-LIGAND FREE ENERGY PREDICTED BY IDOCK:    0.17 KCAL/MOL
REMARK 927      BINDING AFFINITY PREDICTED BY RF-SCORE:    0.00 PKD
ROOT
HETATM    1 CA   UNL     1      -9.531   6.699  64.874  1.00  0.00    -0.361 Ca 
HETATM    2  C   UNL     2      -9.085  10.256  66.903  1.00  0.00    -0.143 C  
HETATM    3  H   UNL     2      -7.582  10.574  68.169  1.00  0.00     0.000 HD 
HETATM    4  C   UNL     2      -9.239   9.618  65.516  1.00  0.00    -0.234 C  
HETATM    5  O   UNL     2      -7.677  10.180  67.310  1.00  0.00    -0.095 OA 
HETATM    6  O   UNL     2     -10.012  10.133  64.686  1.00  0.00    -0.328 OA 
HETATM    7  O   UNL     2      -8.611   8.509  65.316  1.00  0.00    -0.171 OA 
ENDROOT
BRANCH   2   8
HETATM    8  C   UNL     2      -9.872   9.526  68.003  1.00  0.00    -0.155 C  
HETATM    9  H   UNL     2     -11.752   9.033  68.246  1.00  0.00     0.000 HD 
HETATM   10  O   UNL     2     -11.266   9.484  67.566  1.00  0.00    -0.061 OA 
BRANCH   8  11
HETATM   11  C   UNL     2      -9.500   8.064  68.394  1.00  0.00    -0.145 C  
HETATM   12  H   UNL     2     -10.509   6.421  68.668  1.00  0.00     0.000 HD 
HETATM   13  O   UNL     2     -10.735   7.312  68.430  1.00  0.00    -0.189 OA 
BRANCH  11  14
HETATM   14  C   UNL     2      -8.730   7.811  69.697  1.00  0.00    -0.135 C  
HETATM   15  C   UNL     2      -9.143   8.620  70.923  1.00  0.00    -0.187 C  
HETATM   16  O   UNL     2      -8.661   6.401  70.018  1.00  0.00    -0.132 OA 
HETATM   17  H   UNL     2      -8.184   6.245  70.825  1.00  0.00     0.000 HD 
HETATM   18  O   UNL     2     -10.050   9.501  70.881  1.00  0.00    -0.286 OA 
HETATM   19  O   UNL     2      -8.308   8.766  71.886  1.00  0.00    -0.294 OA 
ENDBRANCH  11  14
ENDBRANCH   8  11
ENDBRANCH   2   8
TORSDOF 3
ENDMDL
MODEL      350
REMARK 921   NORMALIZED FREE ENERGY PREDICTED BY IDOCK:   -1.94 KCAL/MOL
REMARK 922        TOTAL FREE ENERGY PREDICTED BY IDOCK:   -2.75 KCAL/MOL
REMARK 923 INTER-LIGAND FREE ENERGY PREDICTED BY IDOCK:   -2.18 KCAL/MOL
REMARK 924 INTRA-LIGAND FREE ENERGY PREDICTED BY IDOCK:   -0.57 KCAL/MOL
REMARK 927      BINDING AFFINITY PREDICTED BY RF-SCORE:    0.00 PKD
ROOT
HETATM    1 CA   UNL     1      -9.702  12.858  69.160  1.00  0.00    -0.336 Ca 
HETATM    2  C   UNL     2      -9.023  11.504  65.330  1.00  0.00     0.018 C  
HETATM    3  H   UNL     2     -10.313  11.823  63.847  1.00  0.00     0.000 HD 
HETATM    4  C   UNL     2      -8.446  12.335  66.484  1.00  0.00     0.015 C  
HETATM    5  O   UNL     2      -9.955  12.337  64.562  1.00  0.00    -0.260 OA 
HETATM    6  O   UNL     2      -7.247  12.205  66.794  1.00  0.00    -0.053 OA 
HETATM    7  O   UNL     2      -9.277  13.073  67.138  1.00  0.00    -0.210 OA 
ENDROOT
BRANCH   2   8
HETATM    8  C   UNL     2      -9.844  10.293  65.800  1.00  0.00    -0.257 C  
HETATM    9  H   UNL     2     -10.616   8.731  64.905  1.00  0.00     0.000 HD 
HETATM   10  O   UNL     2     -10.109   9.479  64.615  1.00  0.00     0.239 OA 
BRANCH   8  11
HETATM   11  C   UNL     2      -9.265   9.320  66.869  1.00  0.00    -0.144 C  
HETATM   12  H   UNL     2      -9.094   7.385  67.011  1.00  0.00     0.000 HD 
HETATM   13  O   UNL     2      -9.447   7.979  66.359  1.00  0.00    -0.198 OA 
BRANCH  11  14
HETATM   14  C   UNL     2      -9.802   9.380  68.306  1.00  0.00    -0.160 C  
HETATM   15  C   UNL     2      -8.835   9.832  69.396  1.00  0.00    -0.182 C  
HETATM   16  O   UNL     2     -11.042  10.121  68.387  1.00  0.00    -0.328 OA 
HETATM   17  H   UNL     2     -11.375  10.159  69.276  1.00  0.00     0.000 HD 
HETATM   18  O   UNL     2      -7.624  10.108  69.158  1.00  0.00    -0.084 OA 
HETATM   19  O   UNL     2      -9.076   9.514  70.615  1.00  0.00    -0.245 OA 
ENDBRANCH  11  14
ENDBRANCH   8  11
ENDBRANCH   2   8
TORSDOF 3
ENDMDL
MODEL      351
REMARK 921   NORMALIZED FREE ENERGY PREDICTED BY IDOCK:   -1.93 KCAL/MOL
REMARK 922        TOTAL FREE ENERGY PREDICTED BY IDOCK:   -2.74 KCAL/MOL
REMARK 923 INTER-LIGAND FREE ENERGY PREDICTED BY IDOCK:   -2.88 KCAL/MOL
REMARK 924 INTRA-LIGAND FREE ENERGY PREDICTED BY IDOCK:    0.14 KCAL/MOL
REMARK 927      BINDING AFFINITY PREDICTED BY RF-SCORE:    0.00 PKD
ROOT
HETATM    1 CA   UNL     1     -11.608   5.666  71.255  1.00  0.00    -0.270 Ca 
HETATM    2  C   UNL     2     -10.557   9.647  71.335  1.00  0.00    -0.114 C  
HETATM    3  H   UNL     2     -11.820  11.089  70.798  1.00  0.00     0.000 HD 
HETATM    4  C   UNL     2     -10.645   8.360  72.165  1.00  0.00    -0.329 C  
HETATM    5  O   UNL     2     -11.874  10.293  71.312  1.00  0.00    -0.364 OA 
HETATM    6  O   UNL     2      -9.700   8.046  72.914  1.00  0.00    -0.243 OA 
HETATM    7  O   UNL     2     -11.680   7.616  71.970  1.00  0.00    -0.277 OA 
ENDROOT
BRANCH   2   8
HETATM    8  C   UNL     2     -10.193   9.401  69.863  1.00  0.00    -0.222 C  
HETATM    9  H   UNL     2     -11.155   9.575  68.165  1.00  0.00     0.000 HD 
HETATM   10  O   UNL     2     -11.380   9.727  69.075  1.00  0.00    -0.109 OA 
BRANCH   8  11
HETATM   11  C   UNL     2      -9.014  10.180  69.205  1.00  0.00    -0.183 C  
HETATM   12  H   UNL     2      -8.834  11.912  68.333  1.00  0.00     0.000 HD 
HETATM   13  O   UNL     2      -9.553  11.437  68.733  1.00  0.00    -0.190 OA 
BRANCH  11  14
HETATM   14  C   UNL     2      -8.225   9.521  68.065  1.00  0.00    -0.114 C  
HETATM   15  C   UNL     2      -8.026   8.010  68.135  1.00  0.00    -0.128 C  
HETATM   16  O   UNL     2      -8.730   9.908  66.766  1.00  0.00    -0.128 OA 
HETATM   17  H   UNL     2      -8.241   9.500  66.060  1.00  0.00     0.000 HD 
HETATM   18  O   UNL     2      -8.446   7.314  69.105  1.00  0.00    -0.131 OA 
HETATM   19  O   UNL     2      -7.063   7.476  67.478  1.00  0.00    -0.080 OA 
ENDBRANCH  11  14
ENDBRANCH   8  11
ENDBRANCH   2   8
TORSDOF 3
ENDMDL
MODEL      352
REMARK 921   NORMALIZED FREE ENERGY PREDICTED BY IDOCK:   -1.91 KCAL/MOL
REMARK 922        TOTAL FREE ENERGY PREDICTED BY IDOCK:   -2.72 KCAL/MOL
REMARK 923 INTER-LIGAND FREE ENERGY PREDICTED BY IDOCK:   -2.88 KCAL/MOL
REMARK 924 INTRA-LIGAND FREE ENERGY PREDICTED BY IDOCK:    0.17 KCAL/MOL
REMARK 927      BINDING AFFINITY PREDICTED BY RF-SCORE:    0.00 PKD
ROOT
HETATM    1 CA   UNL     1      -9.320  11.988  69.172  1.00  0.00    -0.307 Ca 
HETATM    2  C   UNL     2      -8.444   7.965  69.274  1.00  0.00    -0.137 C  
HETATM    3  H   UNL     2      -8.112   6.909  67.619  1.00  0.00     0.000 HD 
HETATM    4  C   UNL     2      -8.034   9.347  69.797  1.00  0.00    -0.119 C  
HETATM    5  O   UNL     2      -7.858   7.765  67.943  1.00  0.00    -0.122 OA 
HETATM    6  O   UNL     2      -7.751   9.489  71.002  1.00  0.00    -0.319 OA 
HETATM    7  O   UNL     2      -8.093  10.325  68.957  1.00  0.00    -0.112 OA 
ENDROOT
BRANCH   2   8
HETATM    8  C   UNL     2      -9.961   7.808  69.084  1.00  0.00    -0.182 C  
HETATM    9  H   UNL     2     -11.224   8.302  67.670  1.00  0.00     0.000 HD 
HETATM   10  O   UNL     2     -10.286   8.399  67.787  1.00  0.00    -0.217 OA 
BRANCH   8  11
HETATM   11  C   UNL     2     -10.609   6.390  69.084  1.00  0.00    -0.255 C  
HETATM   12  H   UNL     2     -11.580   5.329  70.397  1.00  0.00     0.000 HD 
HETATM   13  O   UNL     2     -11.184   6.193  70.396  1.00  0.00    -0.333 OA 
BRANCH  11  14
HETATM   14  C   UNL     2      -9.743   5.172  68.735  1.00  0.00    -0.154 C  
HETATM   15  C   UNL     2      -9.632   4.793  67.261  1.00  0.00    -0.163 C  
HETATM   16  O   UNL     2      -8.432   5.250  69.341  1.00  0.00    -0.093 OA 
HETATM   17  H   UNL     2      -7.896   4.495  69.124  1.00  0.00     0.000 HD 
HETATM   18  O   UNL     2     -10.253   5.415  66.351  1.00  0.00    -0.199 OA 
HETATM   19  O   UNL     2      -9.292   3.596  66.948  1.00  0.00    -0.173 OA 
ENDBRANCH  11  14
ENDBRANCH   8  11
ENDBRANCH   2   8
TORSDOF 3
ENDMDL
MODEL      353
REMARK 921   NORMALIZED FREE ENERGY PREDICTED BY IDOCK:   -1.89 KCAL/MOL
REMARK 922        TOTAL FREE ENERGY PREDICTED BY IDOCK:   -2.69 KCAL/MOL
REMARK 923 INTER-LIGAND FREE ENERGY PREDICTED BY IDOCK:   -2.30 KCAL/MOL
REMARK 924 INTRA-LIGAND FREE ENERGY PREDICTED BY IDOCK:   -0.39 KCAL/MOL
REMARK 927      BINDING AFFINITY PREDICTED BY RF-SCORE:    0.00 PKD
ROOT
HETATM    1 CA   UNL     1      -8.160  11.710  67.364  1.00  0.00    -0.114 Ca 
HETATM    2  C   UNL     2      -8.410   7.932  68.984  1.00  0.00    -0.130 C  
HETATM    3  H   UNL     2      -8.944   6.347  67.903  1.00  0.00     0.000 HD 
HETATM    4  C   UNL     2      -7.495   9.146  68.778  1.00  0.00    -0.076 C  
HETATM    5  O   UNL     2      -8.377   7.098  67.776  1.00  0.00    -0.117 OA 
HETATM    6  O   UNL     2      -6.800   9.559  69.726  1.00  0.00    -0.053 OA 
HETATM    7  O   UNL     2      -7.567   9.737  67.634  1.00  0.00    -0.090 OA 
ENDROOT
BRANCH   2   8
HETATM    8  C   UNL     2      -9.887   8.305  69.186  1.00  0.00    -0.179 C  
HETATM    9  H   UNL     2     -11.566   7.772  68.328  1.00  0.00     0.000 HD 
HETATM   10  O   UNL     2     -10.653   7.541  68.203  1.00  0.00    -0.198 OA 
BRANCH   8  11
HETATM   11  C   UNL     2     -10.579   8.055  70.559  1.00  0.00    -0.220 C  
HETATM   12  H   UNL     2     -12.313   8.506  71.322  1.00  0.00     0.000 HD 
HETATM   13  O   UNL     2     -11.891   8.658  70.485  1.00  0.00    -0.174 OA 
BRANCH  11  14
HETATM   14  C   UNL     2      -9.887   8.533  71.844  1.00  0.00    -0.288 C  
HETATM   15  C   UNL     2      -9.125   7.490  72.657  1.00  0.00    -0.150 C  
HETATM   16  O   UNL     2      -9.061   9.698  71.611  1.00  0.00    -0.150 OA 
HETATM   17  H   UNL     2      -8.633   9.994  72.406  1.00  0.00     0.000 HD 
HETATM   18  O   UNL     2      -9.089   6.268  72.331  1.00  0.00    -0.140 OA 
HETATM   19  O   UNL     2      -8.894   7.714  73.899  1.00  0.00    -0.218 OA 
ENDBRANCH  11  14
ENDBRANCH   8  11
ENDBRANCH   2   8
TORSDOF 3
ENDMDL
MODEL      354
REMARK 921   NORMALIZED FREE ENERGY PREDICTED BY IDOCK:   -1.85 KCAL/MOL
REMARK 922        TOTAL FREE ENERGY PREDICTED BY IDOCK:   -2.65 KCAL/MOL
REMARK 923 INTER-LIGAND FREE ENERGY PREDICTED BY IDOCK:   -2.33 KCAL/MOL
REMARK 924 INTRA-LIGAND FREE ENERGY PREDICTED BY IDOCK:   -0.32 KCAL/MOL
REMARK 927      BINDING AFFINITY PREDICTED BY RF-SCORE:    0.00 PKD
ROOT
HETATM    1 CA   UNL     1      -6.449   2.635  67.560  1.00  0.00    -0.029 Ca 
HETATM    2  C   UNL     2      -9.833   4.216  65.824  1.00  0.00    -0.202 C  
HETATM    3  H   UNL     2      -9.892   6.074  65.111  1.00  0.00     0.000 HD 
HETATM    4  C   UNL     2      -8.834   3.053  65.783  1.00  0.00    -0.139 C  
HETATM    5  O   UNL     2      -9.273   5.354  65.086  1.00  0.00    -0.086 OA 
HETATM    6  O   UNL     2      -9.253   1.887  65.652  1.00  0.00    -0.100 OA 
HETATM    7  O   UNL     2      -7.594   3.349  65.979  1.00  0.00    -0.079 OA 
ENDROOT
BRANCH   2   8
HETATM    8  C   UNL     2     -10.105   4.739  67.243  1.00  0.00    -0.146 C  
HETATM    9  H   UNL     2      -9.829   4.022  69.045  1.00  0.00     0.000 HD 
HETATM   10  O   UNL     2      -9.660   3.699  68.168  1.00  0.00    -0.169 OA 
BRANCH   8  11
HETATM   11  C   UNL     2      -9.442   6.062  67.732  1.00  0.00    -0.112 C  
HETATM   12  H   UNL     2      -7.678   6.542  68.402  1.00  0.00     0.000 HD 
HETATM   13  O   UNL     2      -8.083   5.736  68.105  1.00  0.00    -0.103 OA 
BRANCH  11  14
HETATM   14  C   UNL     2     -10.094   6.848  68.877  1.00  0.00    -0.170 C  
HETATM   15  C   UNL     2     -10.315   8.342  68.663  1.00  0.00    -0.197 C  
HETATM   16  O   UNL     2     -11.310   6.215  69.341  1.00  0.00    -0.420 OA 
HETATM   17  H   UNL     2     -11.714   6.702  70.050  1.00  0.00     0.000 HD 
HETATM   18  O   UNL     2      -9.944   8.940  67.611  1.00  0.00    -0.172 OA 
HETATM   19  O   UNL     2     -10.456   9.106  69.684  1.00  0.00    -0.210 OA 
ENDBRANCH  11  14
ENDBRANCH   8  11
ENDBRANCH   2   8
TORSDOF 3
ENDMDL
MODEL      355
REMARK 921   NORMALIZED FREE ENERGY PREDICTED BY IDOCK:   -1.82 KCAL/MOL
REMARK 922        TOTAL FREE ENERGY PREDICTED BY IDOCK:   -2.62 KCAL/MOL
REMARK 923 INTER-LIGAND FREE ENERGY PREDICTED BY IDOCK:   -3.09 KCAL/MOL
REMARK 924 INTRA-LIGAND FREE ENERGY PREDICTED BY IDOCK:    0.47 KCAL/MOL
REMARK 927      BINDING AFFINITY PREDICTED BY RF-SCORE:    0.00 PKD
ROOT
HETATM    1 CA   UNL     1     -10.614   9.011  65.112  1.00  0.00    -0.322 Ca 
HETATM    2  C   UNL     2      -7.863  11.267  67.188  1.00  0.00    -0.151 C  
HETATM    3  H   UNL     2      -7.316  10.823  69.051  1.00  0.00     0.000 HD 
HETATM    4  C   UNL     2      -8.113  10.476  65.898  1.00  0.00    -0.154 C  
HETATM    5  O   UNL     2      -7.471  10.334  68.251  1.00  0.00    -0.084 OA 
HETATM    6  O   UNL     2      -7.752  10.953  64.805  1.00  0.00     0.127 OA 
HETATM    7  O   UNL     2      -8.776   9.376  66.012  1.00  0.00    -0.139 OA 
ENDROOT
BRANCH   2   8
HETATM    8  C   UNL     2      -9.113  11.989  67.715  1.00  0.00    -0.187 C  
HETATM    9  H   UNL     2      -9.420  13.444  68.990  1.00  0.00     0.000 HD 
HETATM   10  O   UNL     2      -8.647  12.998  68.665  1.00  0.00    -0.089 OA 
BRANCH   8  11
HETATM   11  C   UNL     2     -10.062  12.733  66.728  1.00  0.00    -0.236 C  
HETATM   12  H   UNL     2     -11.089  12.211  65.158  1.00  0.00     0.000 HD 
HETATM   13  O   UNL     2     -10.510  11.757  65.759  1.00  0.00    -0.243 OA 
BRANCH  11  14
HETATM   14  C   UNL     2      -9.545  13.971  65.982  1.00  0.00    -0.205 C  
HETATM   15  C   UNL     2     -10.564  15.050  65.626  1.00  0.00    -0.346 C  
HETATM   16  O   UNL     2      -8.394  14.554  66.637  1.00  0.00    -0.407 OA 
HETATM   17  H   UNL     2      -8.074  15.320  66.174  1.00  0.00     0.000 HD 
HETATM   18  O   UNL     2     -11.797  14.932  65.886  1.00  0.00    -0.256 OA 
HETATM   19  O   UNL     2     -10.299  15.871  64.677  1.00  0.00    -0.401 OA 
ENDBRANCH  11  14
ENDBRANCH   8  11
ENDBRANCH   2   8
TORSDOF 3
ENDMDL
MODEL      356
REMARK 921   NORMALIZED FREE ENERGY PREDICTED BY IDOCK:   -1.80 KCAL/MOL
REMARK 922        TOTAL FREE ENERGY PREDICTED BY IDOCK:   -2.59 KCAL/MOL
REMARK 923 INTER-LIGAND FREE ENERGY PREDICTED BY IDOCK:   -2.83 KCAL/MOL
REMARK 924 INTRA-LIGAND FREE ENERGY PREDICTED BY IDOCK:    0.24 KCAL/MOL
REMARK 927      BINDING AFFINITY PREDICTED BY RF-SCORE:    0.00 PKD
ROOT
HETATM    1 CA   UNL     1     -12.015   5.347  72.264  1.00  0.00    -0.259 Ca 
HETATM    2  C   UNL     2      -9.534   8.516  71.389  1.00  0.00    -0.213 C  
HETATM    3  H   UNL     2      -9.946   9.817  69.939  1.00  0.00     0.000 HD 
HETATM    4  C   UNL     2     -10.329   7.821  72.501  1.00  0.00    -0.268 C  
HETATM    5  O   UNL     2     -10.438   9.387  70.628  1.00  0.00    -0.245 OA 
HETATM    6  O   UNL     2      -9.807   7.659  73.620  1.00  0.00    -0.301 OA 
HETATM    7  O   UNL     2     -11.489   7.356  72.180  1.00  0.00    -0.263 OA 
ENDROOT
BRANCH   2   8
HETATM    8  C   UNL     2      -8.940   7.541  70.361  1.00  0.00    -0.152 C  
HETATM    9  H   UNL     2      -7.751   5.988  70.472  1.00  0.00     0.000 HD 
HETATM   10  O   UNL     2      -8.118   6.590  71.108  1.00  0.00    -0.113 OA 
BRANCH   8  11
HETATM   11  C   UNL     2      -9.878   6.683  69.460  1.00  0.00    -0.152 C  
HETATM   12  H   UNL     2     -10.595   4.876  69.559  1.00  0.00     0.000 HD 
HETATM   13  O   UNL     2     -10.023   5.399  70.108  1.00  0.00    -0.194 OA 
BRANCH  11  14
HETATM   14  C   UNL     2      -9.500   6.455  67.989  1.00  0.00    -0.116 C  
HETATM   15  C   UNL     2      -8.486   5.355  67.690  1.00  0.00    -0.105 C  
HETATM   16  O   UNL     2     -10.669   6.312  67.148  1.00  0.00    -0.272 OA 
HETATM   17  H   UNL     2     -10.435   6.171  66.238  1.00  0.00     0.000 HD 
HETATM   18  O   UNL     2      -7.932   4.676  68.602  1.00  0.00    -0.079 OA 
HETATM   19  O   UNL     2      -7.835   5.390  66.586  1.00  0.00    -0.099 OA 
ENDBRANCH  11  14
ENDBRANCH   8  11
ENDBRANCH   2   8
TORSDOF 3
ENDMDL
MODEL      357
REMARK 921   NORMALIZED FREE ENERGY PREDICTED BY IDOCK:   -1.78 KCAL/MOL
REMARK 922        TOTAL FREE ENERGY PREDICTED BY IDOCK:   -2.57 KCAL/MOL
REMARK 923 INTER-LIGAND FREE ENERGY PREDICTED BY IDOCK:   -2.52 KCAL/MOL
REMARK 924 INTRA-LIGAND FREE ENERGY PREDICTED BY IDOCK:   -0.05 KCAL/MOL
REMARK 927      BINDING AFFINITY PREDICTED BY RF-SCORE:    0.00 PKD
ROOT
HETATM    1 CA   UNL     1      -6.285   9.532  69.173  1.00  0.00    -0.039 Ca 
HETATM    2  C   UNL     2      -9.913   8.298  67.663  1.00  0.00    -0.190 C  
HETATM    3  H   UNL     2     -11.643   8.812  68.505  1.00  0.00     0.000 HD 
HETATM    4  C   UNL     2      -8.597   9.013  67.329  1.00  0.00    -0.114 C  
HETATM    5  O   UNL     2     -10.828   9.254  68.297  1.00  0.00    -0.179 OA 
HETATM    6  O   UNL     2      -8.010   8.751  66.262  1.00  0.00    -0.103 OA 
HETATM    7  O   UNL     2      -8.120   9.798  68.234  1.00  0.00    -0.103 OA 
ENDROOT
BRANCH   2   8
HETATM    8  C   UNL     2      -9.748   7.153  68.674  1.00  0.00    -0.141 C  
HETATM    9  H   UNL     2      -8.629   5.547  68.756  1.00  0.00     0.000 HD 
HETATM   10  O   UNL     2      -8.732   6.254  68.130  1.00  0.00    -0.116 OA 
BRANCH   8  11
HETATM   11  C   UNL     2      -9.312   7.458  70.139  1.00  0.00    -0.158 C  
HETATM   12  H   UNL     2      -7.600   7.661  71.045  1.00  0.00     0.000 HD 
HETATM   13  O   UNL     2      -7.866   7.475  70.152  1.00  0.00    -0.095 OA 
BRANCH  11  14
HETATM   14  C   UNL     2      -9.806   6.546  71.272  1.00  0.00    -0.181 C  
HETATM   15  C   UNL     2     -11.311   6.320  71.381  1.00  0.00    -0.296 C  
HETATM   16  O   UNL     2      -9.099   5.284  71.295  1.00  0.00    -0.140 OA 
HETATM   17  H   UNL     2      -9.405   4.720  71.996  1.00  0.00     0.000 HD 
HETATM   18  O   UNL     2     -12.141   6.884  70.610  1.00  0.00    -0.371 OA 
HETATM   19  O   UNL     2     -11.805   5.936  72.501  1.00  0.00    -0.295 OA 
ENDBRANCH  11  14
ENDBRANCH   8  11
ENDBRANCH   2   8
TORSDOF 3
ENDMDL
MODEL      358
REMARK 921   NORMALIZED FREE ENERGY PREDICTED BY IDOCK:   -1.76 KCAL/MOL
REMARK 922        TOTAL FREE ENERGY PREDICTED BY IDOCK:   -2.55 KCAL/MOL
REMARK 923 INTER-LIGAND FREE ENERGY PREDICTED BY IDOCK:   -2.36 KCAL/MOL
REMARK 924 INTRA-LIGAND FREE ENERGY PREDICTED BY IDOCK:   -0.19 KCAL/MOL
REMARK 927      BINDING AFFINITY PREDICTED BY RF-SCORE:    0.00 PKD
ROOT
HETATM    1 CA   UNL     1     -12.104   7.005  69.584  1.00  0.00    -0.478 Ca 
HETATM    2  C   UNL     2      -8.978   6.707  66.919  1.00  0.00    -0.127 C  
HETATM    3  H   UNL     2      -8.115   4.966  66.485  1.00  0.00     0.000 HD 
HETATM    4  C   UNL     2     -10.417   7.205  67.108  1.00  0.00    -0.319 C  
HETATM    5  O   UNL     2      -9.006   5.275  66.602  1.00  0.00    -0.115 OA 
HETATM    6  O   UNL     2     -10.739   8.329  66.678  1.00  0.00    -0.202 OA 
HETATM    7  O   UNL     2     -11.205   6.449  67.795  1.00  0.00    -0.323 OA 
ENDROOT
BRANCH   2   8
HETATM    8  C   UNL     2      -8.116   6.833  68.184  1.00  0.00    -0.115 C  
HETATM    9  H   UNL     2      -7.083   5.571  69.271  1.00  0.00     0.000 HD 
HETATM   10  O   UNL     2      -7.616   5.493  68.488  1.00  0.00    -0.082 OA 
BRANCH   8  11
HETATM   11  C   UNL     2      -6.870   7.769  68.195  1.00  0.00    -0.068 C  
HETATM   12  H   UNL     2      -5.600   8.343  69.556  1.00  0.00     0.000 HD 
HETATM   13  O   UNL     2      -6.360   7.773  69.549  1.00  0.00    -0.033 OA 
BRANCH  11  14
HETATM   14  C   UNL     2      -7.020   9.220  67.719  1.00  0.00    -0.081 C  
HETATM   15  C   UNL     2      -8.051  10.089  68.435  1.00  0.00    -0.101 C  
HETATM   16  O   UNL     2      -5.744   9.900  67.648  1.00  0.00    -0.039 OA 
HETATM   17  H   UNL     2      -5.838  10.798  67.353  1.00  0.00     0.000 HD 
HETATM   18  O   UNL     2      -8.793   9.641  69.357  1.00  0.00    -0.153 OA 
HETATM   19  O   UNL     2      -8.511  11.129  67.843  1.00  0.00    -0.124 OA 
ENDBRANCH  11  14
ENDBRANCH   8  11
ENDBRANCH   2   8
TORSDOF 3
ENDMDL
MODEL      359
REMARK 921   NORMALIZED FREE ENERGY PREDICTED BY IDOCK:   -1.76 KCAL/MOL
REMARK 922        TOTAL FREE ENERGY PREDICTED BY IDOCK:   -2.54 KCAL/MOL
REMARK 923 INTER-LIGAND FREE ENERGY PREDICTED BY IDOCK:   -1.81 KCAL/MOL
REMARK 924 INTRA-LIGAND FREE ENERGY PREDICTED BY IDOCK:   -0.73 KCAL/MOL
REMARK 927      BINDING AFFINITY PREDICTED BY RF-SCORE:    0.00 PKD
ROOT
HETATM    1 CA   UNL     1      -8.074   7.570  68.793  1.00  0.00    -0.106 Ca 
HETATM    2  C   UNL     2      -7.331   6.744  64.827  1.00  0.00    -0.088 C  
HETATM    3  H   UNL     2      -8.535   7.368  63.369  1.00  0.00     0.000 HD 
HETATM    4  C   UNL     2      -6.747   7.353  66.108  1.00  0.00    -0.053 C  
HETATM    5  O   UNL     2      -8.173   7.745  64.162  1.00  0.00    -0.110 OA 
HETATM    6  O   UNL     2      -5.573   7.093  66.433  1.00  0.00    -0.022 OA 
HETATM    7  O   UNL     2      -7.553   8.046  66.839  1.00  0.00    -0.092 OA 
ENDROOT
BRANCH   2   8
HETATM    8  C   UNL     2      -8.249   5.540  65.086  1.00  0.00    -0.141 C  
HETATM    9  H   UNL     2      -9.132   4.217  63.941  1.00  0.00     0.000 HD 
HETATM   10  O   UNL     2      -8.564   4.961  63.781  1.00  0.00    -0.133 OA 
BRANCH   8  11
HETATM   11  C   UNL     2      -7.760   4.356  65.974  1.00  0.00    -0.094 C  
HETATM   12  H   UNL     2      -6.757   2.720  65.643  1.00  0.00     0.000 HD 
HETATM   13  O   UNL     2      -7.055   3.441  65.102  1.00  0.00    -0.062 OA 
BRANCH  11  14
HETATM   14  C   UNL     2      -8.785   3.564  66.798  1.00  0.00    -0.120 C  
HETATM   15  C   UNL     2      -9.080   4.061  68.210  1.00  0.00    -0.137 C  
HETATM   16  O   UNL     2     -10.015   3.350  66.066  1.00  0.00    -0.409 OA 
HETATM   17  H   UNL     2     -10.649   2.860  66.577  1.00  0.00     0.000 HD 
HETATM   18  O   UNL     2      -8.485   5.055  68.719  1.00  0.00    -0.087 OA 
HETATM   19  O   UNL     2      -9.579   3.247  69.067  1.00  0.00    -0.159 OA 
ENDBRANCH  11  14
ENDBRANCH   8  11
ENDBRANCH   2   8
TORSDOF 3
ENDMDL
MODEL      360
REMARK 921   NORMALIZED FREE ENERGY PREDICTED BY IDOCK:   -1.66 KCAL/MOL
REMARK 922        TOTAL FREE ENERGY PREDICTED BY IDOCK:   -2.43 KCAL/MOL
REMARK 923 INTER-LIGAND FREE ENERGY PREDICTED BY IDOCK:   -1.85 KCAL/MOL
REMARK 924 INTRA-LIGAND FREE ENERGY PREDICTED BY IDOCK:   -0.58 KCAL/MOL
REMARK 927      BINDING AFFINITY PREDICTED BY RF-SCORE:    0.00 PKD
ROOT
HETATM    1 CA   UNL     1     -11.547   5.281  69.865  1.00  0.00    -0.240 Ca 
HETATM    2  C   UNL     2      -8.295   7.785  70.210  1.00  0.00    -0.127 C  
HETATM    3  H   UNL     2      -8.220   9.557  69.306  1.00  0.00     0.000 HD 
HETATM    4  C   UNL     2      -9.352   6.992  70.991  1.00  0.00    -0.159 C  
HETATM    5  O   UNL     2      -8.874   9.066  69.790  1.00  0.00    -0.138 OA 
HETATM    6  O   UNL     2      -9.010   6.331  71.990  1.00  0.00    -0.142 OA 
HETATM    7  O   UNL     2     -10.546   6.986  70.505  1.00  0.00    -0.216 OA 
ENDROOT
BRANCH   2   8
HETATM    8  C   UNL     2      -7.844   7.092  68.915  1.00  0.00    -0.115 C  
HETATM    9  H   UNL     2      -6.273   7.243  67.755  1.00  0.00     0.000 HD 
HETATM   10  O   UNL     2      -6.552   7.672  68.556  1.00  0.00    -0.050 OA 
BRANCH   8  11
HETATM   11  C   UNL     2      -7.647   5.547  68.881  1.00  0.00    -0.087 C  
HETATM   12  H   UNL     2      -6.310   4.320  69.588  1.00  0.00     0.000 HD 
HETATM   13  O   UNL     2      -6.430   5.262  69.609  1.00  0.00    -0.032 OA 
BRANCH  11  14
HETATM   14  C   UNL     2      -7.590   4.830  67.525  1.00  0.00    -0.082 C  
HETATM   15  C   UNL     2      -8.914   4.368  66.922  1.00  0.00    -0.118 C  
HETATM   16  O   UNL     2      -6.821   5.575  66.552  1.00  0.00    -0.056 OA 
HETATM   17  H   UNL     2      -6.786   5.131  65.712  1.00  0.00     0.000 HD 
HETATM   18  O   UNL     2     -10.020   4.519  67.517  1.00  0.00    -0.163 OA 
HETATM   19  O   UNL     2      -8.908   3.433  66.044  1.00  0.00    -0.123 OA 
ENDBRANCH  11  14
ENDBRANCH   8  11
ENDBRANCH   2   8
TORSDOF 3
ENDMDL
MODEL      361
REMARK 921   NORMALIZED FREE ENERGY PREDICTED BY IDOCK:   -1.65 KCAL/MOL
REMARK 922        TOTAL FREE ENERGY PREDICTED BY IDOCK:   -2.41 KCAL/MOL
REMARK 923 INTER-LIGAND FREE ENERGY PREDICTED BY IDOCK:   -2.13 KCAL/MOL
REMARK 924 INTRA-LIGAND FREE ENERGY PREDICTED BY IDOCK:   -0.28 KCAL/MOL
REMARK 927      BINDING AFFINITY PREDICTED BY RF-SCORE:    0.00 PKD
ROOT
HETATM    1 CA   UNL     1      -9.221   8.472  66.578  1.00  0.00    -0.128 Ca 
HETATM    2  C   UNL     2      -8.542   4.660  67.983  1.00  0.00    -0.102 C  
HETATM    3  H   UNL     2      -9.859   3.187  67.734  1.00  0.00     0.000 HD 
HETATM    4  C   UNL     2      -7.979   5.791  67.113  1.00  0.00    -0.102 C  
HETATM    5  O   UNL     2      -9.509   3.887  67.195  1.00  0.00    -0.179 OA 
HETATM    6  O   UNL     2      -6.773   6.089  67.199  1.00  0.00    -0.057 OA 
HETATM    7  O   UNL     2      -8.826   6.441  66.389  1.00  0.00    -0.132 OA 
ENDROOT
BRANCH   2   8
HETATM    8  C   UNL     2      -9.319   5.162  69.210  1.00  0.00    -0.123 C  
HETATM    9  H   UNL     2     -10.482   4.312  70.538  1.00  0.00     0.000 HD 
HETATM   10  O   UNL     2     -10.002   4.002  69.780  1.00  0.00    -0.180 OA 
BRANCH   8  11
HETATM   11  C   UNL     2      -8.563   5.839  70.393  1.00  0.00    -0.133 C  
HETATM   12  H   UNL     2      -8.184   5.344  72.238  1.00  0.00     0.000 HD 
HETATM   13  O   UNL     2      -8.645   4.932  71.517  1.00  0.00    -0.118 OA 
BRANCH  11  14
HETATM   14  C   UNL     2      -8.995   7.238  70.855  1.00  0.00    -0.150 C  
HETATM   15  C   UNL     2      -8.077   7.966  71.832  1.00  0.00    -0.115 C  
HETATM   16  O   UNL     2      -9.331   8.094  69.737  1.00  0.00    -0.158 OA 
HETATM   17  H   UNL     2      -9.598   8.960  70.023  1.00  0.00     0.000 HD 
HETATM   18  O   UNL     2      -7.022   7.442  72.292  1.00  0.00    -0.062 OA 
HETATM   19  O   UNL     2      -8.558   8.910  72.555  1.00  0.00    -0.396 OA 
ENDBRANCH  11  14
ENDBRANCH   8  11
ENDBRANCH   2   8
TORSDOF 3
ENDMDL
MODEL      362
REMARK 921   NORMALIZED FREE ENERGY PREDICTED BY IDOCK:   -1.58 KCAL/MOL
REMARK 922        TOTAL FREE ENERGY PREDICTED BY IDOCK:   -2.33 KCAL/MOL
REMARK 923 INTER-LIGAND FREE ENERGY PREDICTED BY IDOCK:   -2.28 KCAL/MOL
REMARK 924 INTRA-LIGAND FREE ENERGY PREDICTED BY IDOCK:   -0.05 KCAL/MOL
REMARK 927      BINDING AFFINITY PREDICTED BY RF-SCORE:    0.00 PKD
ROOT
HETATM    1 CA   UNL     1     -11.845   6.229  73.060  1.00  0.00    -0.347 Ca 
HETATM    2  C   UNL     2      -8.985   8.198  70.845  1.00  0.00    -0.146 C  
HETATM    3  H   UNL     2      -9.278   8.703  68.941  1.00  0.00     0.000 HD 
HETATM    4  C   UNL     2      -9.816   8.239  72.134  1.00  0.00    -0.272 C  
HETATM    5  O   UNL     2      -9.792   8.728  69.740  1.00  0.00    -0.180 OA 
HETATM    6  O   UNL     2      -9.267   8.550  73.209  1.00  0.00    -0.192 OA 
HETATM    7  O   UNL     2     -11.044   7.855  72.044  1.00  0.00    -0.249 OA 
ENDROOT
BRANCH   2   8
HETATM    8  C   UNL     2      -8.586   6.777  70.419  1.00  0.00    -0.146 C  
HETATM    9  H   UNL     2      -7.056   6.010  69.465  1.00  0.00     0.000 HD 
HETATM   10  O   UNL     2      -7.303   6.888  69.729  1.00  0.00    -0.080 OA 
BRANCH   8  11
HETATM   11  C   UNL     2      -8.403   5.659  71.490  1.00  0.00    -0.127 C  
HETATM   12  H   UNL     2      -7.025   5.228  72.796  1.00  0.00     0.000 HD 
HETATM   13  O   UNL     2      -7.137   5.909  72.143  1.00  0.00    -0.083 OA 
BRANCH  11  14
HETATM   14  C   UNL     2      -8.453   4.189  71.053  1.00  0.00    -0.083 C  
HETATM   15  C   UNL     2      -9.528   3.795  70.044  1.00  0.00    -0.193 C  
HETATM   16  O   UNL     2      -7.156   3.708  70.627  1.00  0.00    -0.033 OA 
HETATM   17  H   UNL     2      -7.187   2.797  70.357  1.00  0.00     0.000 HD 
HETATM   18  O   UNL     2     -10.382   4.619  69.606  1.00  0.00    -0.169 OA 
HETATM   19  O   UNL     2      -9.886   2.566  69.961  1.00  0.00     0.025 OA 
ENDBRANCH  11  14
ENDBRANCH   8  11
ENDBRANCH   2   8
TORSDOF 3
ENDMDL
MODEL      363
REMARK 921   NORMALIZED FREE ENERGY PREDICTED BY IDOCK:   -1.54 KCAL/MOL
REMARK 922        TOTAL FREE ENERGY PREDICTED BY IDOCK:   -2.29 KCAL/MOL
REMARK 923 INTER-LIGAND FREE ENERGY PREDICTED BY IDOCK:   -1.98 KCAL/MOL
REMARK 924 INTRA-LIGAND FREE ENERGY PREDICTED BY IDOCK:   -0.31 KCAL/MOL
REMARK 927      BINDING AFFINITY PREDICTED BY RF-SCORE:    0.00 PKD
ROOT
HETATM    1 CA   UNL     1     -10.895   6.024  69.735  1.00  0.00    -0.180 Ca 
HETATM    2  C   UNL     2      -9.087   6.712  66.099  1.00  0.00    -0.118 C  
HETATM    3  H   UNL     2      -8.502   5.228  64.907  1.00  0.00     0.000 HD 
HETATM    4  C   UNL     2     -10.323   7.011  66.957  1.00  0.00    -0.290 C  
HETATM    5  O   UNL     2      -9.267   5.414  65.439  1.00  0.00    -0.136 OA 
HETATM    6  O   UNL     2     -10.767   8.173  67.011  1.00  0.00    -0.321 OA 
HETATM    7  O   UNL     2     -10.790   6.035  67.660  1.00  0.00    -0.281 OA 
ENDROOT
BRANCH   2   8
HETATM    8  C   UNL     2      -7.792   6.583  66.915  1.00  0.00    -0.107 C  
HETATM    9  H   UNL     2      -6.804   5.079  67.691  1.00  0.00     0.000 HD 
HETATM   10  O   UNL     2      -7.605   5.158  67.186  1.00  0.00    -0.089 OA 
BRANCH   8  11
HETATM   11  C   UNL     2      -6.441   7.089  66.328  1.00  0.00    -0.051 C  
HETATM   12  H   UNL     2      -4.565   6.691  66.666  1.00  0.00     0.000 HD 
HETATM   13  O   UNL     2      -5.388   6.383  67.024  1.00  0.00    -0.011 OA 
BRANCH  11  14
HETATM   14  C   UNL     2      -6.129   8.592  66.355  1.00  0.00    -0.056 C  
HETATM   15  C   UNL     2      -6.209   9.347  65.031  1.00  0.00    -0.068 C  
HETATM   16  O   UNL     2      -6.884   9.281  67.380  1.00  0.00    -0.075 OA 
HETATM   17  H   UNL     2      -6.691  10.211  67.397  1.00  0.00     0.000 HD 
HETATM   18  O   UNL     2      -6.476   8.772  63.937  1.00  0.00    -0.076 OA 
HETATM   19  O   UNL     2      -5.580  10.458  64.907  1.00  0.00    -0.116 OA 
ENDBRANCH  11  14
ENDBRANCH   8  11
ENDBRANCH   2   8
TORSDOF 3
ENDMDL
MODEL      364
REMARK 921   NORMALIZED FREE ENERGY PREDICTED BY IDOCK:   -1.39 KCAL/MOL
REMARK 922        TOTAL FREE ENERGY PREDICTED BY IDOCK:   -2.10 KCAL/MOL
REMARK 923 INTER-LIGAND FREE ENERGY PREDICTED BY IDOCK:   -3.23 KCAL/MOL
REMARK 924 INTRA-LIGAND FREE ENERGY PREDICTED BY IDOCK:    1.13 KCAL/MOL
REMARK 927      BINDING AFFINITY PREDICTED BY RF-SCORE:    0.00 PKD
ROOT
HETATM    1 CA   UNL     1      -9.979   9.303  65.209  1.00  0.00    -0.256 Ca 
HETATM    2  C   UNL     2      -8.834  10.141  69.075  1.00  0.00    -0.166 C  
HETATM    3  H   UNL     2      -8.595   8.715  70.444  1.00  0.00     0.000 HD 
HETATM    4  C   UNL     2      -8.467  10.318  67.596  1.00  0.00    -0.118 C  
HETATM    5  O   UNL     2      -8.368   8.825  69.528  1.00  0.00    -0.114 OA 
HETATM    6  O   UNL     2      -8.078  11.429  67.189  1.00  0.00    -0.140 OA 
HETATM    7  O   UNL     2      -8.672   9.306  66.824  1.00  0.00    -0.125 OA 
ENDROOT
BRANCH   2   8
HETATM    8  C   UNL     2     -10.348  10.154  69.336  1.00  0.00    -0.232 C  
HETATM    9  H   UNL     2     -11.936  10.236  68.191  1.00  0.00     0.000 HD 
HETATM   10  O   UNL     2     -11.000  10.229  68.030  1.00  0.00    -0.263 OA 
BRANCH   8  11
HETATM   11  C   UNL     2     -11.025   8.968  70.087  1.00  0.00    -0.233 C  
HETATM   12  H   UNL     2     -11.041   8.345  71.932  1.00  0.00     0.000 HD 
HETATM   13  O   UNL     2     -10.628   9.068  71.474  1.00  0.00    -0.291 OA 
BRANCH  11  14
HETATM   14  C   UNL     2     -10.772   7.533  69.602  1.00  0.00    -0.230 C  
HETATM   15  C   UNL     2     -10.946   6.410  70.621  1.00  0.00    -0.298 C  
HETATM   16  O   UNL     2     -11.502   7.237  68.389  1.00  0.00    -0.264 OA 
HETATM   17  H   UNL     2     -11.345   6.349  68.089  1.00  0.00     0.000 HD 
HETATM   18  O   UNL     2     -11.243   6.631  71.831  1.00  0.00    -0.242 OA 
HETATM   19  O   UNL     2     -10.368   5.284  70.414  1.00  0.00    -0.258 OA 
ENDBRANCH  11  14
ENDBRANCH   8  11
ENDBRANCH   2   8
TORSDOF 3
ENDMDL
MODEL      365
REMARK 921   NORMALIZED FREE ENERGY PREDICTED BY IDOCK:   -1.35 KCAL/MOL
REMARK 922        TOTAL FREE ENERGY PREDICTED BY IDOCK:   -2.06 KCAL/MOL
REMARK 923 INTER-LIGAND FREE ENERGY PREDICTED BY IDOCK:   -2.25 KCAL/MOL
REMARK 924 INTRA-LIGAND FREE ENERGY PREDICTED BY IDOCK:    0.20 KCAL/MOL
REMARK 927      BINDING AFFINITY PREDICTED BY RF-SCORE:    0.00 PKD
ROOT
HETATM    1 CA   UNL     1      -9.743   8.972  64.803  1.00  0.00    -0.376 Ca 
HETATM    2  C   UNL     2      -6.715   9.094  67.593  1.00  0.00    -0.069 C  
HETATM    3  H   UNL     2      -7.077   9.124  69.551  1.00  0.00     0.000 HD 
HETATM    4  C   UNL     2      -7.271   8.331  66.383  1.00  0.00    -0.075 C  
HETATM    5  O   UNL     2      -7.421   8.652  68.802  1.00  0.00    -0.088 OA 
HETATM    6  O   UNL     2      -6.494   7.953  65.486  1.00  0.00    -0.042 OA 
HETATM    7  O   UNL     2      -8.553   8.200  66.321  1.00  0.00    -0.128 OA 
ENDROOT
BRANCH   2   8
HETATM    8  C   UNL     2      -6.942  10.612  67.516  1.00  0.00    -0.083 C  
HETATM    9  H   UNL     2      -5.880  12.125  66.868  1.00  0.00     0.000 HD 
HETATM   10  O   UNL     2      -5.740  11.187  66.916  1.00  0.00    -0.064 OA 
BRANCH   8  11
HETATM   11  C   UNL     2      -8.143  11.186  66.706  1.00  0.00    -0.155 C  
HETATM   12  H   UNL     2      -8.608  11.265  64.816  1.00  0.00     0.000 HD 
HETATM   13  O   UNL     2      -7.875  10.916  65.310  1.00  0.00    -0.030 OA 
BRANCH  11  14
HETATM   14  C   UNL     2      -8.511  12.668  66.862  1.00  0.00    -0.116 C  
HETATM   15  C   UNL     2      -9.662  13.007  67.805  1.00  0.00    -0.218 C  
HETATM   16  O   UNL     2      -7.353  13.483  67.158  1.00  0.00    -0.354 OA 
HETATM   17  H   UNL     2      -7.581  14.400  67.255  1.00  0.00     0.000 HD 
HETATM   18  O   UNL     2     -10.328  12.118  68.410  1.00  0.00    -0.219 OA 
HETATM   19  O   UNL     2     -10.274  14.126  67.666  1.00  0.00    -0.237 OA 
ENDBRANCH  11  14
ENDBRANCH   8  11
ENDBRANCH   2   8
TORSDOF 3
ENDMDL
MODEL      366
REMARK 921   NORMALIZED FREE ENERGY PREDICTED BY IDOCK:   -1.32 KCAL/MOL
REMARK 922        TOTAL FREE ENERGY PREDICTED BY IDOCK:   -2.03 KCAL/MOL
REMARK 923 INTER-LIGAND FREE ENERGY PREDICTED BY IDOCK:   -2.37 KCAL/MOL
REMARK 924 INTRA-LIGAND FREE ENERGY PREDICTED BY IDOCK:    0.35 KCAL/MOL
REMARK 927      BINDING AFFINITY PREDICTED BY RF-SCORE:    0.00 PKD
ROOT
HETATM    1 CA   UNL     1     -11.441   5.689  71.239  1.00  0.00    -0.264 Ca 
HETATM    2  C   UNL     2      -9.021   6.898  68.134  1.00  0.00    -0.123 C  
HETATM    3  H   UNL     2      -9.629   8.208  66.763  1.00  0.00     0.000 HD 
HETATM    4  C   UNL     2      -9.129   6.773  69.659  1.00  0.00    -0.143 C  
HETATM    5  O   UNL     2      -9.696   8.130  67.707  1.00  0.00    -0.148 OA 
HETATM    6  O   UNL     2      -8.160   6.340  70.310  1.00  0.00    -0.112 OA 
HETATM    7  O   UNL     2     -10.276   7.046  70.182  1.00  0.00    -0.190 OA 
ENDROOT
BRANCH   2   8
HETATM    8  C   UNL     2      -9.722   5.761  67.375  1.00  0.00    -0.123 C  
HETATM    9  H   UNL     2     -11.326   5.644  66.255  1.00  0.00     0.000 HD 
HETATM   10  O   UNL     2     -10.893   6.347  66.724  1.00  0.00    -0.326 OA 
BRANCH   8  11
HETATM   11  C   UNL     2      -8.963   4.974  66.265  1.00  0.00    -0.127 C  
HETATM   12  H   UNL     2      -8.475   5.340  64.416  1.00  0.00     0.000 HD 
HETATM   13  O   UNL     2      -8.938   5.820  65.092  1.00  0.00    -0.080 OA 
BRANCH  11  14
HETATM   14  C   UNL     2      -9.464   3.581  65.860  1.00  0.00    -0.138 C  
HETATM   15  C   UNL     2      -9.067   3.070  64.478  1.00  0.00    -0.128 C  
HETATM   16  O   UNL     2      -9.174   2.588  66.871  1.00  0.00    -0.258 OA 
HETATM   17  H   UNL     2      -9.484   1.725  66.620  1.00  0.00     0.000 HD 
HETATM   18  O   UNL     2      -8.391   3.765  63.665  1.00  0.00    -0.089 OA 
HETATM   19  O   UNL     2      -9.765   2.144  63.929  1.00  0.00    -0.128 OA 
ENDBRANCH  11  14
ENDBRANCH   8  11
ENDBRANCH   2   8
TORSDOF 3
ENDMDL
MODEL      367
REMARK 921   NORMALIZED FREE ENERGY PREDICTED BY IDOCK:   -1.30 KCAL/MOL
REMARK 922        TOTAL FREE ENERGY PREDICTED BY IDOCK:   -2.00 KCAL/MOL
REMARK 923 INTER-LIGAND FREE ENERGY PREDICTED BY IDOCK:   -2.09 KCAL/MOL
REMARK 924 INTRA-LIGAND FREE ENERGY PREDICTED BY IDOCK:    0.09 KCAL/MOL
REMARK 927      BINDING AFFINITY PREDICTED BY RF-SCORE:    0.00 PKD
ROOT
HETATM    1 CA   UNL     1      -9.015   9.298  67.027  1.00  0.00    -0.117 Ca 
HETATM    2  C   UNL     2      -8.551   5.593  68.764  1.00  0.00    -0.104 C  
HETATM    3  H   UNL     2     -10.046   4.663  69.695  1.00  0.00     0.000 HD 
HETATM    4  C   UNL     2      -8.393   6.393  67.465  1.00  0.00    -0.117 C  
HETATM    5  O   UNL     2      -9.947   5.158  68.890  1.00  0.00    -0.159 OA 
HETATM    6  O   UNL     2      -7.363   6.254  66.779  1.00  0.00    -0.076 OA 
HETATM    7  O   UNL     2      -9.320   7.250  67.197  1.00  0.00    -0.132 OA 
ENDROOT
BRANCH   2   8
HETATM    8  C   UNL     2      -8.260   6.415  70.029  1.00  0.00    -0.125 C  
HETATM    9  H   UNL     2      -7.125   7.961  70.428  1.00  0.00     0.000 HD 
HETATM   10  O   UNL     2      -7.305   7.453  69.646  1.00  0.00    -0.085 OA 
BRANCH   8  11
HETATM   11  C   UNL     2      -9.417   7.149  70.771  1.00  0.00    -0.164 C  
HETATM   12  H   UNL     2     -10.082   8.979  70.800  1.00  0.00     0.000 HD 
HETATM   13  O   UNL     2      -9.377   8.531  70.348  1.00  0.00    -0.156 OA 
BRANCH  11  14
HETATM   14  C   UNL     2      -9.471   7.102  72.305  1.00  0.00    -0.138 C  
HETATM   15  C   UNL     2      -8.381   7.852  73.066  1.00  0.00    -0.165 C  
HETATM   16  O   UNL     2     -10.780   7.457  72.809  1.00  0.00    -0.256 OA 
HETATM   17  H   UNL     2     -10.813   7.428  73.759  1.00  0.00     0.000 HD 
HETATM   18  O   UNL     2      -7.437   8.457  72.480  1.00  0.00    -0.147 OA 
HETATM   19  O   UNL     2      -8.127   7.522  74.279  1.00  0.00    -0.151 OA 
ENDBRANCH  11  14
ENDBRANCH   8  11
ENDBRANCH   2   8
TORSDOF 3
ENDMDL
MODEL      368
REMARK 921   NORMALIZED FREE ENERGY PREDICTED BY IDOCK:   -1.18 KCAL/MOL
REMARK 922        TOTAL FREE ENERGY PREDICTED BY IDOCK:   -1.86 KCAL/MOL
REMARK 923 INTER-LIGAND FREE ENERGY PREDICTED BY IDOCK:   -2.52 KCAL/MOL
REMARK 924 INTRA-LIGAND FREE ENERGY PREDICTED BY IDOCK:    0.66 KCAL/MOL
REMARK 927      BINDING AFFINITY PREDICTED BY RF-SCORE:    0.00 PKD
ROOT
HETATM    1 CA   UNL     1      -9.063   9.318  67.038  1.00  0.00    -0.120 Ca 
HETATM    2  C   UNL     2      -9.266   5.804  69.177  1.00  0.00    -0.120 C  
HETATM    3  H   UNL     2     -10.914   5.244  70.145  1.00  0.00     0.000 HD 
HETATM    4  C   UNL     2      -8.950   6.417  67.807  1.00  0.00    -0.113 C  
HETATM    5  O   UNL     2     -10.717   5.623  69.296  1.00  0.00    -0.291 OA 
HETATM    6  O   UNL     2      -7.944   6.034  67.179  1.00  0.00    -0.101 OA 
HETATM    7  O   UNL     2      -9.713   7.380  67.414  1.00  0.00    -0.139 OA 
ENDROOT
BRANCH   2   8
HETATM    8  C   UNL     2      -8.864   6.703  70.357  1.00  0.00    -0.152 C  
HETATM    9  H   UNL     2      -7.386   7.943  70.694  1.00  0.00     0.000 HD 
HETATM   10  O   UNL     2      -7.634   7.388  69.965  1.00  0.00    -0.086 OA 
BRANCH   8  11
HETATM   11  C   UNL     2      -9.833   7.814  70.862  1.00  0.00    -0.175 C  
HETATM   12  H   UNL     2      -9.779   9.130  72.295  1.00  0.00     0.000 HD 
HETATM   13  O   UNL     2      -9.189   8.453  71.988  1.00  0.00    -0.187 OA 
BRANCH  11  14
HETATM   14  C   UNL     2     -11.266   7.433  71.262  1.00  0.00    -0.252 C  
HETATM   15  C   UNL     2     -11.441   6.614  72.537  1.00  0.00    -0.231 C  
HETATM   16  O   UNL     2     -12.147   8.581  71.270  1.00  0.00    -0.290 OA 
HETATM   17  H   UNL     2     -13.033   8.345  71.518  1.00  0.00     0.000 HD 
HETATM   18  O   UNL     2     -10.459   6.215  73.228  1.00  0.00    -0.214 OA 
HETATM   19  O   UNL     2     -12.514   5.930  72.697  1.00  0.00    -0.045 OA 
ENDBRANCH  11  14
ENDBRANCH   8  11
ENDBRANCH   2   8
TORSDOF 3
ENDMDL
MODEL      369
REMARK 921   NORMALIZED FREE ENERGY PREDICTED BY IDOCK:   -0.85 KCAL/MOL
REMARK 922        TOTAL FREE ENERGY PREDICTED BY IDOCK:   -1.47 KCAL/MOL
REMARK 923 INTER-LIGAND FREE ENERGY PREDICTED BY IDOCK:   -1.81 KCAL/MOL
REMARK 924 INTRA-LIGAND FREE ENERGY PREDICTED BY IDOCK:    0.34 KCAL/MOL
REMARK 927      BINDING AFFINITY PREDICTED BY RF-SCORE:    0.00 PKD
ROOT
HETATM    1 CA   UNL     1      -8.528  17.450  70.550  1.00  0.00     1.345 Ca 
HETATM    2  C   UNL     2      -5.913  18.612  67.587  1.00  0.00    -0.183 C  
HETATM    3  H   UNL     2      -6.426  19.913  66.170  1.00  0.00     0.000 HD 
HETATM    4  C   UNL     2      -6.115  18.502  69.104  1.00  0.00    -0.240 C  
HETATM    5  O   UNL     2      -6.550  19.845  67.109  1.00  0.00    -0.202 OA 
HETATM    6  O   UNL     2      -5.191  18.068  69.817  1.00  0.00    -0.185 OA 
HETATM    7  O   UNL     2      -7.290  18.789  69.554  1.00  0.00    -0.083 OA 
ENDROOT
BRANCH   2   8
HETATM    8  C   UNL     2      -6.575  17.473  66.797  1.00  0.00    -0.199 C  
HETATM    9  H   UNL     2      -6.322  15.532  66.718  1.00  0.00     0.000 HD 
HETATM   10  O   UNL     2      -5.912  16.236  67.206  1.00  0.00    -0.156 OA 
BRANCH   8  11
HETATM   11  C   UNL     2      -8.105  17.207  66.937  1.00  0.00    -0.216 C  
HETATM   12  H   UNL     2      -9.257  15.661  66.661  1.00  0.00     0.000 HD 
HETATM   13  O   UNL     2      -8.325  15.824  66.576  1.00  0.00    -0.272 OA 
BRANCH  11  14
HETATM   14  C   UNL     2      -9.092  18.085  66.156  1.00  0.00    -0.102 C  
HETATM   15  C   UNL     2     -10.526  17.581  66.028  1.00  0.00    -0.274 C  
HETATM   16  O   UNL     2      -9.074  19.457  66.617  1.00  0.00    -0.313 OA 
HETATM   17  H   UNL     2      -9.685  20.001  66.133  1.00  0.00     0.000 HD 
HETATM   18  O   UNL     2     -10.899  16.468  66.498  1.00  0.00    -0.200 OA 
HETATM   19  O   UNL     2     -11.262  18.028  65.077  1.00  0.00    -0.527 OA 
ENDBRANCH  11  14
ENDBRANCH   8  11
ENDBRANCH   2   8
TORSDOF 3
ENDMDL
MODEL      370
REMARK 921   NORMALIZED FREE ENERGY PREDICTED BY IDOCK:   -0.59 KCAL/MOL
REMARK 922        TOTAL FREE ENERGY PREDICTED BY IDOCK:   -1.17 KCAL/MOL
REMARK 923 INTER-LIGAND FREE ENERGY PREDICTED BY IDOCK:   -3.02 KCAL/MOL
REMARK 924 INTRA-LIGAND FREE ENERGY PREDICTED BY IDOCK:    1.85 KCAL/MOL
REMARK 927      BINDING AFFINITY PREDICTED BY RF-SCORE:    0.00 PKD
ROOT
HETATM    1 CA   UNL     1      -8.173  12.177  65.559  1.00  0.00    -0.369 Ca 
HETATM    2  C   UNL     2     -11.013  12.143  68.541  1.00  0.00    -0.238 C  
HETATM    3  H   UNL     2     -12.916  11.673  68.189  1.00  0.00     0.000 HD 
HETATM    4  C   UNL     2      -9.647  11.595  68.109  1.00  0.00    -0.190 C  
HETATM    5  O   UNL     2     -12.070  11.334  67.922  1.00  0.00    -0.634 OA 
HETATM    6  O   UNL     2      -8.713  11.557  68.932  1.00  0.00    -0.090 OA 
HETATM    7  O   UNL     2      -9.517  11.280  66.865  1.00  0.00    -0.173 OA 
ENDROOT
BRANCH   2   8
HETATM    8  C   UNL     2     -11.271  13.584  68.072  1.00  0.00    -0.271 C  
HETATM    9  H   UNL     2     -12.581  14.964  68.539  1.00  0.00     0.000 HD 
HETATM   10  O   UNL     2     -12.422  14.073  68.828  1.00  0.00    -0.173 OA 
BRANCH   8  11
HETATM   11  C   UNL     2     -10.163  14.668  68.227  1.00  0.00    -0.227 C  
HETATM   12  H   UNL     2      -8.958  15.581  66.998  1.00  0.00     0.000 HD 
HETATM   13  O   UNL     2      -9.634  14.919  66.904  1.00  0.00    -0.228 OA 
BRANCH  11  14
HETATM   14  C   UNL     2      -8.993  14.412  69.187  1.00  0.00     0.099 C  
HETATM   15  C   UNL     2      -7.601  14.281  68.574  1.00  0.00    -0.127 C  
HETATM   16  O   UNL     2      -8.979  15.355  70.284  1.00  0.00    -0.116 OA 
HETATM   17  H   UNL     2      -8.254  15.197  70.878  1.00  0.00     0.000 HD 
HETATM   18  O   UNL     2      -7.401  14.334  67.326  1.00  0.00    -0.170 OA 
HETATM   19  O   UNL     2      -6.683  13.673  69.233  1.00  0.00    -0.111 OA 
ENDBRANCH  11  14
ENDBRANCH   8  11
ENDBRANCH   2   8
TORSDOF 3
ENDMDL
MODEL      371
REMARK 921   NORMALIZED FREE ENERGY PREDICTED BY IDOCK:    9.15 KCAL/MOL
REMARK 922        TOTAL FREE ENERGY PREDICTED BY IDOCK:   10.29 KCAL/MOL
REMARK 923 INTER-LIGAND FREE ENERGY PREDICTED BY IDOCK:    9.54 KCAL/MOL
REMARK 924 INTRA-LIGAND FREE ENERGY PREDICTED BY IDOCK:    0.74 KCAL/MOL
REMARK 927      BINDING AFFINITY PREDICTED BY RF-SCORE:    0.00 PKD
ROOT
HETATM    1 CA   UNL     1      -7.990  17.228  72.446  1.00  0.00     7.717 Ca 
HETATM    2  C   UNL     2      -6.687  19.653  69.383  1.00  0.00    -0.354 C  
HETATM    3  H   UNL     2      -7.938  20.446  68.051  1.00  0.00     0.000 HD 
HETATM    4  C   UNL     2      -6.684  19.449  70.903  1.00  0.00     0.696 C  
HETATM    5  O   UNL     2      -7.935  20.319  68.993  1.00  0.00     0.150 OA 
HETATM    6  O   UNL     2      -5.626  19.606  71.542  1.00  0.00    -0.309 OA 
HETATM    7  O   UNL     2      -7.784  19.031  71.433  1.00  0.00     3.642 OA 
ENDROOT
BRANCH   2   8
HETATM    8  C   UNL     2      -6.656  18.338  68.589  1.00  0.00    -0.230 C  
HETATM    9  H   UNL     2      -5.387  16.853  68.445  1.00  0.00     0.000 HD 
HETATM   10  O   UNL     2      -5.406  17.666  68.936  1.00  0.00    -0.153 OA 
BRANCH   8  11
HETATM   11  C   UNL     2      -7.782  17.278  68.782  1.00  0.00    -0.261 C  
HETATM   12  H   UNL     2      -7.821  15.341  68.974  1.00  0.00     0.000 HD 
HETATM   13  O   UNL     2      -7.135  15.987  68.856  1.00  0.00    -0.135 OA 
BRANCH  11  14
HETATM   14  C   UNL     2      -8.923  17.203  67.758  1.00  0.00    -0.226 C  
HETATM   15  C   UNL     2      -9.246  15.831  67.171  1.00  0.00    -0.210 C  
HETATM   16  O   UNL     2     -10.126  17.845  68.241  1.00  0.00    -0.332 OA 
HETATM   17  H   UNL     2     -10.832  17.798  67.607  1.00  0.00     0.000 HD 
HETATM   18  O   UNL     2      -8.587  14.793  67.468  1.00  0.00    -0.166 OA 
HETATM   19  O   UNL     2      -9.868  15.762  66.052  1.00  0.00    -0.287 OA 
ENDBRANCH  11  14
ENDBRANCH   8  11
ENDBRANCH   2   8
TORSDOF 3
ENDMDL
MODEL      372
REMARK 921   NORMALIZED FREE ENERGY PREDICTED BY IDOCK:   15.99 KCAL/MOL
REMARK 922        TOTAL FREE ENERGY PREDICTED BY IDOCK:   18.32 KCAL/MOL
REMARK 923 INTER-LIGAND FREE ENERGY PREDICTED BY IDOCK:   13.07 KCAL/MOL
REMARK 924 INTRA-LIGAND FREE ENERGY PREDICTED BY IDOCK:    5.25 KCAL/MOL
REMARK 927      BINDING AFFINITY PREDICTED BY RF-SCORE:    0.00 PKD
ROOT
HETATM    1 CA   UNL     1      -7.380  20.327  65.254  1.00  0.00    -0.275 Ca 
HETATM    2  C   UNL     2      -6.205  19.052  68.990  1.00  0.00    -0.253 C  
HETATM    3  H   UNL     2      -5.844  17.136  69.393  1.00  0.00     0.000 HD 
HETATM    4  C   UNL     2      -5.883  20.013  67.839  1.00  0.00    -0.204 C  
HETATM    5  O   UNL     2      -5.645  17.731  68.680  1.00  0.00    -0.157 OA 
HETATM    6  O   UNL     2      -5.575  21.194  68.091  1.00  0.00    -0.303 OA 
HETATM    7  O   UNL     2      -6.040  19.556  66.642  1.00  0.00    -0.167 OA 
ENDROOT
BRANCH   2   8
HETATM    8  C   UNL     2      -7.710  18.824  69.194  1.00  0.00    -0.109 C  
HETATM    9  H   UNL     2      -9.052  17.681  68.340  1.00  0.00     0.000 HD 
HETATM   10  O   UNL     2      -8.122  17.822  68.213  1.00  0.00    -0.264 OA 
BRANCH   8  11
HETATM   11  C   UNL     2      -8.249  18.326  70.569  1.00  0.00     3.856 C  
HETATM   12  H   UNL     2      -9.952  18.459  71.503  1.00  0.00     0.000 HD 
HETATM   13  O   UNL     2      -9.624  18.763  70.665  1.00  0.00     1.986 OA 
BRANCH  11  14
HETATM   14  C   UNL     2      -7.510  18.729  71.853  1.00  0.00     5.967 C  
HETATM   15  C   UNL     2      -6.033  19.092  71.726  1.00  0.00     0.441 C  
HETATM   16  O   UNL     2      -8.223  19.753  72.586  1.00  0.00     2.256 OA 
HETATM   17  H   UNL     2      -7.766  20.003  73.381  1.00  0.00     0.000 HD 
HETATM   18  O   UNL     2      -5.410  19.026  70.627  1.00  0.00    -0.211 OA 
HETATM   19  O   UNL     2      -5.283  19.029  72.765  1.00  0.00     0.511 OA 
ENDBRANCH  11  14
ENDBRANCH   8  11
ENDBRANCH   2   8
TORSDOF 3
ENDMDL
