MODEL        1
REMARK 921   NORMALIZED FREE ENERGY PREDICTED BY IDOCK:   -5.54 KCAL/MOL
REMARK 922        TOTAL FREE ENERGY PREDICTED BY IDOCK:   -8.02 KCAL/MOL
REMARK 923 INTER-LIGAND FREE ENERGY PREDICTED BY IDOCK:   -6.84 KCAL/MOL
REMARK 924 INTRA-LIGAND FREE ENERGY PREDICTED BY IDOCK:   -1.18 KCAL/MOL
REMARK 927      BINDING AFFINITY PREDICTED BY RF-SCORE:    0.00 PKD
ROOT
HETATM    1 CA   UNL     1     -11.037  16.323  63.539  1.00  0.00    -0.658 Ca 
HETATM    2  O   UNL     2     -12.410  13.878  63.378  1.00  0.00    -1.063 OA 
HETATM    3  O   UNL     3      -8.436  19.230  66.316  1.00  0.00    -0.318 OA 
HETATM    4  C   UNL     2     -11.718  13.007  64.332  1.00  0.00    -0.373 C  
HETATM    5  H   UNL     2     -12.853  13.274  62.795  1.00  0.00     0.000 HD 
HETATM    6  H   UNL     3      -7.619  19.710  66.254  1.00  0.00     0.000 HD 
HETATM    7  C   UNL     3      -8.220  17.825  66.321  1.00  0.00    -0.217 C  
ENDROOT
BRANCH   4   8
HETATM    8  C   UNL     2     -11.010  13.971  65.263  1.00  0.00    -0.334 C  
HETATM    9  H   UNL     2      -9.537  15.233  65.048  1.00  0.00     0.000 HD 
HETATM   10  O   UNL     2      -9.981  14.629  64.465  1.00  0.00    -0.082 OA 
BRANCH   8  11
HETATM   11  C   UNL     2     -10.526  13.427  66.588  1.00  0.00    -0.280 C  
HETATM   12  O   UNL     2     -11.020  13.700  68.898  1.00  0.00    -0.245 OA 
HETATM   13  H   UNL     2      -8.845  13.496  67.569  1.00  0.00     0.000 HD 
HETATM   14  O   UNL     2     -12.641  14.130  67.320  1.00  0.00    -0.110 OA 
HETATM   15  O   UNL     2      -9.148  13.839  66.737  1.00  0.00    -0.247 OA 
HETATM   16  C   UNL     2     -11.467  13.830  67.740  1.00  0.00    -0.322 C  
ENDBRANCH   8  11
ENDBRANCH   4   8
BRANCH   7  17
HETATM   17  C   UNL     3      -9.543  17.047  66.422  1.00  0.00    -0.282 C  
HETATM   18  O   UNL     3     -10.445  17.457  65.326  1.00  0.00    -0.654 OA 
HETATM   19  H   UNL     3     -11.262  16.977  65.388  1.00  0.00     0.000 HD 
BRANCH  17  20
HETATM   20  C   UNL     3     -10.237  17.055  67.791  1.00  0.00    -0.312 C  
HETATM   21  C   UNL     3     -10.483  18.539  68.163  1.00  0.00    -0.325 C  
HETATM   22  O   UNL     3      -9.401  16.320  68.730  1.00  0.00    -0.215 OA 
HETATM   23  O   UNL     3     -11.116  19.153  67.227  1.00  0.00    -0.417 OA 
HETATM   24  O   UNL     3      -9.966  18.994  69.203  1.00  0.00    -0.385 OA 
HETATM   25  H   UNL     3      -9.830  16.325  69.578  1.00  0.00     0.000 HD 
ENDBRANCH  17  20
ENDBRANCH   7  17
TORSDOF 4
ENDMDL
MODEL        2
REMARK 921   NORMALIZED FREE ENERGY PREDICTED BY IDOCK:   -5.41 KCAL/MOL
REMARK 922        TOTAL FREE ENERGY PREDICTED BY IDOCK:   -7.85 KCAL/MOL
REMARK 923 INTER-LIGAND FREE ENERGY PREDICTED BY IDOCK:   -6.65 KCAL/MOL
REMARK 924 INTRA-LIGAND FREE ENERGY PREDICTED BY IDOCK:   -1.21 KCAL/MOL
REMARK 927      BINDING AFFINITY PREDICTED BY RF-SCORE:    0.00 PKD
ROOT
HETATM    1 CA   UNL     1     -10.264  14.369  70.336  1.00  0.00    -0.418 Ca 
HETATM    2  O   UNL     2     -10.935  11.675  69.917  1.00  0.00    -0.469 OA 
HETATM    3  O   UNL     3      -9.559  18.641  68.291  1.00  0.00    -0.315 OA 
HETATM    4  C   UNL     2     -11.784  11.691  68.723  1.00  0.00    -0.330 C  
HETATM    5  H   UNL     2     -11.153  10.854  70.343  1.00  0.00     0.000 HD 
HETATM    6  H   UNL     3      -9.839  19.537  68.429  1.00  0.00     0.000 HD 
HETATM    7  C   UNL     3     -10.640  17.807  67.893  1.00  0.00    -0.382 C  
ENDROOT
BRANCH   4   8
HETATM    8  C   UNL     2     -11.437  13.001  68.044  1.00  0.00    -0.309 C  
HETATM    9  H   UNL     2     -11.865  14.871  68.402  1.00  0.00     0.000 HD 
HETATM   10  O   UNL     2     -12.082  14.050  68.827  1.00  0.00    -0.349 OA 
BRANCH   8  11
HETATM   11  C   UNL     2     -11.673  13.094  66.553  1.00  0.00    -0.382 C  
HETATM   12  O   UNL     2     -10.381  13.310  64.569  1.00  0.00    -0.397 OA 
HETATM   13  H   UNL     2     -12.561  14.372  65.381  1.00  0.00     0.000 HD 
HETATM   14  O   UNL     2      -9.447  12.361  66.448  1.00  0.00    -0.237 OA 
HETATM   15  O   UNL     2     -12.413  14.314  66.317  1.00  0.00    -0.445 OA 
HETATM   16  C   UNL     2     -10.357  12.954  65.765  1.00  0.00    -0.284 C  
ENDBRANCH   8  11
ENDBRANCH   4   8
BRANCH   7  17
HETATM   17  C   UNL     3     -10.185  16.355  67.669  1.00  0.00    -0.272 C  
HETATM   18  O   UNL     3      -9.513  15.851  68.885  1.00  0.00    -0.207 OA 
HETATM   19  H   UNL     3      -9.232  14.955  68.747  1.00  0.00     0.000 HD 
BRANCH  17  20
HETATM   20  C   UNL     3      -9.378  16.082  66.393  1.00  0.00    -0.298 C  
HETATM   21  C   UNL     3      -8.090  16.940  66.482  1.00  0.00    -0.291 C  
HETATM   22  O   UNL     3     -10.227  16.372  65.245  1.00  0.00    -0.575 OA 
HETATM   23  O   UNL     3      -7.462  16.721  67.582  1.00  0.00    -0.146 OA 
HETATM   24  O   UNL     3      -7.873  17.794  65.599  1.00  0.00    -0.538 OA 
HETATM   25  H   UNL     3      -9.727  16.202  64.454  1.00  0.00     0.000 HD 
ENDBRANCH  17  20
ENDBRANCH   7  17
TORSDOF 4
ENDMDL
MODEL        3
REMARK 921   NORMALIZED FREE ENERGY PREDICTED BY IDOCK:   -5.38 KCAL/MOL
REMARK 922        TOTAL FREE ENERGY PREDICTED BY IDOCK:   -7.82 KCAL/MOL
REMARK 923 INTER-LIGAND FREE ENERGY PREDICTED BY IDOCK:   -7.66 KCAL/MOL
REMARK 924 INTRA-LIGAND FREE ENERGY PREDICTED BY IDOCK:   -0.16 KCAL/MOL
REMARK 927      BINDING AFFINITY PREDICTED BY RF-SCORE:    0.00 PKD
ROOT
HETATM    1 CA   UNL     1     -11.998  12.887  68.145  1.00  0.00    -0.249 Ca 
HETATM    2  O   UNL     2     -12.365  15.604  68.754  1.00  0.00    -0.570 OA 
HETATM    3  O   UNL     3     -10.211   9.735  65.014  1.00  0.00    -0.321 OA 
HETATM    4  C   UNL     2     -11.238  16.280  68.106  1.00  0.00    -0.298 C  
HETATM    5  H   UNL     2     -12.650  16.219  69.419  1.00  0.00     0.000 HD 
HETATM    6  H   UNL     3      -9.658   8.963  65.037  1.00  0.00     0.000 HD 
HETATM    7  C   UNL     3      -9.490  10.909  65.366  1.00  0.00    -0.214 C  
ENDROOT
BRANCH   4   8
HETATM    8  C   UNL     2     -10.784  15.299  67.043  1.00  0.00    -0.313 C  
HETATM    9  H   UNL     2      -9.951  13.535  67.089  1.00  0.00     0.000 HD 
HETATM   10  O   UNL     2     -10.235  14.149  67.755  1.00  0.00    -0.237 OA 
BRANCH   8  11
HETATM   11  C   UNL     2      -9.901  15.833  65.937  1.00  0.00    -0.349 C  
HETATM   12  O   UNL     2      -8.207  17.478  65.666  1.00  0.00    -0.505 OA 
HETATM   13  H   UNL     2     -10.219  16.767  64.258  1.00  0.00     0.000 HD 
HETATM   14  O   UNL     2      -8.565  16.531  67.734  1.00  0.00    -0.175 OA 
HETATM   15  O   UNL     2     -10.774  16.432  64.952  1.00  0.00    -0.675 OA 
HETATM   16  C   UNL     2      -8.797  16.752  66.492  1.00  0.00    -0.277 C  
ENDBRANCH   8  11
ENDBRANCH   4   8
BRANCH   7  17
HETATM   17  C   UNL     3     -10.385  12.158  65.328  1.00  0.00    -0.277 C  
HETATM   18  O   UNL     3     -11.550  11.963  66.217  1.00  0.00    -0.445 OA 
HETATM   19  H   UNL     3     -12.103  12.735  66.194  1.00  0.00     0.000 HD 
BRANCH  17  20
HETATM   20  C   UNL     3     -10.784  12.671  63.937  1.00  0.00    -0.431 C  
HETATM   21  C   UNL     3     -12.322  12.863  63.953  1.00  0.00    -0.396 C  
HETATM   22  O   UNL     3     -10.296  11.725  62.944  1.00  0.00    -0.641 OA 
HETATM   23  O   UNL     3     -12.687  13.608  64.934  1.00  0.00    -0.629 OA 
HETATM   24  O   UNL     3     -13.018  12.216  63.145  1.00  0.00    -0.659 OA 
HETATM   25  H   UNL     3     -10.543  12.042  62.083  1.00  0.00     0.000 HD 
ENDBRANCH  17  20
ENDBRANCH   7  17
TORSDOF 4
ENDMDL
MODEL        4
REMARK 921   NORMALIZED FREE ENERGY PREDICTED BY IDOCK:   -5.37 KCAL/MOL
REMARK 922        TOTAL FREE ENERGY PREDICTED BY IDOCK:   -7.80 KCAL/MOL
REMARK 923 INTER-LIGAND FREE ENERGY PREDICTED BY IDOCK:   -6.67 KCAL/MOL
REMARK 924 INTRA-LIGAND FREE ENERGY PREDICTED BY IDOCK:   -1.13 KCAL/MOL
REMARK 927      BINDING AFFINITY PREDICTED BY RF-SCORE:    0.00 PKD
ROOT
HETATM    1 CA   UNL     1     -11.208  17.415  68.136  1.00  0.00    -0.346 Ca 
HETATM    2  O   UNL     2     -10.661  16.514  65.533  1.00  0.00    -0.436 OA 
HETATM    3  O   UNL     3     -12.131  16.140  72.658  1.00  0.00    -0.485 OA 
HETATM    4  C   UNL     2     -10.002  15.219  65.726  1.00  0.00    -0.360 C  
HETATM    5  H   UNL     2     -10.398  16.778  64.660  1.00  0.00     0.000 HD 
HETATM    6  H   UNL     3     -11.815  16.362  73.526  1.00  0.00     0.000 HD 
HETATM    7  C   UNL     3     -11.139  15.467  71.894  1.00  0.00    -0.160 C  
ENDROOT
BRANCH   4   8
HETATM    8  C   UNL     2     -10.422  14.798  67.120  1.00  0.00    -0.265 C  
HETATM    9  H   UNL     2      -9.931  15.374  68.918  1.00  0.00     0.000 HD 
HETATM   10  O   UNL     2      -9.669  15.638  68.045  1.00  0.00    -0.204 OA 
BRANCH   8  11
HETATM   11  C   UNL     2     -10.383  13.320  67.440  1.00  0.00    -0.243 C  
HETATM   12  O   UNL     2     -11.928  11.547  67.794  1.00  0.00    -0.623 OA 
HETATM   13  H   UNL     2      -9.760  12.258  68.949  1.00  0.00     0.000 HD 
HETATM   14  O   UNL     2     -12.535  13.357  66.507  1.00  0.00    -0.331 OA 
HETATM   15  O   UNL     2      -9.784  13.186  68.748  1.00  0.00    -0.103 OA 
HETATM   16  C   UNL     2     -11.772  12.672  67.276  1.00  0.00    -0.370 C  
ENDBRANCH   8  11
ENDBRANCH   4   8
BRANCH   7  17
HETATM   17  C   UNL     3     -11.650  15.107  70.490  1.00  0.00    -0.300 C  
HETATM   18  O   UNL     3     -12.112  16.329  69.800  1.00  0.00    -0.258 OA 
HETATM   19  H   UNL     3     -12.428  16.107  68.933  1.00  0.00     0.000 HD 
BRANCH  17  20
HETATM   20  C   UNL     3     -12.669  13.962  70.407  1.00  0.00    -0.220 C  
HETATM   21  C   UNL     3     -13.814  14.306  71.393  1.00  0.00    -0.292 C  
HETATM   22  O   UNL     3     -11.976  12.712  70.688  1.00  0.00    -0.510 OA 
HETATM   23  O   UNL     3     -14.290  15.477  71.161  1.00  0.00    -0.516 OA 
HETATM   24  O   UNL     3     -14.057  13.521  72.332  1.00  0.00    -0.649 OA 
HETATM   25  H   UNL     3     -12.606  12.003  70.636  1.00  0.00     0.000 HD 
ENDBRANCH  17  20
ENDBRANCH   7  17
TORSDOF 4
ENDMDL
MODEL        5
REMARK 921   NORMALIZED FREE ENERGY PREDICTED BY IDOCK:   -5.20 KCAL/MOL
REMARK 922        TOTAL FREE ENERGY PREDICTED BY IDOCK:   -7.60 KCAL/MOL
REMARK 923 INTER-LIGAND FREE ENERGY PREDICTED BY IDOCK:   -6.38 KCAL/MOL
REMARK 924 INTRA-LIGAND FREE ENERGY PREDICTED BY IDOCK:   -1.21 KCAL/MOL
REMARK 927      BINDING AFFINITY PREDICTED BY RF-SCORE:    0.00 PKD
ROOT
HETATM    1 CA   UNL     1      -7.552  12.769  66.098  1.00  0.00    -0.351 Ca 
HETATM    2  O   UNL     2      -8.605  10.815  64.378  1.00  0.00    -0.306 OA 
HETATM    3  O   UNL     3      -8.543  16.475  68.963  1.00  0.00    -0.246 OA 
HETATM    4  C   UNL     2      -9.963  10.582  64.878  1.00  0.00    -0.334 C  
HETATM    5  H   UNL     2      -8.406  10.032  63.879  1.00  0.00     0.000 HD 
HETATM    6  H   UNL     3      -8.330  16.753  69.846  1.00  0.00     0.000 HD 
HETATM    7  C   UNL     3      -9.359  15.311  68.961  1.00  0.00    -0.231 C  
ENDROOT
BRANCH   4   8
HETATM    8  C   UNL     2     -10.280  11.831  65.675  1.00  0.00    -0.246 C  
HETATM    9  H   UNL     2      -9.724  12.508  67.419  1.00  0.00     0.000 HD 
HETATM   10  O   UNL     2      -9.525  11.725  66.919  1.00  0.00    -0.185 OA 
BRANCH   8  11
HETATM   11  C   UNL     2     -11.739  12.189  65.854  1.00  0.00    -0.328 C  
HETATM   12  O   UNL     2     -13.239  13.895  65.151  1.00  0.00    -0.768 OA 
HETATM   13  H   UNL     2     -12.855  12.684  67.371  1.00  0.00     0.000 HD 
HETATM   14  O   UNL     2     -11.382  13.406  63.880  1.00  0.00    -0.364 OA 
HETATM   15  O   UNL     2     -11.939  12.460  67.259  1.00  0.00    -0.516 OA 
HETATM   16  C   UNL     2     -12.163  13.317  64.894  1.00  0.00    -0.420 C  
ENDBRANCH   8  11
ENDBRANCH   4   8
BRANCH   7  17
HETATM   17  C   UNL     3      -9.704  14.861  67.532  1.00  0.00    -0.212 C  
HETATM   18  O   UNL     3      -8.461  14.688  66.752  1.00  0.00    -0.353 OA 
HETATM   19  H   UNL     3      -8.674  14.410  65.869  1.00  0.00     0.000 HD 
BRANCH  17  20
HETATM   20  C   UNL     3     -10.756  15.695  66.789  1.00  0.00    -0.300 C  
HETATM   21  C   UNL     3     -10.194  17.136  66.680  1.00  0.00    -0.319 C  
HETATM   22  O   UNL     3     -12.018  15.584  67.507  1.00  0.00    -0.178 OA 
HETATM   23  O   UNL     3      -9.023  17.138  66.151  1.00  0.00    -0.415 OA 
HETATM   24  O   UNL     3     -10.834  18.072  67.200  1.00  0.00    -0.312 OA 
HETATM   25  H   UNL     3     -12.670  16.100  67.048  1.00  0.00     0.000 HD 
ENDBRANCH  17  20
ENDBRANCH   7  17
TORSDOF 4
ENDMDL
MODEL        6
REMARK 921   NORMALIZED FREE ENERGY PREDICTED BY IDOCK:   -5.15 KCAL/MOL
REMARK 922        TOTAL FREE ENERGY PREDICTED BY IDOCK:   -7.53 KCAL/MOL
REMARK 923 INTER-LIGAND FREE ENERGY PREDICTED BY IDOCK:   -7.50 KCAL/MOL
REMARK 924 INTRA-LIGAND FREE ENERGY PREDICTED BY IDOCK:   -0.03 KCAL/MOL
REMARK 927      BINDING AFFINITY PREDICTED BY RF-SCORE:    0.00 PKD
ROOT
HETATM    1 CA   UNL     1     -11.100  16.040  63.473  1.00  0.00    -0.667 Ca 
HETATM    2  O   UNL     2     -12.751  13.769  63.513  1.00  0.00    -0.774 OA 
HETATM    3  O   UNL     3      -8.306  18.953  66.050  1.00  0.00    -0.460 OA 
HETATM    4  C   UNL     2     -12.219  12.950  64.605  1.00  0.00    -0.435 C  
HETATM    5  H   UNL     2     -13.235  13.152  62.977  1.00  0.00     0.000 HD 
HETATM    6  H   UNL     3      -7.435  19.325  65.984  1.00  0.00     0.000 HD 
HETATM    7  C   UNL     3      -8.264  17.544  66.233  1.00  0.00    -0.240 C  
ENDROOT
BRANCH   4   8
HETATM    8  C   UNL     2     -11.446  13.934  65.459  1.00  0.00    -0.316 C  
HETATM    9  H   UNL     2      -9.706  14.802  65.295  1.00  0.00     0.000 HD 
HETATM   10  O   UNL     2     -10.190  14.185  64.760  1.00  0.00    -0.419 OA 
BRANCH   8  11
HETATM   11  C   UNL     2     -11.293  13.608  66.928  1.00  0.00    -0.327 C  
HETATM   12  O   UNL     2     -11.334  11.684  68.325  1.00  0.00    -0.237 OA 
HETATM   13  H   UNL     2     -12.291  14.046  68.543  1.00  0.00     0.000 HD 
HETATM   14  O   UNL     2     -10.768  11.476  66.103  1.00  0.00    -0.259 OA 
HETATM   15  O   UNL     2     -12.387  14.251  67.620  1.00  0.00    -0.265 OA 
HETATM   16  C   UNL     2     -11.164  12.090  67.157  1.00  0.00    -0.316 C  
ENDBRANCH   8  11
ENDBRANCH   4   8
BRANCH   7  17
HETATM   17  C   UNL     3      -9.674  16.942  66.340  1.00  0.00    -0.284 C  
HETATM   18  O   UNL     3     -10.468  17.321  65.152  1.00  0.00    -0.656 OA 
HETATM   19  H   UNL     3     -11.339  16.949  65.218  1.00  0.00     0.000 HD 
BRANCH  17  20
HETATM   20  C   UNL     3     -10.426  17.191  67.655  1.00  0.00    -0.355 C  
HETATM   21  C   UNL     3     -10.437  18.724  67.883  1.00  0.00    -0.389 C  
HETATM   22  O   UNL     3      -9.775  16.422  68.706  1.00  0.00    -0.230 OA 
HETATM   23  O   UNL     3     -10.909  19.342  66.860  1.00  0.00    -0.460 OA 
HETATM   24  O   UNL     3      -9.904  19.184  68.913  1.00  0.00    -0.409 OA 
HETATM   25  H   UNL     3     -10.239  16.576  69.520  1.00  0.00     0.000 HD 
ENDBRANCH  17  20
ENDBRANCH   7  17
TORSDOF 4
ENDMDL
MODEL        7
REMARK 921   NORMALIZED FREE ENERGY PREDICTED BY IDOCK:   -5.12 KCAL/MOL
REMARK 922        TOTAL FREE ENERGY PREDICTED BY IDOCK:   -7.50 KCAL/MOL
REMARK 923 INTER-LIGAND FREE ENERGY PREDICTED BY IDOCK:   -7.35 KCAL/MOL
REMARK 924 INTRA-LIGAND FREE ENERGY PREDICTED BY IDOCK:   -0.14 KCAL/MOL
REMARK 927      BINDING AFFINITY PREDICTED BY RF-SCORE:    0.00 PKD
ROOT
HETATM    1 CA   UNL     1      -8.688  12.034  64.397  1.00  0.00    -0.380 Ca 
HETATM    2  O   UNL     2      -7.408  10.374  66.266  1.00  0.00    -0.114 OA 
HETATM    3  O   UNL     3     -12.062  15.361  63.710  1.00  0.00    -0.975 OA 
HETATM    4  C   UNL     2      -7.519  11.098  67.535  1.00  0.00    -0.104 C  
HETATM    5  H   UNL     2      -6.683   9.777  66.405  1.00  0.00     0.000 HD 
HETATM    6  H   UNL     3     -12.132  16.210  63.289  1.00  0.00     0.000 HD 
HETATM    7  C   UNL     3     -11.206  15.408  64.845  1.00  0.00    -0.403 C  
ENDROOT
BRANCH   4   8
HETATM    8  C   UNL     2      -8.676  12.052  67.313  1.00  0.00    -0.175 C  
HETATM    9  H   UNL     2      -8.810  13.966  66.960  1.00  0.00     0.000 HD 
HETATM   10  O   UNL     2      -8.085  13.369  67.100  1.00  0.00    -0.163 OA 
BRANCH   8  11
HETATM   11  C   UNL     2      -9.802  12.024  68.322  1.00  0.00    -0.204 C  
HETATM   12  O   UNL     2     -12.039  11.230  68.453  1.00  0.00    -0.598 OA 
HETATM   13  H   UNL     2     -10.881  13.380  69.212  1.00  0.00     0.000 HD 
HETATM   14  O   UNL     2     -10.552  10.235  67.004  1.00  0.00    -0.248 OA 
HETATM   15  O   UNL     2     -10.175  13.398  68.578  1.00  0.00    -0.237 OA 
HETATM   16  C   UNL     2     -10.947  11.101  67.863  1.00  0.00    -0.253 C  
ENDBRANCH   8  11
ENDBRANCH   4   8
BRANCH   7  17
HETATM   17  C   UNL     3     -11.093  14.035  65.527  1.00  0.00    -0.309 C  
HETATM   18  O   UNL     3      -9.884  13.337  65.042  1.00  0.00    -0.534 OA 
HETATM   19  H   UNL     3      -9.813  12.489  65.464  1.00  0.00     0.000 HD 
BRANCH  17  20
HETATM   20  C   UNL     3     -12.343  13.146  65.486  1.00  0.00    -0.474 C  
HETATM   21  C   UNL     3     -12.242  12.286  64.201  1.00  0.00    -0.446 C  
HETATM   22  O   UNL     3     -13.517  14.006  65.555  1.00  0.00    -0.705 OA 
HETATM   23  O   UNL     3     -11.123  11.656  64.152  1.00  0.00    -0.343 OA 
HETATM   24  O   UNL     3     -13.138  12.384  63.338  1.00  0.00    -0.689 OA 
HETATM   25  H   UNL     3     -14.292  13.456  65.530  1.00  0.00     0.000 HD 
ENDBRANCH  17  20
ENDBRANCH   7  17
TORSDOF 4
ENDMDL
MODEL        8
REMARK 921   NORMALIZED FREE ENERGY PREDICTED BY IDOCK:   -5.09 KCAL/MOL
REMARK 922        TOTAL FREE ENERGY PREDICTED BY IDOCK:   -7.46 KCAL/MOL
REMARK 923 INTER-LIGAND FREE ENERGY PREDICTED BY IDOCK:   -6.25 KCAL/MOL
REMARK 924 INTRA-LIGAND FREE ENERGY PREDICTED BY IDOCK:   -1.21 KCAL/MOL
REMARK 927      BINDING AFFINITY PREDICTED BY RF-SCORE:    0.00 PKD
ROOT
HETATM    1 CA   UNL     1     -11.271  17.384  70.674  1.00  0.00    -0.554 Ca 
HETATM    2  O   UNL     2     -11.577  14.701  71.446  1.00  0.00    -0.472 OA 
HETATM    3  O   UNL     3     -10.037  20.374  67.143  1.00  0.00    -0.432 OA 
HETATM    4  C   UNL     2     -11.881  13.994  70.199  1.00  0.00    -0.306 C  
HETATM    5  H   UNL     2     -11.902  14.121  72.124  1.00  0.00     0.000 HD 
HETATM    6  H   UNL     3     -10.396  21.146  66.723  1.00  0.00     0.000 HD 
HETATM    7  C   UNL     3     -10.826  19.219  66.884  1.00  0.00    -0.381 C  
ENDROOT
BRANCH   4   8
HETATM    8  C   UNL     2     -11.363  14.920  69.116  1.00  0.00    -0.292 C  
HETATM    9  H   UNL     2     -11.908  16.672  68.452  1.00  0.00     0.000 HD 
HETATM   10  O   UNL     2     -12.232  16.092  69.130  1.00  0.00    -0.221 OA 
BRANCH   8  11
HETATM   11  C   UNL     2     -11.132  14.325  67.745  1.00  0.00    -0.280 C  
HETATM   12  O   UNL     2      -9.297  13.855  66.308  1.00  0.00    -0.245 OA 
HETATM   13  H   UNL     2     -11.634  14.823  65.930  1.00  0.00     0.000 HD 
HETATM   14  O   UNL     2      -8.973  13.960  68.585  1.00  0.00    -0.166 OA 
HETATM   15  O   UNL     2     -11.779  15.197  66.791  1.00  0.00    -0.229 OA 
HETATM   16  C   UNL     2      -9.636  14.057  67.492  1.00  0.00    -0.228 C  
ENDBRANCH   8  11
ENDBRANCH   4   8
BRANCH   7  17
HETATM   17  C   UNL     3     -10.244  17.970  67.564  1.00  0.00    -0.369 C  
HETATM   18  O   UNL     3     -10.070  18.225  69.009  1.00  0.00    -0.379 OA 
HETATM   19  H   UNL     3      -9.710  17.453  69.430  1.00  0.00     0.000 HD 
BRANCH  17  20
HETATM   20  C   UNL     3      -8.992  17.361  66.918  1.00  0.00    -0.245 C  
HETATM   21  C   UNL     3      -7.905  18.467  66.914  1.00  0.00    -0.234 C  
HETATM   22  O   UNL     3      -9.356  16.857  65.601  1.00  0.00    -0.519 OA 
HETATM   23  O   UNL     3      -7.731  18.950  68.091  1.00  0.00    -0.269 OA 
HETATM   24  O   UNL     3      -7.433  18.842  65.822  1.00  0.00    -0.432 OA 
HETATM   25  H   UNL     3      -8.581  16.481  65.201  1.00  0.00     0.000 HD 
ENDBRANCH  17  20
ENDBRANCH   7  17
TORSDOF 4
ENDMDL
MODEL        9
REMARK 921   NORMALIZED FREE ENERGY PREDICTED BY IDOCK:   -5.08 KCAL/MOL
REMARK 922        TOTAL FREE ENERGY PREDICTED BY IDOCK:   -7.45 KCAL/MOL
REMARK 923 INTER-LIGAND FREE ENERGY PREDICTED BY IDOCK:   -7.31 KCAL/MOL
REMARK 924 INTRA-LIGAND FREE ENERGY PREDICTED BY IDOCK:   -0.14 KCAL/MOL
REMARK 927      BINDING AFFINITY PREDICTED BY RF-SCORE:    0.00 PKD
ROOT
HETATM    1 CA   UNL     1      -8.840  14.646  67.318  1.00  0.00    -0.151 Ca 
HETATM    2  O   UNL     2     -10.144  16.372  65.528  1.00  0.00    -0.508 OA 
HETATM    3  O   UNL     3      -9.087  10.518  69.732  1.00  0.00    -0.409 OA 
HETATM    4  C   UNL     2     -10.997  15.491  64.727  1.00  0.00    -0.399 C  
HETATM    5  H   UNL     2     -10.049  17.150  64.992  1.00  0.00     0.000 HD 
HETATM    6  H   UNL     3      -8.537   9.757  69.874  1.00  0.00     0.000 HD 
HETATM    7  C   UNL     3      -9.524  10.605  68.382  1.00  0.00    -0.165 C  
ENDROOT
BRANCH   4   8
HETATM    8  C   UNL     2     -11.148  14.249  65.582  1.00  0.00    -0.316 C  
HETATM    9  H   UNL     2      -9.933  12.829  66.142  1.00  0.00     0.000 HD 
HETATM   10  O   UNL     2      -9.839  13.607  65.606  1.00  0.00    -0.256 OA 
BRANCH   8  11
HETATM   11  C   UNL     2     -12.298  13.320  65.261  1.00  0.00    -0.476 C  
HETATM   12  O   UNL     2     -13.121  12.108  63.389  1.00  0.00    -0.752 OA 
HETATM   13  H   UNL     2     -14.237  13.500  65.221  1.00  0.00     0.000 HD 
HETATM   14  O   UNL     2     -10.886  12.645  63.514  1.00  0.00    -0.429 OA 
HETATM   15  O   UNL     2     -13.515  14.083  65.422  1.00  0.00    -0.679 OA 
HETATM   16  C   UNL     2     -12.113  12.649  63.887  1.00  0.00    -0.487 C  
ENDBRANCH   8  11
ENDBRANCH   4   8
BRANCH   7  17
HETATM   17  C   UNL     3     -10.415  11.837  68.152  1.00  0.00    -0.201 C  
HETATM   18  O   UNL     3      -9.737  13.045  68.669  1.00  0.00    -0.370 OA 
HETATM   19  H   UNL     3     -10.287  13.806  68.527  1.00  0.00     0.000 HD 
BRANCH  17  20
HETATM   20  C   UNL     3     -11.869  11.727  68.630  1.00  0.00    -0.310 C  
HETATM   21  C   UNL     3     -12.136  12.950  69.545  1.00  0.00    -0.214 C  
HETATM   22  O   UNL     3     -12.041  10.433  69.275  1.00  0.00    -0.528 OA 
HETATM   23  O   UNL     3     -11.839  14.049  68.949  1.00  0.00    -0.315 OA 
HETATM   24  O   UNL     3     -12.465  12.753  70.732  1.00  0.00    -0.344 OA 
HETATM   25  H   UNL     3     -12.942  10.364  69.571  1.00  0.00     0.000 HD 
ENDBRANCH  17  20
ENDBRANCH   7  17
TORSDOF 4
ENDMDL
MODEL       10
REMARK 921   NORMALIZED FREE ENERGY PREDICTED BY IDOCK:   -5.08 KCAL/MOL
REMARK 922        TOTAL FREE ENERGY PREDICTED BY IDOCK:   -7.44 KCAL/MOL
REMARK 923 INTER-LIGAND FREE ENERGY PREDICTED BY IDOCK:   -7.44 KCAL/MOL
REMARK 924 INTRA-LIGAND FREE ENERGY PREDICTED BY IDOCK:   -0.00 KCAL/MOL
REMARK 927      BINDING AFFINITY PREDICTED BY RF-SCORE:    0.00 PKD
ROOT
HETATM    1 CA   UNL     1     -11.722  15.854  69.262  1.00  0.00    -0.256 Ca 
HETATM    2  O   UNL     2     -10.631  18.435  69.439  1.00  0.00    -0.298 OA 
HETATM    3  O   UNL     3     -12.025  11.851  66.651  1.00  0.00    -0.601 OA 
HETATM    4  C   UNL     2      -9.378  18.356  68.683  1.00  0.00    -0.318 C  
HETATM    5  H   UNL     2     -10.512  19.191  70.002  1.00  0.00     0.000 HD 
HETATM    6  H   UNL     3     -11.931  10.916  66.791  1.00  0.00     0.000 HD 
HETATM    7  C   UNL     3     -10.787  12.533  66.808  1.00  0.00    -0.249 C  
ENDROOT
BRANCH   4   8
HETATM    8  C   UNL     2      -9.568  17.150  67.784  1.00  0.00    -0.256 C  
HETATM    9  H   UNL     2      -9.218  15.241  67.980  1.00  0.00     0.000 HD 
HETATM   10  O   UNL     2      -9.098  15.996  68.544  1.00  0.00    -0.189 OA 
BRANCH   8  11
HETATM   11  C   UNL     2      -9.023  17.240  66.377  1.00  0.00    -0.252 C  
HETATM   12  O   UNL     2      -7.192  18.260  65.252  1.00  0.00    -0.494 OA 
HETATM   13  H   UNL     2      -9.673  17.983  64.698  1.00  0.00     0.000 HD 
HETATM   14  O   UNL     2      -7.026  17.758  67.493  1.00  0.00    -0.173 OA 
HETATM   15  O   UNL     2     -10.016  17.927  65.582  1.00  0.00    -0.539 OA 
HETATM   16  C   UNL     2      -7.613  17.862  66.358  1.00  0.00    -0.273 C  
ENDBRANCH   8  11
ENDBRANCH   4   8
BRANCH   7  17
HETATM   17  C   UNL     3     -10.939  14.046  66.582  1.00  0.00    -0.300 C  
HETATM   18  O   UNL     3     -12.042  14.565  67.417  1.00  0.00    -0.538 OA 
HETATM   19  H   UNL     3     -12.136  15.500  67.278  1.00  0.00     0.000 HD 
BRANCH  17  20
HETATM   20  C   UNL     3     -11.035  14.512  65.122  1.00  0.00    -0.379 C  
HETATM   21  C   UNL     3     -12.343  13.915  64.544  1.00  0.00    -0.372 C  
HETATM   22  O   UNL     3      -9.820  14.104  64.432  1.00  0.00    -0.623 OA 
HETATM   23  O   UNL     3     -13.354  14.214  65.279  1.00  0.00    -0.715 OA 
HETATM   24  O   UNL     3     -12.273  13.149  63.562  1.00  0.00    -0.615 OA 
HETATM   25  H   UNL     3      -9.878  14.393  63.528  1.00  0.00     0.000 HD 
ENDBRANCH  17  20
ENDBRANCH   7  17
TORSDOF 4
ENDMDL
MODEL       11
REMARK 921   NORMALIZED FREE ENERGY PREDICTED BY IDOCK:   -5.05 KCAL/MOL
REMARK 922        TOTAL FREE ENERGY PREDICTED BY IDOCK:   -7.40 KCAL/MOL
REMARK 923 INTER-LIGAND FREE ENERGY PREDICTED BY IDOCK:   -6.25 KCAL/MOL
REMARK 924 INTRA-LIGAND FREE ENERGY PREDICTED BY IDOCK:   -1.16 KCAL/MOL
REMARK 927      BINDING AFFINITY PREDICTED BY RF-SCORE:    0.00 PKD
ROOT
HETATM    1 CA   UNL     1      -7.589  16.242  65.634  1.00  0.00    -0.174 Ca 
HETATM    2  O   UNL     2      -6.601  17.758  67.781  1.00  0.00    -0.181 OA 
HETATM    3  O   UNL     3     -11.230  13.601  63.992  1.00  0.00    -0.565 OA 
HETATM    4  C   UNL     2      -7.800  18.273  68.447  1.00  0.00    -0.305 C  
HETATM    5  H   UNL     2      -5.911  18.346  68.064  1.00  0.00     0.000 HD 
HETATM    6  H   UNL     3     -11.761  13.553  63.206  1.00  0.00     0.000 HD 
HETATM    7  C   UNL     3     -11.463  14.806  64.710  1.00  0.00    -0.410 C  
ENDROOT
BRANCH   4   8
HETATM    8  C   UNL     2      -8.902  17.335  67.997  1.00  0.00    -0.238 C  
HETATM    9  H   UNL     2      -9.985  17.188  66.380  1.00  0.00     0.000 HD 
HETATM   10  O   UNL     2      -9.294  17.776  66.662  1.00  0.00    -0.271 OA 
BRANCH   8  11
HETATM   11  C   UNL     2     -10.055  17.110  68.949  1.00  0.00    -0.322 C  
HETATM   12  O   UNL     2     -10.933  15.343  70.276  1.00  0.00    -0.275 OA 
HETATM   13  H   UNL     2     -11.996  17.127  68.783  1.00  0.00     0.000 HD 
HETATM   14  O   UNL     2      -8.699  15.358  69.720  1.00  0.00    -0.220 OA 
HETATM   15  O   UNL     2     -11.272  17.268  68.185  1.00  0.00    -0.197 OA 
HETATM   16  C   UNL     2      -9.912  15.772  69.700  1.00  0.00    -0.284 C  
ENDBRANCH   8  11
ENDBRANCH   4   8
BRANCH   7  17
HETATM   17  C   UNL     3     -10.605  14.884  65.983  1.00  0.00    -0.315 C  
HETATM   18  O   UNL     3      -9.177  14.753  65.629  1.00  0.00    -0.489 OA 
HETATM   19  H   UNL     3      -8.646  14.801  66.416  1.00  0.00     0.000 HD 
BRANCH  17  20
HETATM   20  C   UNL     3     -11.014  13.961  67.140  1.00  0.00    -0.291 C  
HETATM   21  C   UNL     3     -10.990  12.512  66.588  1.00  0.00    -0.266 C  
HETATM   22  O   UNL     3     -12.307  14.402  67.642  1.00  0.00    -0.619 OA 
HETATM   23  O   UNL     3      -9.856  12.240  66.047  1.00  0.00    -0.241 OA 
HETATM   24  O   UNL     3     -12.043  11.843  66.607  1.00  0.00    -0.587 OA 
HETATM   25  H   UNL     3     -12.561  13.831  68.357  1.00  0.00     0.000 HD 
ENDBRANCH  17  20
ENDBRANCH   7  17
TORSDOF 4
ENDMDL
MODEL       12
REMARK 921   NORMALIZED FREE ENERGY PREDICTED BY IDOCK:   -4.99 KCAL/MOL
REMARK 922        TOTAL FREE ENERGY PREDICTED BY IDOCK:   -7.33 KCAL/MOL
REMARK 923 INTER-LIGAND FREE ENERGY PREDICTED BY IDOCK:   -7.17 KCAL/MOL
REMARK 924 INTRA-LIGAND FREE ENERGY PREDICTED BY IDOCK:   -0.17 KCAL/MOL
REMARK 927      BINDING AFFINITY PREDICTED BY RF-SCORE:    0.00 PKD
ROOT
HETATM    1 CA   UNL     1     -12.535  12.347  68.532  1.00  0.00    -0.299 Ca 
HETATM    2  O   UNL     2     -13.049  14.736  69.916  1.00  0.00    -0.561 OA 
HETATM    3  O   UNL     3     -10.275  10.322  64.829  1.00  0.00    -0.329 OA 
HETATM    4  C   UNL     2     -11.865  15.564  69.669  1.00  0.00    -0.366 C  
HETATM    5  H   UNL     2     -13.433  15.113  70.698  1.00  0.00     0.000 HD 
HETATM    6  H   UNL     3      -9.709   9.573  64.679  1.00  0.00     0.000 HD 
HETATM    7  C   UNL     3      -9.636  11.311  65.625  1.00  0.00    -0.229 C  
ENDROOT
BRANCH   4   8
HETATM    8  C   UNL     2     -11.251  14.963  68.420  1.00  0.00    -0.292 C  
HETATM    9  H   UNL     2     -10.365  13.271  68.020  1.00  0.00     0.000 HD 
HETATM   10  O   UNL     2     -10.749  13.647  68.803  1.00  0.00    -0.247 OA 
BRANCH   8  11
HETATM   11  C   UNL     2     -10.263  15.814  67.654  1.00  0.00    -0.266 C  
HETATM   12  O   UNL     2      -8.384  17.195  68.120  1.00  0.00    -0.211 OA 
HETATM   13  H   UNL     2     -10.395  17.417  66.555  1.00  0.00     0.000 HD 
HETATM   14  O   UNL     2      -8.944  15.493  69.567  1.00  0.00    -0.268 OA 
HETATM   15  O   UNL     2     -11.015  16.883  67.037  1.00  0.00    -0.119 OA 
HETATM   16  C   UNL     2      -9.090  16.259  68.548  1.00  0.00    -0.216 C  
ENDBRANCH   8  11
ENDBRANCH   4   8
BRANCH   7  17
HETATM   17  C   UNL     3     -10.551  12.522  65.868  1.00  0.00    -0.265 C  
HETATM   18  O   UNL     3     -11.880  12.060  66.320  1.00  0.00    -0.563 OA 
HETATM   19  H   UNL     3     -12.445  12.808  66.470  1.00  0.00     0.000 HD 
BRANCH  17  20
HETATM   20  C   UNL     3     -10.640  13.550  64.730  1.00  0.00    -0.417 C  
HETATM   21  C   UNL     3     -12.143  13.715  64.390  1.00  0.00    -0.427 C  
HETATM   22  O   UNL     3      -9.812  13.083  63.628  1.00  0.00    -0.694 OA 
HETATM   23  O   UNL     3     -12.828  14.002  65.439  1.00  0.00    -0.658 OA 
HETATM   24  O   UNL     3     -12.533  13.444  63.236  1.00  0.00    -0.739 OA 
HETATM   25  H   UNL     3      -9.867  13.718  62.923  1.00  0.00     0.000 HD 
ENDBRANCH  17  20
ENDBRANCH   7  17
TORSDOF 4
ENDMDL
MODEL       13
REMARK 921   NORMALIZED FREE ENERGY PREDICTED BY IDOCK:   -4.97 KCAL/MOL
REMARK 922        TOTAL FREE ENERGY PREDICTED BY IDOCK:   -7.31 KCAL/MOL
REMARK 923 INTER-LIGAND FREE ENERGY PREDICTED BY IDOCK:   -6.56 KCAL/MOL
REMARK 924 INTRA-LIGAND FREE ENERGY PREDICTED BY IDOCK:   -0.76 KCAL/MOL
REMARK 927      BINDING AFFINITY PREDICTED BY RF-SCORE:    0.00 PKD
ROOT
HETATM    1 CA   UNL     1     -10.536  19.891  67.761  1.00  0.00    -0.346 Ca 
HETATM    2  O   UNL     2      -8.205  21.280  67.036  1.00  0.00    -0.615 OA 
HETATM    3  O   UNL     3     -12.450  15.621  68.777  1.00  0.00    -0.528 OA 
HETATM    4  C   UNL     2      -7.113  20.473  67.588  1.00  0.00    -0.321 C  
HETATM    5  H   UNL     2      -7.819  22.139  66.917  1.00  0.00     0.000 HD 
HETATM    6  H   UNL     3     -12.993  15.242  69.458  1.00  0.00     0.000 HD 
HETATM    7  C   UNL     3     -11.167  15.987  69.271  1.00  0.00    -0.346 C  
ENDROOT
BRANCH   4   8
HETATM    8  C   UNL     2      -7.729  19.102  67.778  1.00  0.00    -0.262 C  
HETATM    9  H   UNL     2      -9.097  18.380  68.968  1.00  0.00     0.000 HD 
HETATM   10  O   UNL     2      -8.711  19.239  68.849  1.00  0.00    -0.362 OA 
BRANCH   8  11
HETATM   11  C   UNL     2      -6.784  17.932  67.938  1.00  0.00    -0.193 C  
HETATM   12  O   UNL     2      -6.170  15.977  66.732  1.00  0.00    -0.279 OA 
HETATM   13  H   UNL     2      -6.625  16.458  69.202  1.00  0.00     0.000 HD 
HETATM   14  O   UNL     2      -7.011  17.802  65.607  1.00  0.00    -0.412 OA 
HETATM   15  O   UNL     2      -7.219  17.193  69.102  1.00  0.00    -0.246 OA 
HETATM   16  C   UNL     2      -6.673  17.116  66.637  1.00  0.00    -0.242 C  
ENDBRANCH   8  11
ENDBRANCH   4   8
BRANCH   7  17
HETATM   17  C   UNL     3     -10.288  16.599  68.170  1.00  0.00    -0.303 C  
HETATM   18  O   UNL     3     -10.967  17.775  67.587  1.00  0.00    -0.301 OA 
HETATM   19  H   UNL     3     -10.424  18.154  66.906  1.00  0.00     0.000 HD 
BRANCH  17  20
HETATM   20  C   UNL     3      -9.760  15.633  67.100  1.00  0.00    -0.223 C  
HETATM   21  C   UNL     3     -10.320  16.119  65.739  1.00  0.00    -0.378 C  
HETATM   22  O   UNL     3     -10.152  14.281  67.474  1.00  0.00    -0.233 OA 
HETATM   23  O   UNL     3     -10.042  17.358  65.539  1.00  0.00    -0.579 OA 
HETATM   24  O   UNL     3     -11.046  15.351  65.077  1.00  0.00    -0.388 OA 
HETATM   25  H   UNL     3      -9.826  13.682  66.812  1.00  0.00     0.000 HD 
ENDBRANCH  17  20
ENDBRANCH   7  17
TORSDOF 4
ENDMDL
MODEL       14
REMARK 921   NORMALIZED FREE ENERGY PREDICTED BY IDOCK:   -4.96 KCAL/MOL
REMARK 922        TOTAL FREE ENERGY PREDICTED BY IDOCK:   -7.30 KCAL/MOL
REMARK 923 INTER-LIGAND FREE ENERGY PREDICTED BY IDOCK:   -6.27 KCAL/MOL
REMARK 924 INTRA-LIGAND FREE ENERGY PREDICTED BY IDOCK:   -1.03 KCAL/MOL
REMARK 927      BINDING AFFINITY PREDICTED BY RF-SCORE:    0.00 PKD
ROOT
HETATM    1 CA   UNL     1     -12.181  10.355  67.852  1.00  0.00    -0.399 Ca 
HETATM    2  O   UNL     2     -10.470  10.373  70.078  1.00  0.00    -0.357 OA 
HETATM    3  O   UNL     3     -12.948  12.027  63.431  1.00  0.00    -0.772 OA 
HETATM    4  C   UNL     2      -9.144  10.643  69.517  1.00  0.00     0.040 C  
HETATM    5  H   UNL     2     -10.287   9.972  70.919  1.00  0.00     0.000 HD 
HETATM    6  H   UNL     3     -13.171  11.674  62.578  1.00  0.00     0.000 HD 
HETATM    7  C   UNL     3     -11.651  11.621  63.846  1.00  0.00    -0.309 C  
ENDROOT
BRANCH   4   8
HETATM    8  C   UNL     2      -9.436  11.283  68.175  1.00  0.00    -0.184 C  
HETATM    9  H   UNL     2     -10.125  10.619  66.474  1.00  0.00     0.000 HD 
HETATM   10  O   UNL     2      -9.942  10.218  67.316  1.00  0.00    -0.175 OA 
BRANCH   8  11
HETATM   11  C   UNL     2      -8.344  12.126  67.554  1.00  0.00    -0.166 C  
HETATM   12  O   UNL     2      -8.011  14.389  66.906  1.00  0.00    -0.089 OA 
HETATM   13  H   UNL     2      -7.432  12.141  65.834  1.00  0.00     0.000 HD 
HETATM   14  O   UNL     2      -9.526  13.883  68.564  1.00  0.00    -0.208 OA 
HETATM   15  O   UNL     2      -8.118  11.611  66.223  1.00  0.00    -0.088 OA 
HETATM   16  C   UNL     2      -8.676  13.628  67.638  1.00  0.00    -0.182 C  
ENDBRANCH   8  11
ENDBRANCH   4   8
BRANCH   7  17
HETATM   17  C   UNL     3     -11.290  12.194  65.226  1.00  0.00    -0.336 C  
HETATM   18  O   UNL     3     -12.282  11.745  66.226  1.00  0.00    -0.344 OA 
HETATM   19  H   UNL     3     -12.060  12.099  67.079  1.00  0.00     0.000 HD 
BRANCH  17  20
HETATM   20  C   UNL     3     -11.030  13.705  65.292  1.00  0.00    -0.310 C  
HETATM   21  C   UNL     3     -12.344  14.407  64.861  1.00  0.00    -0.405 C  
HETATM   22  O   UNL     3      -9.875  14.006  64.458  1.00  0.00    -0.641 OA 
HETATM   23  O   UNL     3     -13.341  13.994  65.558  1.00  0.00    -0.673 OA 
HETATM   24  O   UNL     3     -12.327  15.154  63.862  1.00  0.00    -0.673 OA 
HETATM   25  H   UNL     3      -9.714  14.942  64.499  1.00  0.00     0.000 HD 
ENDBRANCH  17  20
ENDBRANCH   7  17
TORSDOF 4
ENDMDL
MODEL       15
REMARK 921   NORMALIZED FREE ENERGY PREDICTED BY IDOCK:   -4.92 KCAL/MOL
REMARK 922        TOTAL FREE ENERGY PREDICTED BY IDOCK:   -7.25 KCAL/MOL
REMARK 923 INTER-LIGAND FREE ENERGY PREDICTED BY IDOCK:   -6.15 KCAL/MOL
REMARK 924 INTRA-LIGAND FREE ENERGY PREDICTED BY IDOCK:   -1.10 KCAL/MOL
REMARK 927      BINDING AFFINITY PREDICTED BY RF-SCORE:    0.00 PKD
ROOT
HETATM    1 CA   UNL     1     -10.266  15.689  63.706  1.00  0.00    -0.248 Ca 
HETATM    2  O   UNL     2      -9.598  17.580  65.672  1.00  0.00    -0.510 OA 
HETATM    3  O   UNL     3     -11.717  11.207  62.850  1.00  0.00    -0.749 OA 
HETATM    4  C   UNL     2     -10.386  17.184  66.842  1.00  0.00    -0.308 C  
HETATM    5  H   UNL     2      -9.390  18.492  65.832  1.00  0.00     0.000 HD 
HETATM    6  H   UNL     3     -12.383  10.775  62.329  1.00  0.00     0.000 HD 
HETATM    7  C   UNL     3     -12.287  11.974  63.903  1.00  0.00    -0.450 C  
ENDROOT
BRANCH   4   8
HETATM    8  C   UNL     2     -10.718  15.728  66.586  1.00  0.00    -0.287 C  
HETATM    9  H   UNL     2     -11.805  14.794  65.262  1.00  0.00     0.000 HD 
HETATM   10  O   UNL     2     -11.597  15.707  65.422  1.00  0.00    -0.053 OA 
BRANCH   8  11
HETATM   11  C   UNL     2     -11.210  14.911  67.760  1.00  0.00    -0.321 C  
HETATM   12  O   UNL     2     -10.457  13.085  69.083  1.00  0.00    -0.064 OA 
HETATM   13  H   UNL     2     -12.717  13.714  68.064  1.00  0.00     0.000 HD 
HETATM   14  O   UNL     2      -8.928  14.433  68.014  1.00  0.00    -0.170 OA 
HETATM   15  O   UNL     2     -12.408  14.227  67.327  1.00  0.00    -0.337 OA 
HETATM   16  C   UNL     2     -10.097  14.008  68.324  1.00  0.00    -0.246 C  
ENDBRANCH   8  11
ENDBRANCH   4   8
BRANCH   7  17
HETATM   17  C   UNL     3     -11.208  12.673  64.745  1.00  0.00    -0.302 C  
HETATM   18  O   UNL     3     -10.231  13.333  63.854  1.00  0.00    -0.707 OA 
HETATM   19  H   UNL     3      -9.565  13.765  64.375  1.00  0.00     0.000 HD 
BRANCH  17  20
HETATM   20  C   UNL     3     -10.534  11.824  65.833  1.00  0.00    -0.255 C  
HETATM   21  C   UNL     3      -9.823  10.651  65.111  1.00  0.00    -0.284 C  
HETATM   22  O   UNL     3     -11.552  11.423  66.794  1.00  0.00    -0.465 OA 
HETATM   23  O   UNL     3      -9.037  11.082  64.190  1.00  0.00    -0.176 OA 
HETATM   24  O   UNL     3     -10.157   9.482  65.389  1.00  0.00    -0.218 OA 
HETATM   25  H   UNL     3     -11.135  10.898  67.468  1.00  0.00     0.000 HD 
ENDBRANCH  17  20
ENDBRANCH   7  17
TORSDOF 4
ENDMDL
MODEL       16
REMARK 921   NORMALIZED FREE ENERGY PREDICTED BY IDOCK:   -4.92 KCAL/MOL
REMARK 922        TOTAL FREE ENERGY PREDICTED BY IDOCK:   -7.24 KCAL/MOL
REMARK 923 INTER-LIGAND FREE ENERGY PREDICTED BY IDOCK:   -6.06 KCAL/MOL
REMARK 924 INTRA-LIGAND FREE ENERGY PREDICTED BY IDOCK:   -1.18 KCAL/MOL
REMARK 927      BINDING AFFINITY PREDICTED BY RF-SCORE:    0.00 PKD
ROOT
HETATM    1 CA   UNL     1     -11.721  11.406  63.809  1.00  0.00    -0.354 Ca 
HETATM    2  O   UNL     2     -12.299  14.088  63.212  1.00  0.00    -1.133 OA 
HETATM    3  O   UNL     3      -9.931   8.364  67.045  1.00  0.00    -0.202 OA 
HETATM    4  C   UNL     2     -12.531  14.711  64.518  1.00  0.00    -0.292 C  
HETATM    5  H   UNL     2     -12.730  14.671  62.599  1.00  0.00     0.000 HD 
HETATM    6  H   UNL     3     -10.190   7.547  67.455  1.00  0.00     0.000 HD 
HETATM    7  C   UNL     3     -10.774   9.439  67.437  1.00  0.00    -0.210 C  
ENDROOT
BRANCH   4   8
HETATM    8  C   UNL     2     -11.843  13.780  65.497  1.00  0.00    -0.363 C  
HETATM    9  H   UNL     2     -12.167  11.949  66.086  1.00  0.00     0.000 HD 
HETATM   10  O   UNL     2     -12.598  12.532  65.473  1.00  0.00    -0.642 OA 
BRANCH   8  11
HETATM   11  C   UNL     2     -11.558  14.317  66.882  1.00  0.00    -0.387 C  
HETATM   12  O   UNL     2      -9.665  14.908  68.193  1.00  0.00    -0.207 OA 
HETATM   13  H   UNL     2     -11.840  13.659  68.693  1.00  0.00     0.000 HD 
HETATM   14  O   UNL     2      -9.533  14.974  65.896  1.00  0.00    -0.315 OA 
HETATM   15  O   UNL     2     -12.019  13.322  67.823  1.00  0.00    -0.349 OA 
HETATM   16  C   UNL     2     -10.083  14.738  67.030  1.00  0.00    -0.245 C  
ENDBRANCH   8  11
ENDBRANCH   4   8
BRANCH   7  17
HETATM   17  C   UNL     3     -10.356  10.761  66.773  1.00  0.00    -0.243 C  
HETATM   18  O   UNL     3     -10.252  10.572  65.311  1.00  0.00    -0.298 OA 
HETATM   19  H   UNL     3      -9.993  11.388  64.900  1.00  0.00     0.000 HD 
BRANCH  17  20
HETATM   20  C   UNL     3      -9.126  11.463  67.365  1.00  0.00    -0.160 C  
HETATM   21  C   UNL     3      -7.954  10.450  67.301  1.00  0.00    -0.110 C  
HETATM   22  O   UNL     3      -9.463  11.922  68.705  1.00  0.00    -0.366 OA 
HETATM   23  O   UNL     3      -7.801   9.994  66.109  1.00  0.00    -0.107 OA 
HETATM   24  O   UNL     3      -7.399  10.103  68.362  1.00  0.00    -0.078 OA 
HETATM   25  H   UNL     3      -8.702  12.357  69.073  1.00  0.00     0.000 HD 
ENDBRANCH  17  20
ENDBRANCH   7  17
TORSDOF 4
ENDMDL
MODEL       17
REMARK 921   NORMALIZED FREE ENERGY PREDICTED BY IDOCK:   -4.90 KCAL/MOL
REMARK 922        TOTAL FREE ENERGY PREDICTED BY IDOCK:   -7.22 KCAL/MOL
REMARK 923 INTER-LIGAND FREE ENERGY PREDICTED BY IDOCK:   -6.06 KCAL/MOL
REMARK 924 INTRA-LIGAND FREE ENERGY PREDICTED BY IDOCK:   -1.15 KCAL/MOL
REMARK 927      BINDING AFFINITY PREDICTED BY RF-SCORE:    0.00 PKD
ROOT
HETATM    1 CA   UNL     1     -11.429  19.052  67.382  1.00  0.00    -0.441 Ca 
HETATM    2  O   UNL     2      -9.327  20.436  66.135  1.00  0.00    -0.620 OA 
HETATM    3  O   UNL     3     -12.669  15.189  69.925  1.00  0.00    -0.582 OA 
HETATM    4  C   UNL     2      -8.137  20.066  66.906  1.00  0.00    -0.321 C  
HETATM    5  H   UNL     2      -9.079  21.245  65.703  1.00  0.00     0.000 HD 
HETATM    6  H   UNL     3     -13.165  15.000  70.713  1.00  0.00     0.000 HD 
HETATM    7  C   UNL     3     -11.476  15.905  70.215  1.00  0.00    -0.366 C  
ENDROOT
BRANCH   4   8
HETATM    8  C   UNL     2      -8.534  18.776  67.595  1.00  0.00    -0.272 C  
HETATM    9  H   UNL     2      -9.566  18.352  69.196  1.00  0.00     0.000 HD 
HETATM   10  O   UNL     2      -9.317  19.161  68.764  1.00  0.00    -0.361 OA 
BRANCH   8  11
HETATM   11  C   UNL     2      -7.436  17.774  67.876  1.00  0.00    -0.210 C  
HETATM   12  O   UNL     2      -6.786  15.610  67.135  1.00  0.00    -0.244 OA 
HETATM   13  H   UNL     2      -6.894  16.732  69.430  1.00  0.00     0.000 HD 
HETATM   14  O   UNL     2      -8.019  16.975  65.749  1.00  0.00    -0.428 OA 
HETATM   15  O   UNL     2      -7.583  17.361  69.254  1.00  0.00    -0.142 OA 
HETATM   16  C   UNL     2      -7.435  16.634  66.839  1.00  0.00    -0.228 C  
ENDBRANCH   8  11
ENDBRANCH   4   8
BRANCH   7  17
HETATM   17  C   UNL     3     -10.673  16.211  68.940  1.00  0.00    -0.280 C  
HETATM   18  O   UNL     3     -11.526  16.940  67.978  1.00  0.00    -0.072 OA 
HETATM   19  H   UNL     3     -11.031  17.129  67.190  1.00  0.00     0.000 HD 
BRANCH  17  20
HETATM   20  C   UNL     3      -9.936  15.028  68.296  1.00  0.00    -0.225 C  
HETATM   21  C   UNL     3     -11.010  13.968  67.943  1.00  0.00    -0.247 C  
HETATM   22  O   UNL     3      -8.908  14.573  69.221  1.00  0.00    -0.382 OA 
HETATM   23  O   UNL     3     -11.950  14.478  67.230  1.00  0.00    -0.405 OA 
HETATM   24  O   UNL     3     -10.929  12.834  68.458  1.00  0.00    -0.237 OA 
HETATM   25  H   UNL     3      -8.452  13.841  68.823  1.00  0.00     0.000 HD 
ENDBRANCH  17  20
ENDBRANCH   7  17
TORSDOF 4
ENDMDL
MODEL       18
REMARK 921   NORMALIZED FREE ENERGY PREDICTED BY IDOCK:   -4.83 KCAL/MOL
REMARK 922        TOTAL FREE ENERGY PREDICTED BY IDOCK:   -7.14 KCAL/MOL
REMARK 923 INTER-LIGAND FREE ENERGY PREDICTED BY IDOCK:   -5.94 KCAL/MOL
REMARK 924 INTRA-LIGAND FREE ENERGY PREDICTED BY IDOCK:   -1.21 KCAL/MOL
REMARK 927      BINDING AFFINITY PREDICTED BY RF-SCORE:    0.00 PKD
ROOT
HETATM    1 CA   UNL     1      -9.145  14.209  64.989  1.00  0.00    -0.491 Ca 
HETATM    2  O   UNL     2     -10.479  11.961  66.013  1.00  0.00    -0.231 OA 
HETATM    3  O   UNL     3      -7.883  18.763  65.767  1.00  0.00    -0.484 OA 
HETATM    4  C   UNL     2     -10.372  12.103  67.468  1.00  0.00    -0.205 C  
HETATM    5  H   UNL     2     -10.652  11.036  65.885  1.00  0.00     0.000 HD 
HETATM    6  H   UNL     3      -7.093  19.288  65.718  1.00  0.00     0.000 HD 
HETATM    7  C   UNL     3      -7.805  17.793  66.804  1.00  0.00    -0.233 C  
ENDROOT
BRANCH   4   8
HETATM    8  C   UNL     2     -10.095  13.579  67.673  1.00  0.00    -0.229 C  
HETATM    9  H   UNL     2      -8.548  14.727  67.362  1.00  0.00     0.000 HD 
HETATM   10  O   UNL     2      -8.722  13.802  67.234  1.00  0.00    -0.199 OA 
BRANCH   8  11
HETATM   11  C   UNL     2     -10.426  14.165  69.027  1.00  0.00    -0.183 C  
HETATM   12  O   UNL     2     -12.022  15.658  69.965  1.00  0.00    -0.346 OA 
HETATM   13  H   UNL     2      -9.503  15.341  70.276  1.00  0.00     0.000 HD 
HETATM   14  O   UNL     2     -12.535  14.485  68.052  1.00  0.00    -0.064 OA 
HETATM   15  O   UNL     2      -9.295  14.973  69.425  1.00  0.00    -0.190 OA 
HETATM   16  C   UNL     2     -11.786  14.890  69.010  1.00  0.00    -0.319 C  
ENDBRANCH   8  11
ENDBRANCH   4   8
BRANCH   7  17
HETATM   17  C   UNL     3      -9.084  16.943  66.884  1.00  0.00    -0.230 C  
HETATM   18  O   UNL     3      -9.349  16.318  65.571  1.00  0.00    -0.424 OA 
HETATM   19  H   UNL     3     -10.138  15.792  65.621  1.00  0.00     0.000 HD 
BRANCH  17  20
HETATM   20  C   UNL     3     -10.324  17.629  67.472  1.00  0.00    -0.365 C  
HETATM   21  C   UNL     3     -10.583  18.898  66.619  1.00  0.00    -0.395 C  
HETATM   22  O   UNL     3     -10.080  17.882  68.885  1.00  0.00    -0.368 OA 
HETATM   23  O   UNL     3     -10.660  18.609  65.369  1.00  0.00    -0.572 OA 
HETATM   24  O   UNL     3     -10.563  20.013  67.177  1.00  0.00    -0.411 OA 
HETATM   25  H   UNL     3     -10.848  18.307  69.249  1.00  0.00     0.000 HD 
ENDBRANCH  17  20
ENDBRANCH   7  17
TORSDOF 4
ENDMDL
MODEL       19
REMARK 921   NORMALIZED FREE ENERGY PREDICTED BY IDOCK:   -4.81 KCAL/MOL
REMARK 922        TOTAL FREE ENERGY PREDICTED BY IDOCK:   -7.11 KCAL/MOL
REMARK 923 INTER-LIGAND FREE ENERGY PREDICTED BY IDOCK:   -5.97 KCAL/MOL
REMARK 924 INTRA-LIGAND FREE ENERGY PREDICTED BY IDOCK:   -1.14 KCAL/MOL
REMARK 927      BINDING AFFINITY PREDICTED BY RF-SCORE:    0.00 PKD
ROOT
HETATM    1 CA   UNL     1     -11.093  17.719  64.676  1.00  0.00    -0.484 Ca 
HETATM    2  O   UNL     2      -9.146  19.415  65.780  1.00  0.00    -0.379 OA 
HETATM    3  O   UNL     3     -13.003  13.329  64.712  1.00  0.00    -0.710 OA 
HETATM    4  C   UNL     2      -8.940  18.900  67.136  1.00  0.00    -0.284 C  
HETATM    5  H   UNL     2      -8.830  20.310  65.823  1.00  0.00     0.000 HD 
HETATM    6  H   UNL     3     -13.870  12.943  64.762  1.00  0.00     0.000 HD 
HETATM    7  C   UNL     3     -12.649  13.984  65.923  1.00  0.00    -0.449 C  
ENDROOT
BRANCH   4   8
HETATM    8  C   UNL     2      -9.444  17.473  67.068  1.00  0.00    -0.268 C  
HETATM    9  H   UNL     2     -11.207  16.663  66.865  1.00  0.00     0.000 HD 
HETATM   10  O   UNL     2     -10.892  17.558  66.908  1.00  0.00    -0.190 OA 
BRANCH   8  11
HETATM   11  C   UNL     2      -8.985  16.522  68.151  1.00  0.00    -0.207 C  
HETATM   12  O   UNL     2      -7.551  14.637  68.357  1.00  0.00    -0.106 OA 
HETATM   13  H   UNL     2      -9.866  15.205  69.284  1.00  0.00     0.000 HD 
HETATM   14  O   UNL     2      -7.188  16.176  66.683  1.00  0.00    -0.192 OA 
HETATM   15  O   UNL     2     -10.154  15.801  68.604  1.00  0.00    -0.203 OA 
HETATM   16  C   UNL     2      -7.811  15.647  67.671  1.00  0.00    -0.154 C  
ENDBRANCH   8  11
ENDBRANCH   4   8
BRANCH   7  17
HETATM   17  C   UNL     3     -11.246  14.608  65.842  1.00  0.00    -0.336 C  
HETATM   18  O   UNL     3     -11.129  15.410  64.606  1.00  0.00    -0.578 OA 
HETATM   19  H   UNL     3     -10.262  15.796  64.556  1.00  0.00     0.000 HD 
BRANCH  17  20
HETATM   20  C   UNL     3     -10.061  13.651  66.038  1.00  0.00    -0.312 C  
HETATM   21  C   UNL     3     -10.182  12.556  64.948  1.00  0.00    -0.278 C  
HETATM   22  O   UNL     3     -10.096  13.157  67.407  1.00  0.00    -0.225 OA 
HETATM   23  O   UNL     3     -10.275  13.076  63.776  1.00  0.00    -0.360 OA 
HETATM   24  O   UNL     3     -10.299  11.365  65.301  1.00  0.00    -0.259 OA 
HETATM   25  H   UNL     3      -9.362  12.565  67.529  1.00  0.00     0.000 HD 
ENDBRANCH  17  20
ENDBRANCH   7  17
TORSDOF 4
ENDMDL
MODEL       20
REMARK 921   NORMALIZED FREE ENERGY PREDICTED BY IDOCK:   -4.78 KCAL/MOL
REMARK 922        TOTAL FREE ENERGY PREDICTED BY IDOCK:   -7.07 KCAL/MOL
REMARK 923 INTER-LIGAND FREE ENERGY PREDICTED BY IDOCK:   -6.90 KCAL/MOL
REMARK 924 INTRA-LIGAND FREE ENERGY PREDICTED BY IDOCK:   -0.17 KCAL/MOL
REMARK 927      BINDING AFFINITY PREDICTED BY RF-SCORE:    0.00 PKD
ROOT
HETATM    1 CA   UNL     1     -10.950  15.652  63.947  1.00  0.00    -0.614 Ca 
HETATM    2  O   UNL     2     -12.631  13.602  63.018  1.00  0.00    -0.957 OA 
HETATM    3  O   UNL     3      -8.016  17.089  67.447  1.00  0.00    -0.172 OA 
HETATM    4  C   UNL     2     -12.069  12.379  63.596  1.00  0.00    -0.556 C  
HETATM    5  H   UNL     2     -13.144  13.294  62.281  1.00  0.00     0.000 HD 
HETATM    6  H   UNL     3      -7.143  17.454  67.522  1.00  0.00     0.000 HD 
HETATM    7  C   UNL     3      -7.987  15.750  66.969  1.00  0.00    -0.237 C  
ENDROOT
BRANCH   4   8
HETATM    8  C   UNL     2     -11.249  12.871  64.772  1.00  0.00    -0.306 C  
HETATM    9  H   UNL     2      -9.634  13.952  64.945  1.00  0.00     0.000 HD 
HETATM   10  O   UNL     2     -10.148  13.644  64.208  1.00  0.00    -0.313 OA 
BRANCH   8  11
HETATM   11  C   UNL     2     -10.834  11.848  65.806  1.00  0.00    -0.295 C  
HETATM   12  O   UNL     2     -10.132   9.577  65.864  1.00  0.00    -0.294 OA 
HETATM   13  H   UNL     2     -11.721  10.972  67.303  1.00  0.00     0.000 HD 
HETATM   14  O   UNL     2      -9.795  10.833  63.964  1.00  0.00    -0.277 OA 
HETATM   15  O   UNL     2     -11.982  11.614  66.654  1.00  0.00    -0.503 OA 
HETATM   16  C   UNL     2     -10.230  10.594  65.146  1.00  0.00    -0.299 C  
ENDBRANCH   8  11
ENDBRANCH   4   8
BRANCH   7  17
HETATM   17  C   UNL     3      -9.401  15.159  66.849  1.00  0.00    -0.234 C  
HETATM   18  O   UNL     3     -10.278  16.109  66.134  1.00  0.00    -0.300 OA 
HETATM   19  H   UNL     3     -11.152  15.744  66.060  1.00  0.00     0.000 HD 
BRANCH  17  20
HETATM   20  C   UNL     3     -10.034  14.632  68.144  1.00  0.00    -0.224 C  
HETATM   21  C   UNL     3     -11.502  15.129  68.162  1.00  0.00    -0.342 C  
HETATM   22  O   UNL     3      -9.222  15.084  69.266  1.00  0.00    -0.284 OA 
HETATM   23  O   UNL     3     -12.116  14.800  67.082  1.00  0.00    -0.308 OA 
HETATM   24  O   UNL     3     -11.879  15.860  69.100  1.00  0.00    -0.389 OA 
HETATM   25  H   UNL     3      -9.613  14.758  70.068  1.00  0.00     0.000 HD 
ENDBRANCH  17  20
ENDBRANCH   7  17
TORSDOF 4
ENDMDL
MODEL       21
REMARK 921   NORMALIZED FREE ENERGY PREDICTED BY IDOCK:   -4.77 KCAL/MOL
REMARK 922        TOTAL FREE ENERGY PREDICTED BY IDOCK:   -7.07 KCAL/MOL
REMARK 923 INTER-LIGAND FREE ENERGY PREDICTED BY IDOCK:   -6.02 KCAL/MOL
REMARK 924 INTRA-LIGAND FREE ENERGY PREDICTED BY IDOCK:   -1.05 KCAL/MOL
REMARK 927      BINDING AFFINITY PREDICTED BY RF-SCORE:    0.00 PKD
ROOT
HETATM    1 CA   UNL     1      -8.395  13.207  68.955  1.00  0.00    -0.220 Ca 
HETATM    2  O   UNL     2      -8.053  10.489  68.339  1.00  0.00    -0.109 OA 
HETATM    3  O   UNL     3     -10.720  17.252  67.877  1.00  0.00    -0.372 OA 
HETATM    4  C   UNL     2      -9.347  10.072  67.792  1.00  0.00    -0.140 C  
HETATM    5  H   UNL     2      -7.648   9.675  68.615  1.00  0.00     0.000 HD 
HETATM    6  H   UNL     3     -11.201  17.927  68.341  1.00  0.00     0.000 HD 
HETATM    7  C   UNL     3     -11.399  16.003  67.915  1.00  0.00    -0.218 C  
ENDROOT
BRANCH   4   8
HETATM    8  C   UNL     2      -9.995  11.370  67.352  1.00  0.00    -0.186 C  
HETATM    9  H   UNL     2     -10.737  12.907  68.297  1.00  0.00     0.000 HD 
HETATM   10  O   UNL     2     -10.332  12.094  68.573  1.00  0.00    -0.220 OA 
BRANCH   8  11
HETATM   11  C   UNL     2     -11.119  11.279  66.345  1.00  0.00    -0.193 C  
HETATM   12  O   UNL     2     -11.460  11.709  64.031  1.00  0.00    -0.364 OA 
HETATM   13  H   UNL     2     -12.847  12.153  66.133  1.00  0.00     0.000 HD 
HETATM   14  O   UNL     2      -9.349  11.214  64.807  1.00  0.00    -0.216 OA 
HETATM   15  O   UNL     2     -12.141  12.211  66.766  1.00  0.00    -0.609 OA 
HETATM   16  C   UNL     2     -10.603  11.466  64.905  1.00  0.00    -0.307 C  
ENDBRANCH   8  11
ENDBRANCH   4   8
BRANCH   7  17
HETATM   17  C   UNL     3     -10.621  14.910  67.164  1.00  0.00    -0.285 C  
HETATM   18  O   UNL     3      -9.236  14.845  67.676  1.00  0.00    -0.183 OA 
HETATM   19  H   UNL     3      -8.756  14.170  67.212  1.00  0.00     0.000 HD 
BRANCH  17  20
HETATM   20  C   UNL     3     -10.682  14.960  65.631  1.00  0.00    -0.342 C  
HETATM   21  C   UNL     3     -10.241  16.385  65.209  1.00  0.00    -0.082 C  
HETATM   22  O   UNL     3     -12.027  14.588  65.215  1.00  0.00    -0.368 OA 
HETATM   23  O   UNL     3      -9.101  16.688  65.720  1.00  0.00    -0.503 OA 
HETATM   24  O   UNL     3     -11.039  17.096  64.566  1.00  0.00    -1.105 OA 
HETATM   25  H   UNL     3     -12.065  14.618  64.266  1.00  0.00     0.000 HD 
ENDBRANCH  17  20
ENDBRANCH   7  17
TORSDOF 4
ENDMDL
MODEL       22
REMARK 921   NORMALIZED FREE ENERGY PREDICTED BY IDOCK:   -4.72 KCAL/MOL
REMARK 922        TOTAL FREE ENERGY PREDICTED BY IDOCK:   -7.01 KCAL/MOL
REMARK 923 INTER-LIGAND FREE ENERGY PREDICTED BY IDOCK:   -5.87 KCAL/MOL
REMARK 924 INTRA-LIGAND FREE ENERGY PREDICTED BY IDOCK:   -1.13 KCAL/MOL
REMARK 927      BINDING AFFINITY PREDICTED BY RF-SCORE:    0.00 PKD
ROOT
HETATM    1 CA   UNL     1      -7.259  16.959  69.997  1.00  0.00    -0.194 Ca 
HETATM    2  O   UNL     2      -6.936  19.727  69.654  1.00  0.00    -0.337 OA 
HETATM    3  O   UNL     3      -9.296  12.968  68.308  1.00  0.00    -0.212 OA 
HETATM    4  C   UNL     2      -7.092  19.938  68.212  1.00  0.00    -0.301 C  
HETATM    5  H   UNL     2      -6.462  20.496  69.949  1.00  0.00     0.000 HD 
HETATM    6  H   UNL     3      -9.027  12.084  68.089  1.00  0.00     0.000 HD 
HETATM    7  C   UNL     3      -8.719  13.926  67.429  1.00  0.00    -0.203 C  
ENDROOT
BRANCH   4   8
HETATM    8  C   UNL     2      -7.848  18.711  67.742  1.00  0.00    -0.245 C  
HETATM    9  H   UNL     2      -7.416  16.812  67.621  1.00  0.00     0.000 HD 
HETATM   10  O   UNL     2      -6.942  17.581  67.915  1.00  0.00    -0.175 OA 
BRANCH   8  11
HETATM   11  C   UNL     2      -8.511  18.782  66.385  1.00  0.00    -0.284 C  
HETATM   12  O   UNL     2     -10.715  18.900  65.498  1.00  0.00    -0.556 OA 
HETATM   13  H   UNL     2      -8.614  17.596  64.843  1.00  0.00     0.000 HD 
HETATM   14  O   UNL     2     -10.290  19.679  67.623  1.00  0.00    -0.402 OA 
HETATM   15  O   UNL     2      -8.198  17.551  65.696  1.00  0.00    -0.505 OA 
HETATM   16  C   UNL     2     -10.012  19.110  66.508  1.00  0.00    -0.383 C  
ENDBRANCH   8  11
ENDBRANCH   4   8
BRANCH   7  17
HETATM   17  C   UNL     3      -9.155  15.357  67.783  1.00  0.00    -0.178 C  
HETATM   18  O   UNL     3      -8.905  15.613  69.217  1.00  0.00    -0.236 OA 
HETATM   19  H   UNL     3      -9.175  16.497  69.435  1.00  0.00     0.000 HD 
BRANCH  17  20
HETATM   20  C   UNL     3     -10.569  15.767  67.348  1.00  0.00    -0.313 C  
HETATM   21  C   UNL     3     -11.545  14.721  67.945  1.00  0.00    -0.351 C  
HETATM   22  O   UNL     3     -10.590  15.863  65.895  1.00  0.00    -0.323 OA 
HETATM   23  O   UNL     3     -11.377  14.601  69.214  1.00  0.00    -0.257 OA 
HETATM   24  O   UNL     3     -12.257  14.050  67.171  1.00  0.00    -0.419 OA 
HETATM   25  H   UNL     3     -11.465  16.117  65.626  1.00  0.00     0.000 HD 
ENDBRANCH  17  20
ENDBRANCH   7  17
TORSDOF 4
ENDMDL
MODEL       23
REMARK 921   NORMALIZED FREE ENERGY PREDICTED BY IDOCK:   -4.70 KCAL/MOL
REMARK 922        TOTAL FREE ENERGY PREDICTED BY IDOCK:   -6.97 KCAL/MOL
REMARK 923 INTER-LIGAND FREE ENERGY PREDICTED BY IDOCK:   -5.99 KCAL/MOL
REMARK 924 INTRA-LIGAND FREE ENERGY PREDICTED BY IDOCK:   -0.99 KCAL/MOL
REMARK 927      BINDING AFFINITY PREDICTED BY RF-SCORE:    0.00 PKD
ROOT
HETATM    1 CA   UNL     1      -9.200  16.685  65.418  1.00  0.00    -0.246 Ca 
HETATM    2  O   UNL     2      -7.848  17.025  67.855  1.00  0.00    -0.177 OA 
HETATM    3  O   UNL     3     -12.381  14.059  62.984  1.00  0.00    -1.101 OA 
HETATM    4  C   UNL     2      -8.758  16.468  68.859  1.00  0.00    -0.247 C  
HETATM    5  H   UNL     2      -7.279  17.599  68.354  1.00  0.00     0.000 HD 
HETATM    6  H   UNL     3     -13.154  14.212  62.454  1.00  0.00     0.000 HD 
HETATM    7  C   UNL     3     -12.601  14.402  64.347  1.00  0.00    -0.168 C  
ENDROOT
BRANCH   4   8
HETATM    8  C   UNL     2      -9.666  15.551  68.064  1.00  0.00    -0.207 C  
HETATM    9  H   UNL     2     -11.127  15.844  66.805  1.00  0.00     0.000 HD 
HETATM   10  O   UNL     2     -10.559  16.419  67.303  1.00  0.00    -0.314 OA 
BRANCH   8  11
HETATM   11  C   UNL     2     -10.361  14.438  68.816  1.00  0.00    -0.241 C  
HETATM   12  O   UNL     2     -10.455  12.063  68.769  1.00  0.00    -0.222 OA 
HETATM   13  H   UNL     2     -12.216  13.895  69.058  1.00  0.00     0.000 HD 
HETATM   14  O   UNL     2      -8.591  13.153  67.970  1.00  0.00    -0.164 OA 
HETATM   15  O   UNL     2     -11.779  14.594  68.586  1.00  0.00    -0.307 OA 
HETATM   16  C   UNL     2      -9.776  13.060  68.450  1.00  0.00    -0.192 C  
ENDBRANCH   8  11
ENDBRANCH   4   8
BRANCH   7  17
HETATM   17  C   UNL     3     -11.350  14.155  65.204  1.00  0.00    -0.336 C  
HETATM   18  O   UNL     3     -10.201  14.884  64.629  1.00  0.00    -0.452 OA 
HETATM   19  H   UNL     3      -9.427  14.732  65.159  1.00  0.00     0.000 HD 
BRANCH  17  20
HETATM   20  C   UNL     3     -11.019  12.690  65.524  1.00  0.00    -0.279 C  
HETATM   21  C   UNL     3     -10.699  11.997  64.175  1.00  0.00    -0.357 C  
HETATM   22  O   UNL     3     -12.141  12.117  66.254  1.00  0.00    -0.626 OA 
HETATM   23  O   UNL     3      -9.787  12.634  63.530  1.00  0.00    -0.297 OA 
HETATM   24  O   UNL     3     -11.399  11.030  63.813  1.00  0.00    -0.053 OA 
HETATM   25  H   UNL     3     -11.936  11.211  66.452  1.00  0.00     0.000 HD 
ENDBRANCH  17  20
ENDBRANCH   7  17
TORSDOF 4
ENDMDL
MODEL       24
REMARK 921   NORMALIZED FREE ENERGY PREDICTED BY IDOCK:   -4.69 KCAL/MOL
REMARK 922        TOTAL FREE ENERGY PREDICTED BY IDOCK:   -6.96 KCAL/MOL
REMARK 923 INTER-LIGAND FREE ENERGY PREDICTED BY IDOCK:   -5.84 KCAL/MOL
REMARK 924 INTRA-LIGAND FREE ENERGY PREDICTED BY IDOCK:   -1.13 KCAL/MOL
REMARK 927      BINDING AFFINITY PREDICTED BY RF-SCORE:    0.00 PKD
ROOT
HETATM    1 CA   UNL     1     -12.464  11.771  69.196  1.00  0.00    -0.286 Ca 
HETATM    2  O   UNL     2     -10.661  10.162  70.625  1.00  0.00    -0.382 OA 
HETATM    3  O   UNL     3     -13.262  14.189  65.140  1.00  0.00    -0.743 OA 
HETATM    4  C   UNL     2      -9.887   9.472  69.589  1.00  0.00    -0.205 C  
HETATM    5  H   UNL     2     -10.548   9.620  71.396  1.00  0.00     0.000 HD 
HETATM    6  H   UNL     3     -13.953  14.259  64.492  1.00  0.00     0.000 HD 
HETATM    7  C   UNL     3     -12.653  12.904  65.121  1.00  0.00    -0.471 C  
ENDROOT
BRANCH   4   8
HETATM    8  C   UNL     2     -10.068  10.337  68.358  1.00  0.00    -0.159 C  
HETATM    9  H   UNL     2     -11.585  10.762  67.207  1.00  0.00     0.000 HD 
HETATM   10  O   UNL     2     -11.472  10.220  67.979  1.00  0.00    -0.314 OA 
BRANCH   8  11
HETATM   11  C   UNL     2      -9.091  10.139  67.221  1.00  0.00    -0.138 C  
HETATM   12  O   UNL     2      -7.347  11.355  66.156  1.00  0.00    -0.020 OA 
HETATM   13  H   UNL     2      -9.257   9.888  65.296  1.00  0.00     0.000 HD 
HETATM   14  O   UNL     2      -7.886  11.805  68.349  1.00  0.00    -0.128 OA 
HETATM   15  O   UNL     2      -9.871  10.013  66.010  1.00  0.00    -0.222 OA 
HETATM   16  C   UNL     2      -8.015  11.241  67.205  1.00  0.00    -0.151 C  
ENDBRANCH   8  11
ENDBRANCH   4   8
BRANCH   7  17
HETATM   17  C   UNL     3     -11.534  12.790  66.169  1.00  0.00    -0.351 C  
HETATM   18  O   UNL     3     -12.070  13.119  67.506  1.00  0.00    -0.339 OA 
HETATM   19  H   UNL     3     -11.379  13.048  68.154  1.00  0.00     0.000 HD 
BRANCH  17  20
HETATM   20  C   UNL     3     -10.228  13.534  65.857  1.00  0.00    -0.301 C  
HETATM   21  C   UNL     3     -10.575  15.043  65.789  1.00  0.00    -0.339 C  
HETATM   22  O   UNL     3      -9.668  12.980  64.633  1.00  0.00    -0.559 OA 
HETATM   23  O   UNL     3     -11.182  15.428  66.855  1.00  0.00    -0.307 OA 
HETATM   24  O   UNL     3     -10.363  15.662  64.727  1.00  0.00    -0.422 OA 
HETATM   25  H   UNL     3      -8.859  13.440  64.440  1.00  0.00     0.000 HD 
ENDBRANCH  17  20
ENDBRANCH   7  17
TORSDOF 4
ENDMDL
MODEL       25
REMARK 921   NORMALIZED FREE ENERGY PREDICTED BY IDOCK:   -4.68 KCAL/MOL
REMARK 922        TOTAL FREE ENERGY PREDICTED BY IDOCK:   -6.95 KCAL/MOL
REMARK 923 INTER-LIGAND FREE ENERGY PREDICTED BY IDOCK:   -5.76 KCAL/MOL
REMARK 924 INTRA-LIGAND FREE ENERGY PREDICTED BY IDOCK:   -1.19 KCAL/MOL
REMARK 927      BINDING AFFINITY PREDICTED BY RF-SCORE:    0.00 PKD
ROOT
HETATM    1 CA   UNL     1     -10.722   8.565  65.675  1.00  0.00    -0.350 Ca 
HETATM    2  O   UNL     2     -10.955   7.353  68.197  1.00  0.00    -0.441 OA 
HETATM    3  O   UNL     3     -10.520  12.701  63.270  1.00  0.00    -0.455 OA 
HETATM    4  C   UNL     2     -10.377   8.327  69.126  1.00  0.00    -0.217 C  
HETATM    5  H   UNL     2     -10.912   6.530  68.670  1.00  0.00     0.000 HD 
HETATM    6  H   UNL     3      -9.970  13.097  62.605  1.00  0.00     0.000 HD 
HETATM    7  C   UNL     3      -9.823  12.531  64.497  1.00  0.00    -0.063 C  
ENDROOT
BRANCH   4   8
HETATM    8  C   UNL     2     -10.446   9.640  68.371  1.00  0.00    -0.223 C  
HETATM    9  H   UNL     2      -9.555  10.343  66.785  1.00  0.00     0.000 HD 
HETATM   10  O   UNL     2      -9.511   9.521  67.257  1.00  0.00    -0.132 OA 
BRANCH   8  11
HETATM   11  C   UNL     2     -10.306  10.912  69.177  1.00  0.00    -0.208 C  
HETATM   12  O   UNL     2     -11.666  12.751  69.828  1.00  0.00    -0.308 OA 
HETATM   13  H   UNL     2      -9.256  12.543  68.996  1.00  0.00     0.000 HD 
HETATM   14  O   UNL     2     -12.638  10.721  69.343  1.00  0.00    -0.314 OA 
HETATM   15  O   UNL     2      -9.345  11.744  68.489  1.00  0.00    -0.198 OA 
HETATM   16  C   UNL     2     -11.677  11.564  69.443  1.00  0.00    -0.346 C  
ENDBRANCH   8  11
ENDBRANCH   4   8
BRANCH   7  17
HETATM   17  C   UNL     3     -10.713  11.890  65.574  1.00  0.00    -0.283 C  
HETATM   18  O   UNL     3     -11.284  10.627  65.059  1.00  0.00     0.242 OA 
HETATM   19  H   UNL     3     -11.835  10.231  65.724  1.00  0.00     0.000 HD 
BRANCH  17  20
HETATM   20  C   UNL     3     -11.772  12.798  66.214  1.00  0.00    -0.402 C  
HETATM   21  C   UNL     3     -12.708  13.273  65.072  1.00  0.00    -0.375 C  
HETATM   22  O   UNL     3     -11.087  13.867  66.926  1.00  0.00    -0.292 OA 
HETATM   23  O   UNL     3     -13.173  12.275  64.409  1.00  0.00    -0.806 OA 
HETATM   24  O   UNL     3     -12.806  14.495  64.844  1.00  0.00    -0.588 OA 
HETATM   25  H   UNL     3     -11.742  14.430  67.323  1.00  0.00     0.000 HD 
ENDBRANCH  17  20
ENDBRANCH   7  17
TORSDOF 4
ENDMDL
MODEL       26
REMARK 921   NORMALIZED FREE ENERGY PREDICTED BY IDOCK:   -4.66 KCAL/MOL
REMARK 922        TOTAL FREE ENERGY PREDICTED BY IDOCK:   -6.93 KCAL/MOL
REMARK 923 INTER-LIGAND FREE ENERGY PREDICTED BY IDOCK:   -5.78 KCAL/MOL
REMARK 924 INTRA-LIGAND FREE ENERGY PREDICTED BY IDOCK:   -1.16 KCAL/MOL
REMARK 927      BINDING AFFINITY PREDICTED BY RF-SCORE:    0.00 PKD
ROOT
HETATM    1 CA   UNL     1      -8.046  11.153  64.569  1.00  0.00    -0.309 Ca 
HETATM    2  O   UNL     2     -10.096  11.556  62.694  1.00  0.00    -0.598 OA 
HETATM    3  O   UNL     3      -6.630  11.818  69.095  1.00  0.00    -0.086 OA 
HETATM    4  C   UNL     2     -11.322  11.593  63.495  1.00  0.00    -0.354 C  
HETATM    5  H   UNL     2     -10.399  11.346  61.818  1.00  0.00     0.000 HD 
HETATM    6  H   UNL     3      -6.259  11.295  69.796  1.00  0.00     0.000 HD 
HETATM    7  C   UNL     3      -7.962  11.423  68.794  1.00  0.00    -0.122 C  
ENDROOT
BRANCH   4   8
HETATM    8  C   UNL     2     -10.839  11.927  64.892  1.00  0.00    -0.305 C  
HETATM    9  H   UNL     2      -9.908  10.924  66.283  1.00  0.00     0.000 HD 
HETATM   10  O   UNL     2     -10.211  10.715  65.408  1.00  0.00    -0.274 OA 
BRANCH   8  11
HETATM   11  C   UNL     2     -11.830  12.571  65.834  1.00  0.00    -0.430 C  
HETATM   12  O   UNL     2     -12.097  14.641  66.974  1.00  0.00    -0.357 OA 
HETATM   13  H   UNL     2     -12.447  12.198  67.644  1.00  0.00     0.000 HD 
HETATM   14  O   UNL     2     -10.865  14.553  65.031  1.00  0.00    -0.362 OA 
HETATM   15  O   UNL     2     -11.824  11.793  67.052  1.00  0.00    -0.599 OA 
HETATM   16  C   UNL     2     -11.546  14.076  66.007  1.00  0.00    -0.357 C  
ENDBRANCH   8  11
ENDBRANCH   4   8
BRANCH   7  17
HETATM   17  C   UNL     3      -8.563  12.270  67.660  1.00  0.00    -0.169 C  
HETATM   18  O   UNL     3      -7.655  12.255  66.494  1.00  0.00    -0.374 OA 
HETATM   19  H   UNL     3      -8.026  12.778  65.793  1.00  0.00     0.000 HD 
BRANCH  17  20
HETATM   20  C   UNL     3      -9.020  13.687  68.034  1.00  0.00    -0.188 C  
HETATM   21  C   UNL     3      -7.758  14.459  68.497  1.00  0.00    -0.135 C  
HETATM   22  O   UNL     3     -10.072  13.578  69.035  1.00  0.00    -0.420 OA 
HETATM   23  O   UNL     3      -6.828  14.401  67.612  1.00  0.00    -0.169 OA 
HETATM   24  O   UNL     3      -7.725  14.918  69.657  1.00  0.00    -0.167 OA 
HETATM   25  H   UNL     3     -10.355  14.455  69.267  1.00  0.00     0.000 HD 
ENDBRANCH  17  20
ENDBRANCH   7  17
TORSDOF 4
ENDMDL
MODEL       27
REMARK 921   NORMALIZED FREE ENERGY PREDICTED BY IDOCK:   -4.66 KCAL/MOL
REMARK 922        TOTAL FREE ENERGY PREDICTED BY IDOCK:   -6.92 KCAL/MOL
REMARK 923 INTER-LIGAND FREE ENERGY PREDICTED BY IDOCK:   -5.76 KCAL/MOL
REMARK 924 INTRA-LIGAND FREE ENERGY PREDICTED BY IDOCK:   -1.16 KCAL/MOL
REMARK 927      BINDING AFFINITY PREDICTED BY RF-SCORE:    0.00 PKD
ROOT
HETATM    1 CA   UNL     1      -9.157  12.581  64.173  1.00  0.00    -0.442 Ca 
HETATM    2  O   UNL     2     -10.245  10.000  64.370  1.00  0.00    -0.416 OA 
HETATM    3  O   UNL     3      -8.067  16.610  66.519  1.00  0.00    -0.241 OA 
HETATM    4  C   UNL     2      -9.986   9.598  65.755  1.00  0.00    -0.272 C  
HETATM    5  H   UNL     2     -10.381   9.178  63.914  1.00  0.00     0.000 HD 
HETATM    6  H   UNL     3      -7.317  17.186  66.609  1.00  0.00     0.000 HD 
HETATM    7  C   UNL     3      -7.822  15.335  67.098  1.00  0.00    -0.214 C  
ENDROOT
BRANCH   4   8
HETATM    8  C   UNL     2      -9.769  10.910  66.483  1.00  0.00    -0.198 C  
HETATM    9  H   UNL     2      -8.299  12.190  66.566  1.00  0.00     0.000 HD 
HETATM   10  O   UNL     2      -8.435  11.368  66.110  1.00  0.00    -0.172 OA 
BRANCH   8  11
HETATM   11  C   UNL     2     -10.050  10.934  67.969  1.00  0.00    -0.177 C  
HETATM   12  O   UNL     2     -11.552  12.007  69.467  1.00  0.00    -0.293 OA 
HETATM   13  H   UNL     2      -9.049  11.487  69.546  1.00  0.00     0.000 HD 
HETATM   14  O   UNL     2     -12.153  11.699  67.265  1.00  0.00    -0.595 OA 
HETATM   15  O   UNL     2      -8.873  11.473  68.613  1.00  0.00    -0.163 OA 
HETATM   16  C   UNL     2     -11.370  11.665  68.280  1.00  0.00    -0.285 C  
ENDBRANCH   8  11
ENDBRANCH   4   8
BRANCH   7  17
HETATM   17  C   UNL     3      -9.035  14.403  66.954  1.00  0.00    -0.243 C  
HETATM   18  O   UNL     3      -9.413  14.295  65.529  1.00  0.00    -0.534 OA 
HETATM   19  H   UNL     3     -10.163  13.719  65.439  1.00  0.00     0.000 HD 
BRANCH  17  20
HETATM   20  C   UNL     3     -10.237  14.700  67.861  1.00  0.00    -0.226 C  
HETATM   21  C   UNL     3     -10.683  16.152  67.556  1.00  0.00    -0.304 C  
HETATM   22  O   UNL     3      -9.837  14.461  69.241  1.00  0.00    -0.404 OA 
HETATM   23  O   UNL     3     -10.895  16.318  66.299  1.00  0.00    -0.231 OA 
HETATM   24  O   UNL     3     -10.669  16.993  68.477  1.00  0.00    -0.353 OA 
HETATM   25  H   UNL     3     -10.581  14.645  69.803  1.00  0.00     0.000 HD 
ENDBRANCH  17  20
ENDBRANCH   7  17
TORSDOF 4
ENDMDL
MODEL       28
REMARK 921   NORMALIZED FREE ENERGY PREDICTED BY IDOCK:   -4.61 KCAL/MOL
REMARK 922        TOTAL FREE ENERGY PREDICTED BY IDOCK:   -6.86 KCAL/MOL
REMARK 923 INTER-LIGAND FREE ENERGY PREDICTED BY IDOCK:   -6.74 KCAL/MOL
REMARK 924 INTRA-LIGAND FREE ENERGY PREDICTED BY IDOCK:   -0.12 KCAL/MOL
REMARK 927      BINDING AFFINITY PREDICTED BY RF-SCORE:    0.00 PKD
ROOT
HETATM    1 CA   UNL     1     -12.771  15.012  67.776  1.00  0.00    -0.558 Ca 
HETATM    2  O   UNL     2     -12.245  12.259  67.602  1.00  0.00    -0.442 OA 
HETATM    3  O   UNL     3     -11.021  19.427  67.163  1.00  0.00    -0.483 OA 
HETATM    4  C   UNL     2     -11.235  12.146  66.546  1.00  0.00    -0.328 C  
HETATM    5  H   UNL     2     -12.628  11.391  67.648  1.00  0.00     0.000 HD 
HETATM    6  H   UNL     3     -11.288  20.233  66.738  1.00  0.00     0.000 HD 
HETATM    7  C   UNL     3     -10.759  18.396  66.219  1.00  0.00    -0.179 C  
ENDROOT
BRANCH   4   8
HETATM    8  C   UNL     2     -10.624  13.531  66.472  1.00  0.00    -0.281 C  
HETATM    9  H   UNL     2     -10.629  15.083  67.655  1.00  0.00     0.000 HD 
HETATM   10  O   UNL     2     -11.012  14.215  67.701  1.00  0.00    -0.259 OA 
BRANCH   8  11
HETATM   11  C   UNL     2     -10.860  14.327  65.208  1.00  0.00    -0.355 C  
HETATM   12  O   UNL     2     -12.602  14.655  63.624  1.00  0.00    -0.773 OA 
HETATM   13  H   UNL     2     -10.072  14.339  63.427  1.00  0.00     0.000 HD 
HETATM   14  O   UNL     2     -13.114  14.014  65.776  1.00  0.00    -0.543 OA 
HETATM   15  O   UNL     2      -9.924  13.839  64.220  1.00  0.00    -0.177 OA 
HETATM   16  C   UNL     2     -12.342  14.296  64.791  1.00  0.00    -0.426 C  
ENDBRANCH   8  11
ENDBRANCH   4   8
BRANCH   7  17
HETATM   17  C   UNL     3     -10.325  17.092  66.907  1.00  0.00    -0.308 C  
HETATM   18  O   UNL     3     -11.099  16.905  68.152  1.00  0.00    -0.347 OA 
HETATM   19  H   UNL     3     -10.831  16.099  68.578  1.00  0.00     0.000 HD 
BRANCH  17  20
HETATM   20  C   UNL     3      -8.816  16.899  67.116  1.00  0.00    -0.206 C  
HETATM   21  C   UNL     3      -8.295  18.171  67.833  1.00  0.00    -0.250 C  
HETATM   22  O   UNL     3      -8.206  16.634  65.821  1.00  0.00    -0.344 OA 
HETATM   23  O   UNL     3      -8.968  18.410  68.902  1.00  0.00    -0.261 OA 
HETATM   24  O   UNL     3      -7.421  18.862  67.273  1.00  0.00    -0.223 OA 
HETATM   25  H   UNL     3      -7.272  16.515  65.950  1.00  0.00     0.000 HD 
ENDBRANCH  17  20
ENDBRANCH   7  17
TORSDOF 4
ENDMDL
MODEL       29
REMARK 921   NORMALIZED FREE ENERGY PREDICTED BY IDOCK:   -4.59 KCAL/MOL
REMARK 922        TOTAL FREE ENERGY PREDICTED BY IDOCK:   -6.84 KCAL/MOL
REMARK 923 INTER-LIGAND FREE ENERGY PREDICTED BY IDOCK:   -5.61 KCAL/MOL
REMARK 924 INTRA-LIGAND FREE ENERGY PREDICTED BY IDOCK:   -1.23 KCAL/MOL
REMARK 927      BINDING AFFINITY PREDICTED BY RF-SCORE:    0.00 PKD
ROOT
HETATM    1 CA   UNL     1     -11.110  13.131  70.340  1.00  0.00    -0.467 Ca 
HETATM    2  O   UNL     2     -12.501  15.484  69.697  1.00  0.00    -0.575 OA 
HETATM    3  O   UNL     3      -8.225   9.667  68.725  1.00  0.00    -0.101 OA 
HETATM    4  C   UNL     2     -11.718  16.088  68.615  1.00  0.00    -0.270 C  
HETATM    5  H   UNL     2     -13.005  16.209  70.048  1.00  0.00     0.000 HD 
HETATM    6  H   UNL     3      -7.417   9.247  68.995  1.00  0.00     0.000 HD 
HETATM    7  C   UNL     3      -8.016  11.025  68.361  1.00  0.00    -0.131 C  
ENDROOT
BRANCH   4   8
HETATM    8  C   UNL     2     -10.914  14.932  68.055  1.00  0.00    -0.279 C  
HETATM    9  H   UNL     2      -9.350  13.941  68.669  1.00  0.00     0.000 HD 
HETATM   10  O   UNL     2      -9.853  14.665  69.021  1.00  0.00    -0.221 OA 
BRANCH   8  11
HETATM   11  C   UNL     2     -10.446  15.042  66.621  1.00  0.00    -0.284 C  
HETATM   12  O   UNL     2     -10.885  13.994  64.532  1.00  0.00    -0.400 OA 
HETATM   13  H   UNL     2      -8.748  14.767  65.706  1.00  0.00     0.000 HD 
HETATM   14  O   UNL     2     -12.499  13.999  66.175  1.00  0.00    -0.467 OA 
HETATM   15  O   UNL     2      -9.042  14.697  66.607  1.00  0.00    -0.252 OA 
HETATM   16  C   UNL     2     -11.340  14.222  65.672  1.00  0.00    -0.317 C  
ENDBRANCH   8  11
ENDBRANCH   4   8
BRANCH   7  17
HETATM   17  C   UNL     3      -9.323  11.705  67.924  1.00  0.00    -0.174 C  
HETATM   18  O   UNL     3     -10.334  11.574  68.994  1.00  0.00    -0.309 OA 
HETATM   19  H   UNL     3     -11.142  11.994  68.724  1.00  0.00     0.000 HD 
BRANCH  17  20
HETATM   20  C   UNL     3      -9.871  11.309  66.545  1.00  0.00    -0.208 C  
HETATM   21  C   UNL     3     -10.106   9.777  66.577  1.00  0.00    -0.239 C  
HETATM   22  O   UNL     3      -8.928  11.762  65.532  1.00  0.00    -0.403 OA 
HETATM   23  O   UNL     3     -10.844   9.442  67.574  1.00  0.00    -0.269 OA 
HETATM   24  O   UNL     3      -9.492   9.057  65.764  1.00  0.00    -0.245 OA 
HETATM   25  H   UNL     3      -9.266  11.517  64.679  1.00  0.00     0.000 HD 
ENDBRANCH  17  20
ENDBRANCH   7  17
TORSDOF 4
ENDMDL
MODEL       30
REMARK 921   NORMALIZED FREE ENERGY PREDICTED BY IDOCK:   -4.56 KCAL/MOL
REMARK 922        TOTAL FREE ENERGY PREDICTED BY IDOCK:   -6.81 KCAL/MOL
REMARK 923 INTER-LIGAND FREE ENERGY PREDICTED BY IDOCK:   -6.74 KCAL/MOL
REMARK 924 INTRA-LIGAND FREE ENERGY PREDICTED BY IDOCK:   -0.07 KCAL/MOL
REMARK 927      BINDING AFFINITY PREDICTED BY RF-SCORE:    0.00 PKD
ROOT
HETATM    1 CA   UNL     1     -10.493  12.221  69.453  1.00  0.00    -0.290 Ca 
HETATM    2  O   UNL     2      -9.959  10.916  67.025  1.00  0.00    -0.183 OA 
HETATM    3  O   UNL     3     -11.789  16.330  71.542  1.00  0.00    -0.577 OA 
HETATM    4  C   UNL     2     -10.787  11.620  66.042  1.00  0.00    -0.289 C  
HETATM    5  H   UNL     2      -9.782  10.077  66.617  1.00  0.00     0.000 HD 
HETATM    6  H   UNL     3     -12.422  16.616  72.190  1.00  0.00     0.000 HD 
HETATM    7  C   UNL     3     -12.424  15.880  70.352  1.00  0.00    -0.158 C  
ENDROOT
BRANCH   4   8
HETATM    8  C   UNL     2     -11.070  12.959  66.692  1.00  0.00    -0.284 C  
HETATM    9  H   UNL     2     -12.259  13.551  68.121  1.00  0.00     0.000 HD 
HETATM   10  O   UNL     2     -12.082  12.712  67.714  1.00  0.00    -0.362 OA 
BRANCH   8  11
HETATM   11  C   UNL     2     -11.372  14.125  65.778  1.00  0.00    -0.317 C  
HETATM   12  O   UNL     2     -12.554  14.524  63.754  1.00  0.00    -0.825 OA 
HETATM   13  H   UNL     2     -10.298  15.312  64.667  1.00  0.00     0.000 HD 
HETATM   14  O   UNL     2     -13.159  12.762  65.106  1.00  0.00    -0.750 OA 
HETATM   15  O   UNL     2     -10.109  14.579  65.241  1.00  0.00    -0.369 OA 
HETATM   16  C   UNL     2     -12.443  13.759  64.733  1.00  0.00    -0.349 C  
ENDBRANCH   8  11
ENDBRANCH   4   8
BRANCH   7  17
HETATM   17  C   UNL     3     -11.401  15.417  69.302  1.00  0.00    -0.315 C  
HETATM   18  O   UNL     3     -10.586  14.315  69.854  1.00  0.00    -0.445 OA 
HETATM   19  H   UNL     3      -9.953  14.029  69.205  1.00  0.00     0.000 HD 
BRANCH  17  20
HETATM   20  C   UNL     3     -10.547  16.514  68.651  1.00  0.00    -0.316 C  
HETATM   21  C   UNL     3      -9.081  16.010  68.664  1.00  0.00    -0.213 C  
HETATM   22  O   UNL     3     -10.772  17.757  69.375  1.00  0.00    -0.347 OA 
HETATM   23  O   UNL     3      -8.985  14.849  68.120  1.00  0.00    -0.167 OA 
HETATM   24  O   UNL     3      -8.221  16.676  69.274  1.00  0.00    -0.183 OA 
HETATM   25  H   UNL     3     -10.243  18.437  68.972  1.00  0.00     0.000 HD 
ENDBRANCH  17  20
ENDBRANCH   7  17
TORSDOF 4
ENDMDL
MODEL       31
REMARK 921   NORMALIZED FREE ENERGY PREDICTED BY IDOCK:   -4.54 KCAL/MOL
REMARK 922        TOTAL FREE ENERGY PREDICTED BY IDOCK:   -6.78 KCAL/MOL
REMARK 923 INTER-LIGAND FREE ENERGY PREDICTED BY IDOCK:   -5.60 KCAL/MOL
REMARK 924 INTRA-LIGAND FREE ENERGY PREDICTED BY IDOCK:   -1.18 KCAL/MOL
REMARK 927      BINDING AFFINITY PREDICTED BY RF-SCORE:    0.00 PKD
ROOT
HETATM    1 CA   UNL     1     -12.930  14.777  64.937  1.00  0.00    -0.425 Ca 
HETATM    2  O   UNL     2     -13.008  12.253  63.709  1.00  0.00    -0.766 OA 
HETATM    3  O   UNL     3     -10.975  17.435  68.407  1.00  0.00    -0.285 OA 
HETATM    4  C   UNL     2     -11.673  11.694  63.936  1.00  0.00    -0.273 C  
HETATM    5  H   UNL     2     -13.341  11.760  62.968  1.00  0.00     0.000 HD 
HETATM    6  H   UNL     3     -10.567  18.289  68.488  1.00  0.00     0.000 HD 
HETATM    7  C   UNL     3     -10.184  16.545  67.631  1.00  0.00    -0.279 C  
ENDROOT
BRANCH   4   8
HETATM    8  C   UNL     2     -11.142  12.481  65.118  1.00  0.00    -0.299 C  
HETATM    9  H   UNL     2     -10.421  14.280  65.339  1.00  0.00     0.000 HD 
HETATM   10  O   UNL     2     -10.754  13.788  64.598  1.00  0.00    -0.387 OA 
BRANCH   8  11
HETATM   11  C   UNL     2     -10.097  11.812  65.983  1.00  0.00    -0.231 C  
HETATM   12  O   UNL     2      -9.898  11.013  68.214  1.00  0.00    -0.166 OA 
HETATM   13  H   UNL     2      -8.345  12.325  66.662  1.00  0.00     0.000 HD 
HETATM   14  O   UNL     2     -11.972  11.139  67.222  1.00  0.00    -0.452 OA 
HETATM   15  O   UNL     2      -9.001  12.745  66.119  1.00  0.00    -0.034 OA 
HETATM   16  C   UNL     2     -10.703  11.304  67.306  1.00  0.00    -0.251 C  
ENDBRANCH   8  11
ENDBRANCH   4   8
BRANCH   7  17
HETATM   17  C   UNL     3     -10.845  15.164  67.500  1.00  0.00    -0.301 C  
HETATM   18  O   UNL     3     -12.223  15.318  66.991  1.00  0.00    -0.054 OA 
HETATM   19  H   UNL     3     -12.632  14.464  66.910  1.00  0.00     0.000 HD 
BRANCH  17  20
HETATM   20  C   UNL     3     -10.770  14.251  68.732  1.00  0.00    -0.254 C  
HETATM   21  C   UNL     3     -11.454  15.011  69.897  1.00  0.00    -0.289 C  
HETATM   22  O   UNL     3      -9.373  13.909  68.962  1.00  0.00    -0.399 OA 
HETATM   23  O   UNL     3     -12.638  15.391  69.570  1.00  0.00    -0.154 OA 
HETATM   24  O   UNL     3     -10.788  15.274  70.918  1.00  0.00    -0.301 OA 
HETATM   25  H   UNL     3      -9.326  13.344  69.725  1.00  0.00     0.000 HD 
ENDBRANCH  17  20
ENDBRANCH   7  17
TORSDOF 4
ENDMDL
MODEL       32
REMARK 921   NORMALIZED FREE ENERGY PREDICTED BY IDOCK:   -4.53 KCAL/MOL
REMARK 922        TOTAL FREE ENERGY PREDICTED BY IDOCK:   -6.77 KCAL/MOL
REMARK 923 INTER-LIGAND FREE ENERGY PREDICTED BY IDOCK:   -5.61 KCAL/MOL
REMARK 924 INTRA-LIGAND FREE ENERGY PREDICTED BY IDOCK:   -1.16 KCAL/MOL
REMARK 927      BINDING AFFINITY PREDICTED BY RF-SCORE:    0.00 PKD
ROOT
HETATM    1 CA   UNL     1     -12.721  16.181  68.390  1.00  0.00    -0.443 Ca 
HETATM    2  O   UNL     2     -11.279  18.559  68.004  1.00  0.00    -0.115 OA 
HETATM    3  O   UNL     3     -12.496  11.402  68.603  1.00  0.00    -0.396 OA 
HETATM    4  C   UNL     2      -9.923  18.243  68.459  1.00  0.00    -0.393 C  
HETATM    5  H   UNL     2     -11.321  19.507  68.045  1.00  0.00     0.000 HD 
HETATM    6  H   UNL     3     -12.789  10.714  69.188  1.00  0.00     0.000 HD 
HETATM    7  C   UNL     3     -11.493  12.211  69.204  1.00  0.00    -0.296 C  
ENDROOT
BRANCH   4   8
HETATM    8  C   UNL     2      -9.857  16.730  68.394  1.00  0.00    -0.253 C  
HETATM    9  H   UNL     2     -10.741  15.288  69.366  1.00  0.00     0.000 HD 
HETATM   10  O   UNL     2     -10.783  16.236  69.408  1.00  0.00    -0.273 OA 
BRANCH   8  11
HETATM   11  C   UNL     2      -8.486  16.093  68.429  1.00  0.00    -0.184 C  
HETATM   12  O   UNL     2      -7.085  14.831  66.981  1.00  0.00    -0.144 OA 
HETATM   13  H   UNL     2      -7.664  14.664  69.466  1.00  0.00     0.000 HD 
HETATM   14  O   UNL     2      -8.673  16.244  66.096  1.00  0.00    -0.316 OA 
HETATM   15  O   UNL     2      -8.525  15.063  69.444  1.00  0.00    -0.191 OA 
HETATM   16  C   UNL     2      -8.045  15.627  67.028  1.00  0.00    -0.241 C  
ENDBRANCH   8  11
ENDBRANCH   4   8
BRANCH   7  17
HETATM   17  C   UNL     3     -11.019  13.325  68.257  1.00  0.00    -0.256 C  
HETATM   18  O   UNL     3     -12.178  14.127  67.813  1.00  0.00    -0.548 OA 
HETATM   19  H   UNL     3     -11.885  14.816  67.228  1.00  0.00     0.000 HD 
BRANCH  17  20
HETATM   20  C   UNL     3     -10.119  12.893  67.091  1.00  0.00    -0.243 C  
HETATM   21  C   UNL     3     -10.920  11.854  66.265  1.00  0.00    -0.302 C  
HETATM   22  O   UNL     3      -8.864  12.401  67.640  1.00  0.00    -0.160 OA 
HETATM   23  O   UNL     3     -12.070  12.319  65.925  1.00  0.00    -0.609 OA 
HETATM   24  O   UNL     3     -10.457  10.704  66.133  1.00  0.00    -0.243 OA 
HETATM   25  H   UNL     3      -8.307  12.133  66.919  1.00  0.00     0.000 HD 
ENDBRANCH  17  20
ENDBRANCH   7  17
TORSDOF 4
ENDMDL
MODEL       33
REMARK 921   NORMALIZED FREE ENERGY PREDICTED BY IDOCK:   -4.52 KCAL/MOL
REMARK 922        TOTAL FREE ENERGY PREDICTED BY IDOCK:   -6.76 KCAL/MOL
REMARK 923 INTER-LIGAND FREE ENERGY PREDICTED BY IDOCK:   -6.05 KCAL/MOL
REMARK 924 INTRA-LIGAND FREE ENERGY PREDICTED BY IDOCK:   -0.71 KCAL/MOL
REMARK 927      BINDING AFFINITY PREDICTED BY RF-SCORE:    0.00 PKD
ROOT
HETATM    1 CA   UNL     1      -8.692  11.572  68.155  1.00  0.00    -0.117 Ca 
HETATM    2  O   UNL     2      -8.074  10.995  65.477  1.00  0.00    -0.336 OA 
HETATM    3  O   UNL     3     -11.556  14.003  71.124  1.00  0.00    -0.477 OA 
HETATM    4  C   UNL     2      -9.345  11.153  64.766  1.00  0.00    -0.185 C  
HETATM    5  H   UNL     2      -7.555  10.446  64.902  1.00  0.00     0.000 HD 
HETATM    6  H   UNL     3     -12.079  13.822  71.896  1.00  0.00     0.000 HD 
HETATM    7  C   UNL     3     -12.077  13.353  69.972  1.00  0.00    -0.334 C  
ENDROOT
BRANCH   4   8
HETATM    8  C   UNL     2     -10.173  12.029  65.685  1.00  0.00    -0.252 C  
HETATM    9  H   UNL     2     -10.962  11.780  67.452  1.00  0.00     0.000 HD 
HETATM   10  O   UNL     2     -10.443  11.231  66.876  1.00  0.00    -0.224 OA 
BRANCH   8  11
HETATM   11  C   UNL     2     -11.390  12.703  65.091  1.00  0.00    -0.308 C  
HETATM   12  O   UNL     2     -12.177  14.915  64.714  1.00  0.00    -0.373 OA 
HETATM   13  H   UNL     2     -13.284  12.763  65.543  1.00  0.00     0.000 HD 
HETATM   14  O   UNL     2      -9.915  14.512  64.859  1.00  0.00    -0.307 OA 
HETATM   15  O   UNL     2     -12.520  12.340  65.916  1.00  0.00    -0.535 OA 
HETATM   16  C   UNL     2     -11.161  14.216  64.907  1.00  0.00    -0.373 C  
ENDBRANCH   8  11
ENDBRANCH   4   8
BRANCH   7  17
HETATM   17  C   UNL     3     -11.231  13.646  68.723  1.00  0.00    -0.279 C  
HETATM   18  O   UNL     3      -9.841  13.193  68.945  1.00  0.00    -0.415 OA 
HETATM   19  H   UNL     3      -9.318  13.375  68.173  1.00  0.00     0.000 HD 
BRANCH  17  20
HETATM   20  C   UNL     3     -11.304  15.076  68.169  1.00  0.00    -0.330 C  
HETATM   21  C   UNL     3      -9.905  15.711  68.377  1.00  0.00    -0.206 C  
HETATM   22  O   UNL     3     -12.395  15.769  68.837  1.00  0.00    -0.565 OA 
HETATM   23  O   UNL     3      -8.981  14.975  67.869  1.00  0.00    -0.171 OA 
HETATM   24  O   UNL     3      -9.808  16.736  69.081  1.00  0.00    -0.263 OA 
HETATM   25  H   UNL     3     -12.441  16.655  68.495  1.00  0.00     0.000 HD 
ENDBRANCH  17  20
ENDBRANCH   7  17
TORSDOF 4
ENDMDL
MODEL       34
REMARK 921   NORMALIZED FREE ENERGY PREDICTED BY IDOCK:   -4.51 KCAL/MOL
REMARK 922        TOTAL FREE ENERGY PREDICTED BY IDOCK:   -6.74 KCAL/MOL
REMARK 923 INTER-LIGAND FREE ENERGY PREDICTED BY IDOCK:   -6.04 KCAL/MOL
REMARK 924 INTRA-LIGAND FREE ENERGY PREDICTED BY IDOCK:   -0.70 KCAL/MOL
REMARK 927      BINDING AFFINITY PREDICTED BY RF-SCORE:    0.00 PKD
ROOT
HETATM    1 CA   UNL     1     -11.167  11.413  68.522  1.00  0.00    -0.168 Ca 
HETATM    2  O   UNL     2     -11.638  13.741  70.019  1.00  0.00    -0.390 OA 
HETATM    3  O   UNL     3      -9.580   9.622  64.375  1.00  0.00    -0.428 OA 
HETATM    4  C   UNL     2     -10.651  14.702  69.521  1.00  0.00    -0.149 C  
HETATM    5  H   UNL     2     -11.877  14.079  70.874  1.00  0.00     0.000 HD 
HETATM    6  H   UNL     3      -8.977   8.946  64.090  1.00  0.00     0.000 HD 
HETATM    7  C   UNL     3      -8.902  10.693  65.018  1.00  0.00    -0.197 C  
ENDROOT
BRANCH   4   8
HETATM    8  C   UNL     2     -10.269  14.162  68.157  1.00  0.00    -0.241 C  
HETATM    9  H   UNL     2      -9.163  12.676  67.545  1.00  0.00     0.000 HD 
HETATM   10  O   UNL     2      -9.402  13.014  68.400  1.00  0.00    -0.206 OA 
BRANCH   8  11
HETATM   11  C   UNL     2      -9.735  15.150  67.144  1.00  0.00    -0.228 C  
HETATM   12  O   UNL     2     -10.411  16.094  65.069  1.00  0.00    -0.595 OA 
HETATM   13  H   UNL     2      -8.187  15.204  65.963  1.00  0.00     0.000 HD 
HETATM   14  O   UNL     2     -11.997  15.320  66.547  1.00  0.00     0.038 OA 
HETATM   15  O   UNL     2      -8.522  14.584  66.599  1.00  0.00    -0.149 OA 
HETATM   16  C   UNL     2     -10.811  15.533  66.110  1.00  0.00    -0.295 C  
ENDBRANCH   8  11
ENDBRANCH   4   8
BRANCH   7  17
HETATM   17  C   UNL     3      -9.877  11.788  65.479  1.00  0.00    -0.234 C  
HETATM   18  O   UNL     3     -10.908  11.198  66.359  1.00  0.00    -0.270 OA 
HETATM   19  H   UNL     3     -11.510  11.875  66.644  1.00  0.00     0.000 HD 
BRANCH  17  20
HETATM   20  C   UNL     3     -10.478  12.674  64.379  1.00  0.00    -0.373 C  
HETATM   21  C   UNL     3     -11.996  12.363  64.330  1.00  0.00    -0.410 C  
HETATM   22  O   UNL     3      -9.760  12.414  63.140  1.00  0.00    -0.530 OA 
HETATM   23  O   UNL     3     -12.534  12.492  65.489  1.00  0.00    -0.646 OA 
HETATM   24  O   UNL     3     -12.486  11.922  63.270  1.00  0.00    -0.571 OA 
HETATM   25  H   UNL     3     -10.132  12.962  62.458  1.00  0.00     0.000 HD 
ENDBRANCH  17  20
ENDBRANCH   7  17
TORSDOF 4
ENDMDL
MODEL       35
REMARK 921   NORMALIZED FREE ENERGY PREDICTED BY IDOCK:   -4.49 KCAL/MOL
REMARK 922        TOTAL FREE ENERGY PREDICTED BY IDOCK:   -6.71 KCAL/MOL
REMARK 923 INTER-LIGAND FREE ENERGY PREDICTED BY IDOCK:   -6.75 KCAL/MOL
REMARK 924 INTRA-LIGAND FREE ENERGY PREDICTED BY IDOCK:    0.03 KCAL/MOL
REMARK 927      BINDING AFFINITY PREDICTED BY RF-SCORE:    0.00 PKD
ROOT
HETATM    1 CA   UNL     1     -13.035  13.979  68.278  1.00  0.00    -0.504 Ca 
HETATM    2  O   UNL     2     -11.996  12.928  70.666  1.00  0.00    -0.508 OA 
HETATM    3  O   UNL     3     -12.753  13.983  63.498  1.00  0.00    -0.880 OA 
HETATM    4  C   UNL     2     -11.493  11.603  70.294  1.00  0.00    -0.026 C  
HETATM    5  H   UNL     2     -12.115  12.873  71.606  1.00  0.00     0.000 HD 
HETATM    6  H   UNL     3     -13.348  13.898  62.762  1.00  0.00     0.000 HD 
HETATM    7  C   UNL     3     -12.656  12.773  64.237  1.00  0.00    -0.324 C  
ENDROOT
BRANCH   4   8
HETATM    8  C   UNL     2     -11.302  11.691  68.793  1.00  0.00    -0.264 C  
HETATM    9  H   UNL     2     -12.147  10.823  67.263  1.00  0.00     0.000 HD 
HETATM   10  O   UNL     2     -12.266  10.767  68.203  1.00  0.00    -0.399 OA 
BRANCH   8  11
HETATM   11  C   UNL     2      -9.893  11.552  68.262  1.00  0.00    -0.203 C  
HETATM   12  O   UNL     2      -8.181  12.960  67.403  1.00  0.00    -0.169 OA 
HETATM   13  H   UNL     2      -9.085  10.666  66.727  1.00  0.00     0.000 HD 
HETATM   14  O   UNL     2      -9.762  13.822  68.838  1.00  0.00    -0.114 OA 
HETATM   15  O   UNL     2      -9.970  10.753  67.060  1.00  0.00    -0.186 OA 
HETATM   16  C   UNL     2      -9.213  12.926  68.103  1.00  0.00    -0.212 C  
ENDBRANCH   8  11
ENDBRANCH   4   8
BRANCH   7  17
HETATM   17  C   UNL     3     -11.694  12.910  65.428  1.00  0.00    -0.375 C  
HETATM   18  O   UNL     3     -12.451  13.295  66.638  1.00  0.00    -0.278 OA 
HETATM   19  H   UNL     3     -11.856  13.379  67.373  1.00  0.00     0.000 HD 
BRANCH  17  20
HETATM   20  C   UNL     3     -10.453  13.786  65.206  1.00  0.00    -0.363 C  
HETATM   21  C   UNL     3     -10.870  15.246  65.519  1.00  0.00    -0.372 C  
HETATM   22  O   UNL     3      -9.975  13.565  63.848  1.00  0.00    -0.648 OA 
HETATM   23  O   UNL     3     -11.400  15.336  66.687  1.00  0.00    -0.285 OA 
HETATM   24  O   UNL     3     -10.777  16.105  64.620  1.00  0.00    -0.637 OA 
HETATM   25  H   UNL     3      -9.207  14.108  63.710  1.00  0.00     0.000 HD 
ENDBRANCH  17  20
ENDBRANCH   7  17
TORSDOF 4
ENDMDL
MODEL       36
REMARK 921   NORMALIZED FREE ENERGY PREDICTED BY IDOCK:   -4.48 KCAL/MOL
REMARK 922        TOTAL FREE ENERGY PREDICTED BY IDOCK:   -6.70 KCAL/MOL
REMARK 923 INTER-LIGAND FREE ENERGY PREDICTED BY IDOCK:   -5.60 KCAL/MOL
REMARK 924 INTRA-LIGAND FREE ENERGY PREDICTED BY IDOCK:   -1.11 KCAL/MOL
REMARK 927      BINDING AFFINITY PREDICTED BY RF-SCORE:    0.00 PKD
ROOT
HETATM    1 CA   UNL     1      -8.237  12.572  68.317  1.00  0.00    -0.119 Ca 
HETATM    2  O   UNL     2      -7.258  14.449  70.162  1.00  0.00    -0.396 OA 
HETATM    3  O   UNL     3     -10.732  11.912  64.284  1.00  0.00    -0.290 OA 
HETATM    4  C   UNL     2      -7.084  15.675  69.380  1.00  0.00    -0.198 C  
HETATM    5  H   UNL     2      -6.694  14.575  70.916  1.00  0.00     0.000 HD 
HETATM    6  H   UNL     3     -10.626  11.445  63.464  1.00  0.00     0.000 HD 
HETATM    7  C   UNL     3      -9.803  12.981  64.404  1.00  0.00     0.042 C  
ENDROOT
BRANCH   4   8
HETATM    8  C   UNL     2      -7.985  15.474  68.177  1.00  0.00    -0.131 C  
HETATM    9  H   UNL     2      -7.864  14.398  66.554  1.00  0.00     0.000 HD 
HETATM   10  O   UNL     2      -7.300  14.524  67.307  1.00  0.00    -0.189 OA 
BRANCH   8  11
HETATM   11  C   UNL     2      -8.495  16.714  67.477  1.00  0.00    -0.188 C  
HETATM   12  O   UNL     2     -10.563  17.847  67.171  1.00  0.00    -0.360 OA 
HETATM   13  H   UNL     2      -8.605  17.294  65.621  1.00  0.00     0.000 HD 
HETATM   14  O   UNL     2     -10.249  16.513  69.021  1.00  0.00    -0.250 OA 
HETATM   15  O   UNL     2      -8.285  16.515  66.060  1.00  0.00    -0.341 OA 
HETATM   16  C   UNL     2      -9.942  17.041  67.894  1.00  0.00    -0.281 C  
ENDBRANCH   8  11
ENDBRANCH   4   8
BRANCH   7  17
HETATM   17  C   UNL     3      -9.975  13.738  65.731  1.00  0.00    -0.275 C  
HETATM   18  O   UNL     3      -9.859  12.793  66.861  1.00  0.00    -0.226 OA 
HETATM   19  H   UNL     3      -9.966  13.260  67.681  1.00  0.00     0.000 HD 
BRANCH  17  20
HETATM   20  C   UNL     3     -11.209  14.644  65.845  1.00  0.00    -0.336 C  
HETATM   21  C   UNL     3     -12.453  13.722  65.777  1.00  0.00    -0.485 C  
HETATM   22  O   UNL     3     -11.136  15.649  64.793  1.00  0.00    -0.505 OA 
HETATM   23  O   UNL     3     -12.383  12.783  66.653  1.00  0.00    -0.456 OA 
HETATM   24  O   UNL     3     -13.280  13.891  64.858  1.00  0.00    -0.610 OA 
HETATM   25  H   UNL     3     -11.900  16.210  64.863  1.00  0.00     0.000 HD 
ENDBRANCH  17  20
ENDBRANCH   7  17
TORSDOF 4
ENDMDL
MODEL       37
REMARK 921   NORMALIZED FREE ENERGY PREDICTED BY IDOCK:   -4.42 KCAL/MOL
REMARK 922        TOTAL FREE ENERGY PREDICTED BY IDOCK:   -6.63 KCAL/MOL
REMARK 923 INTER-LIGAND FREE ENERGY PREDICTED BY IDOCK:   -6.55 KCAL/MOL
REMARK 924 INTRA-LIGAND FREE ENERGY PREDICTED BY IDOCK:   -0.08 KCAL/MOL
REMARK 927      BINDING AFFINITY PREDICTED BY RF-SCORE:    0.00 PKD
ROOT
HETATM    1 CA   UNL     1     -11.723  16.408  69.473  1.00  0.00    -0.286 Ca 
HETATM    2  O   UNL     2     -10.575  18.964  69.286  1.00  0.00    -0.315 OA 
HETATM    3  O   UNL     3     -12.155  12.099  67.428  1.00  0.00    -0.553 OA 
HETATM    4  C   UNL     2      -9.338  18.754  68.529  1.00  0.00    -0.350 C  
HETATM    5  H   UNL     2     -10.431  19.784  69.741  1.00  0.00     0.000 HD 
HETATM    6  H   UNL     3     -12.078  11.190  67.690  1.00  0.00     0.000 HD 
HETATM    7  C   UNL     3     -10.900  12.767  67.473  1.00  0.00    -0.239 C  
ENDROOT
BRANCH   4   8
HETATM    8  C   UNL     2      -9.568  17.444  67.804  1.00  0.00    -0.264 C  
HETATM    9  H   UNL     2     -11.157  16.418  67.323  1.00  0.00     0.000 HD 
HETATM   10  O   UNL     2     -11.013  17.239  67.778  1.00  0.00    -0.318 OA 
BRANCH   8  11
HETATM   11  C   UNL     2      -8.771  16.245  68.266  1.00  0.00    -0.190 C  
HETATM   12  O   UNL     2      -7.691  14.360  67.298  1.00  0.00    -0.192 OA 
HETATM   13  H   UNL     2      -9.152  14.687  69.372  1.00  0.00     0.000 HD 
HETATM   14  O   UNL     2      -7.991  16.274  66.054  1.00  0.00    -0.159 OA 
HETATM   15  O   UNL     2      -9.653  15.440  69.081  1.00  0.00    -0.220 OA 
HETATM   16  C   UNL     2      -8.114  15.514  67.079  1.00  0.00    -0.237 C  
ENDBRANCH   8  11
ENDBRANCH   4   8
BRANCH   7  17
HETATM   17  C   UNL     3     -11.025  14.239  67.048  1.00  0.00    -0.303 C  
HETATM   18  O   UNL     3     -12.187  14.855  67.723  1.00  0.00    -0.545 OA 
HETATM   19  H   UNL     3     -12.264  15.765  67.460  1.00  0.00     0.000 HD 
BRANCH  17  20
HETATM   20  C   UNL     3     -11.002  14.519  65.539  1.00  0.00    -0.335 C  
HETATM   21  C   UNL     3     -12.243  13.814  64.933  1.00  0.00    -0.415 C  
HETATM   22  O   UNL     3      -9.723  14.067  65.010  1.00  0.00    -0.574 OA 
HETATM   23  O   UNL     3     -13.320  14.169  65.537  1.00  0.00    -0.656 OA 
HETATM   24  O   UNL     3     -12.071  12.935  64.064  1.00  0.00    -0.397 OA 
HETATM   25  H   UNL     3      -9.709  14.240  64.076  1.00  0.00     0.000 HD 
ENDBRANCH  17  20
ENDBRANCH   7  17
TORSDOF 4
ENDMDL
MODEL       38
REMARK 921   NORMALIZED FREE ENERGY PREDICTED BY IDOCK:   -4.39 KCAL/MOL
REMARK 922        TOTAL FREE ENERGY PREDICTED BY IDOCK:   -6.59 KCAL/MOL
REMARK 923 INTER-LIGAND FREE ENERGY PREDICTED BY IDOCK:   -6.11 KCAL/MOL
REMARK 924 INTRA-LIGAND FREE ENERGY PREDICTED BY IDOCK:   -0.48 KCAL/MOL
REMARK 927      BINDING AFFINITY PREDICTED BY RF-SCORE:    0.00 PKD
ROOT
HETATM    1 CA   UNL     1     -13.797  13.552  65.272  1.00  0.00    -0.711 Ca 
HETATM    2  O   UNL     2     -13.021  11.778  63.237  1.00  0.00    -0.725 OA 
HETATM    3  O   UNL     3     -12.429  15.901  69.214  1.00  0.00    -0.491 OA 
HETATM    4  C   UNL     2     -11.579  11.995  63.093  1.00  0.00    -0.177 C  
HETATM    5  H   UNL     2     -13.278  11.383  62.413  1.00  0.00     0.000 HD 
HETATM    6  H   UNL     3     -12.469  16.789  69.548  1.00  0.00     0.000 HD 
HETATM    7  C   UNL     3     -11.571  15.802  68.084  1.00  0.00    -0.255 C  
ENDROOT
BRANCH   4   8
HETATM    8  C   UNL     2     -11.170  12.626  64.409  1.00  0.00    -0.346 C  
HETATM    9  H   UNL     2     -11.467  14.371  65.230  1.00  0.00     0.000 HD 
HETATM   10  O   UNL     2     -11.723  13.976  64.405  1.00  0.00    -0.392 OA 
BRANCH   8  11
HETATM   11  C   UNL     2      -9.709  12.547  64.792  1.00  0.00     0.049 C  
HETATM   12  O   UNL     2      -8.311  11.195  66.160  1.00  0.00    -0.169 OA 
HETATM   13  H   UNL     2      -8.475  13.714  65.746  1.00  0.00     0.000 HD 
HETATM   14  O   UNL     2     -10.261  10.325  65.300  1.00  0.00    -0.307 OA 
HETATM   15  O   UNL     2      -9.392  13.764  65.506  1.00  0.00     0.076 OA 
HETATM   16  C   UNL     2      -9.393  11.238  65.540  1.00  0.00    -0.221 C  
ENDBRANCH   8  11
ENDBRANCH   4   8
BRANCH   7  17
HETATM   17  C   UNL     3     -11.507  14.365  67.543  1.00  0.00    -0.349 C  
HETATM   18  O   UNL     3     -12.869  13.894  67.217  1.00  0.00    -0.191 OA 
HETATM   19  H   UNL     3     -12.829  13.006  66.883  1.00  0.00     0.000 HD 
BRANCH  17  20
HETATM   20  C   UNL     3     -10.720  13.352  68.388  1.00  0.00    -0.256 C  
HETATM   21  C   UNL     3     -11.670  12.158  68.658  1.00  0.00    -0.330 C  
HETATM   22  O   UNL     3     -10.237  14.031  69.582  1.00  0.00    -0.391 OA 
HETATM   23  O   UNL     3     -12.156  11.694  67.563  1.00  0.00    -0.611 OA 
HETATM   24  O   UNL     3     -11.951  11.867  69.839  1.00  0.00    -0.316 OA 
HETATM   25  H   UNL     3      -9.749  13.405  70.105  1.00  0.00     0.000 HD 
ENDBRANCH  17  20
ENDBRANCH   7  17
TORSDOF 4
ENDMDL
MODEL       39
REMARK 921   NORMALIZED FREE ENERGY PREDICTED BY IDOCK:   -4.37 KCAL/MOL
REMARK 922        TOTAL FREE ENERGY PREDICTED BY IDOCK:   -6.57 KCAL/MOL
REMARK 923 INTER-LIGAND FREE ENERGY PREDICTED BY IDOCK:   -6.63 KCAL/MOL
REMARK 924 INTRA-LIGAND FREE ENERGY PREDICTED BY IDOCK:    0.05 KCAL/MOL
REMARK 927      BINDING AFFINITY PREDICTED BY RF-SCORE:    0.00 PKD
ROOT
HETATM    1 CA   UNL     1     -10.980  17.508  65.358  1.00  0.00    -0.367 Ca 
HETATM    2  O   UNL     2      -8.580  18.760  66.104  1.00  0.00    -0.435 OA 
HETATM    3  O   UNL     3     -13.262  13.336  64.791  1.00  0.00    -0.629 OA 
HETATM    4  C   UNL     2      -7.968  17.836  67.062  1.00  0.00    -0.218 C  
HETATM    5  H   UNL     2      -8.165  19.594  66.291  1.00  0.00     0.000 HD 
HETATM    6  H   UNL     3     -14.094  12.954  65.045  1.00  0.00     0.000 HD 
HETATM    7  C   UNL     3     -12.425  13.567  65.917  1.00  0.00    -0.429 C  
ENDROOT
BRANCH   4   8
HETATM    8  C   UNL     2      -8.630  16.506  66.764  1.00  0.00    -0.230 C  
HETATM    9  H   UNL     2      -9.717  15.829  65.292  1.00  0.00     0.000 HD 
HETATM   10  O   UNL     2      -9.303  16.663  65.479  1.00  0.00    -0.461 OA 
BRANCH   8  11
HETATM   11  C   UNL     2      -9.487  15.898  67.852  1.00  0.00    -0.213 C  
HETATM   12  O   UNL     2     -10.979  16.638  69.548  1.00  0.00    -0.307 OA 
HETATM   13  H   UNL     2      -9.129  14.875  69.470  1.00  0.00     0.000 HD 
HETATM   14  O   UNL     2     -10.652  17.925  67.667  1.00  0.00    -0.390 OA 
HETATM   15  O   UNL     2      -8.590  15.257  68.787  1.00  0.00    -0.165 OA 
HETATM   16  C   UNL     2     -10.448  16.938  68.459  1.00  0.00    -0.361 C  
ENDBRANCH   8  11
ENDBRANCH   4   8
BRANCH   7  17
HETATM   17  C   UNL     3     -11.079  14.186  65.506  1.00  0.00    -0.310 C  
HETATM   18  O   UNL     3     -11.287  15.139  64.396  1.00  0.00    -0.627 OA 
HETATM   19  H   UNL     3     -10.456  15.521  64.143  1.00  0.00     0.000 HD 
BRANCH  17  20
HETATM   20  C   UNL     3      -9.931  13.204  65.233  1.00  0.00    -0.168 C  
HETATM   21  C   UNL     3     -10.515  12.061  64.363  1.00  0.00    -0.312 C  
HETATM   22  O   UNL     3      -9.380  12.778  66.511  1.00  0.00    -0.238 OA 
HETATM   23  O   UNL     3     -11.096  12.526  63.316  1.00  0.00    -0.438 OA 
HETATM   24  O   UNL     3     -10.478  10.893  64.800  1.00  0.00    -0.328 OA 
HETATM   25  H   UNL     3      -8.669  12.170  66.342  1.00  0.00     0.000 HD 
ENDBRANCH  17  20
ENDBRANCH   7  17
TORSDOF 4
ENDMDL
MODEL       40
REMARK 921   NORMALIZED FREE ENERGY PREDICTED BY IDOCK:   -4.35 KCAL/MOL
REMARK 922        TOTAL FREE ENERGY PREDICTED BY IDOCK:   -6.55 KCAL/MOL
REMARK 923 INTER-LIGAND FREE ENERGY PREDICTED BY IDOCK:   -6.66 KCAL/MOL
REMARK 924 INTRA-LIGAND FREE ENERGY PREDICTED BY IDOCK:    0.12 KCAL/MOL
REMARK 927      BINDING AFFINITY PREDICTED BY RF-SCORE:    0.00 PKD
ROOT
HETATM    1 CA   UNL     1      -8.603  15.413  65.121  1.00  0.00    -0.180 Ca 
HETATM    2  O   UNL     2      -7.326  17.874  65.570  1.00  0.00    -0.522 OA 
HETATM    3  O   UNL     3     -12.157  12.494  66.454  1.00  0.00    -0.576 OA 
HETATM    4  C   UNL     2      -8.382  18.743  66.095  1.00  0.00    -0.176 C  
HETATM    5  H   UNL     2      -6.671  18.479  65.243  1.00  0.00     0.000 HD 
HETATM    6  H   UNL     3     -12.853  12.003  66.034  1.00  0.00     0.000 HD 
HETATM    7  C   UNL     3     -12.363  13.896  66.343  1.00  0.00    -0.426 C  
ENDROOT
BRANCH   4   8
HETATM    8  C   UNL     2      -9.427  17.777  66.616  1.00  0.00    -0.292 C  
HETATM    9  H   UNL     2     -11.170  17.183  65.970  1.00  0.00     0.000 HD 
HETATM   10  O   UNL     2     -10.515  17.788  65.643  1.00  0.00    -0.613 OA 
BRANCH   8  11
HETATM   11  C   UNL     2      -9.868  17.940  68.054  1.00  0.00    -0.320 C  
HETATM   12  O   UNL     2     -10.170  19.702  69.622  1.00  0.00    -0.209 OA 
HETATM   13  H   UNL     2      -9.177  17.350  69.776  1.00  0.00     0.000 HD 
HETATM   14  O   UNL     2     -10.313  20.138  67.365  1.00  0.00    -0.398 OA 
HETATM   15  O   UNL     2      -8.900  17.248  68.874  1.00  0.00    -0.257 OA 
HETATM   16  C   UNL     2     -10.100  19.422  68.407  1.00  0.00    -0.444 C  
ENDBRANCH   8  11
ENDBRANCH   4   8
BRANCH   7  17
HETATM   17  C   UNL     3     -11.236  14.691  67.022  1.00  0.00    -0.344 C  
HETATM   18  O   UNL     3      -9.928  14.253  66.492  1.00  0.00    -0.264 OA 
HETATM   19  H   UNL     3      -9.232  14.744  66.911  1.00  0.00     0.000 HD 
BRANCH  17  20
HETATM   20  C   UNL     3     -11.264  14.740  68.556  1.00  0.00    -0.276 C  
HETATM   21  C   UNL     3     -11.268  13.272  69.053  1.00  0.00    -0.270 C  
HETATM   22  O   UNL     3     -12.418  15.528  68.967  1.00  0.00    -0.607 OA 
HETATM   23  O   UNL     3     -10.292  12.607  68.546  1.00  0.00    -0.234 OA 
HETATM   24  O   UNL     3     -12.227  12.873  69.745  1.00  0.00    -0.255 OA 
HETATM   25  H   UNL     3     -12.435  15.558  69.917  1.00  0.00     0.000 HD 
ENDBRANCH  17  20
ENDBRANCH   7  17
TORSDOF 4
ENDMDL
MODEL       41
REMARK 921   NORMALIZED FREE ENERGY PREDICTED BY IDOCK:   -4.34 KCAL/MOL
REMARK 922        TOTAL FREE ENERGY PREDICTED BY IDOCK:   -6.54 KCAL/MOL
REMARK 923 INTER-LIGAND FREE ENERGY PREDICTED BY IDOCK:   -6.60 KCAL/MOL
REMARK 924 INTRA-LIGAND FREE ENERGY PREDICTED BY IDOCK:    0.06 KCAL/MOL
REMARK 927      BINDING AFFINITY PREDICTED BY RF-SCORE:    0.00 PKD
ROOT
HETATM    1 CA   UNL     1      -7.683  16.510  65.555  1.00  0.00    -0.225 Ca 
HETATM    2  O   UNL     2      -6.587  17.897  67.737  1.00  0.00    -0.183 OA 
HETATM    3  O   UNL     3     -11.275  13.737  64.024  1.00  0.00    -0.580 OA 
HETATM    4  C   UNL     2      -7.743  18.245  68.567  1.00  0.00    -0.305 C  
HETATM    5  H   UNL     2      -5.915  18.512  68.007  1.00  0.00     0.000 HD 
HETATM    6  H   UNL     3     -11.881  13.718  63.293  1.00  0.00     0.000 HD 
HETATM    7  C   UNL     3     -11.518  14.846  64.880  1.00  0.00    -0.407 C  
ENDROOT
BRANCH   4   8
HETATM    8  C   UNL     2      -8.814  17.264  68.135  1.00  0.00    -0.239 C  
HETATM    9  H   UNL     2      -8.792  15.558  67.190  1.00  0.00     0.000 HD 
HETATM   10  O   UNL     2      -8.120  16.172  67.460  1.00  0.00    -0.136 OA 
BRANCH   8  11
HETATM   11  C   UNL     2     -10.000  17.819  67.378  1.00  0.00    -0.323 C  
HETATM   12  O   UNL     2     -10.431  19.506  65.758  1.00  0.00    -0.486 OA 
HETATM   13  H   UNL     2     -11.638  18.746  67.881  1.00  0.00     0.000 HD 
HETATM   14  O   UNL     2      -8.340  18.550  65.891  1.00  0.00    -0.494 OA 
HETATM   15  O   UNL     2     -10.893  18.398  68.357  1.00  0.00    -0.111 OA 
HETATM   16  C   UNL     2      -9.553  18.765  66.247  1.00  0.00    -0.297 C  
ENDBRANCH   8  11
ENDBRANCH   4   8
BRANCH   7  17
HETATM   17  C   UNL     3     -10.537  14.877  66.063  1.00  0.00    -0.315 C  
HETATM   18  O   UNL     3      -9.189  14.483  65.602  1.00  0.00    -0.501 OA 
HETATM   19  H   UNL     3      -8.583  14.503  66.333  1.00  0.00     0.000 HD 
BRANCH  17  20
HETATM   20  C   UNL     3     -10.970  14.125  67.329  1.00  0.00    -0.297 C  
HETATM   21  C   UNL     3     -11.046  12.622  66.956  1.00  0.00    -0.281 C  
HETATM   22  O   UNL     3     -12.222  14.702  67.798  1.00  0.00    -0.595 OA 
HETATM   23  O   UNL     3      -9.945  12.218  66.431  1.00  0.00    -0.219 OA 
HETATM   24  O   UNL     3     -12.136  12.027  67.073  1.00  0.00    -0.603 OA 
HETATM   25  H   UNL     3     -12.491  14.237  68.582  1.00  0.00     0.000 HD 
ENDBRANCH  17  20
ENDBRANCH   7  17
TORSDOF 4
ENDMDL
MODEL       42
REMARK 921   NORMALIZED FREE ENERGY PREDICTED BY IDOCK:   -4.32 KCAL/MOL
REMARK 922        TOTAL FREE ENERGY PREDICTED BY IDOCK:   -6.51 KCAL/MOL
REMARK 923 INTER-LIGAND FREE ENERGY PREDICTED BY IDOCK:   -6.50 KCAL/MOL
REMARK 924 INTRA-LIGAND FREE ENERGY PREDICTED BY IDOCK:   -0.01 KCAL/MOL
REMARK 927      BINDING AFFINITY PREDICTED BY RF-SCORE:    0.00 PKD
ROOT
HETATM    1 CA   UNL     1     -11.608  15.966  64.859  1.00  0.00    -0.336 Ca 
HETATM    2  O   UNL     2     -10.293  17.363  66.910  1.00  0.00    -0.320 OA 
HETATM    3  O   UNL     3     -12.451  11.682  62.894  1.00  0.00    -0.930 OA 
HETATM    4  C   UNL     2     -10.188  16.394  68.004  1.00  0.00    -0.264 C  
HETATM    5  H   UNL     2     -10.199  18.205  67.339  1.00  0.00     0.000 HD 
HETATM    6  H   UNL     3     -13.204  11.182  62.603  1.00  0.00     0.000 HD 
HETATM    7  C   UNL     3     -12.447  11.853  64.305  1.00  0.00    -0.188 C  
ENDROOT
BRANCH   4   8
HETATM    8  C   UNL     2     -10.337  15.050  67.319  1.00  0.00    -0.249 C  
HETATM    9  H   UNL     2     -10.171  14.439  65.473  1.00  0.00     0.000 HD 
HETATM   10  O   UNL     2     -10.078  15.282  65.902  1.00  0.00    -0.287 OA 
BRANCH   8  11
HETATM   11  C   UNL     2     -11.594  14.260  67.607  1.00  0.00    -0.368 C  
HETATM   12  O   UNL     2     -12.200  12.007  68.069  1.00  0.00    -0.454 OA 
HETATM   13  H   UNL     2     -13.214  13.845  66.607  1.00  0.00     0.000 HD 
HETATM   14  O   UNL     2     -10.078  12.750  68.568  1.00  0.00    -0.229 OA 
HETATM   15  O   UNL     2     -12.424  14.341  66.426  1.00  0.00    -0.441 OA 
HETATM   16  C   UNL     2     -11.265  12.834  68.090  1.00  0.00    -0.272 C  
ENDBRANCH   8  11
ENDBRANCH   4   8
BRANCH   7  17
HETATM   17  C   UNL     3     -11.228  12.662  64.776  1.00  0.00    -0.302 C  
HETATM   18  O   UNL     3     -11.004  13.802  63.863  1.00  0.00    -0.524 OA 
HETATM   19  H   UNL     3     -10.251  14.302  64.154  1.00  0.00     0.000 HD 
BRANCH  17  20
HETATM   20  C   UNL     3      -9.944  11.866  65.050  1.00  0.00    -0.248 C  
HETATM   21  C   UNL     3      -9.586  11.124  63.737  1.00  0.00    -0.271 C  
HETATM   22  O   UNL     3     -10.180  11.000  66.196  1.00  0.00    -0.232 OA 
HETATM   23  O   UNL     3      -9.521  11.940  62.746  1.00  0.00    -0.315 OA 
HETATM   24  O   UNL     3      -9.528   9.878  63.746  1.00  0.00    -0.268 OA 
HETATM   25  H   UNL     3      -9.386  10.507  66.367  1.00  0.00     0.000 HD 
ENDBRANCH  17  20
ENDBRANCH   7  17
TORSDOF 4
ENDMDL
MODEL       43
REMARK 921   NORMALIZED FREE ENERGY PREDICTED BY IDOCK:   -4.30 KCAL/MOL
REMARK 922        TOTAL FREE ENERGY PREDICTED BY IDOCK:   -6.49 KCAL/MOL
REMARK 923 INTER-LIGAND FREE ENERGY PREDICTED BY IDOCK:   -6.39 KCAL/MOL
REMARK 924 INTRA-LIGAND FREE ENERGY PREDICTED BY IDOCK:   -0.10 KCAL/MOL
REMARK 927      BINDING AFFINITY PREDICTED BY RF-SCORE:    0.00 PKD
ROOT
HETATM    1 CA   UNL     1     -12.167  11.203  63.449  1.00  0.00    -0.554 Ca 
HETATM    2  O   UNL     2     -12.554  13.963  63.108  1.00  0.00    -1.057 OA 
HETATM    3  O   UNL     3      -9.773   7.803  65.823  1.00  0.00    -0.403 OA 
HETATM    4  C   UNL     2     -12.225  14.543  64.412  1.00  0.00    -0.458 C  
HETATM    5  H   UNL     2     -13.092  14.626  62.691  1.00  0.00     0.000 HD 
HETATM    6  H   UNL     3      -9.976   7.004  66.296  1.00  0.00     0.000 HD 
HETATM    7  C   UNL     3     -10.271   8.953  66.494  1.00  0.00    -0.249 C  
ENDROOT
BRANCH   4   8
HETATM    8  C   UNL     2     -11.366  13.486  65.078  1.00  0.00    -0.320 C  
HETATM    9  H   UNL     2     -11.741  11.773  65.933  1.00  0.00     0.000 HD 
HETATM   10  O   UNL     2     -12.279  12.435  65.517  1.00  0.00    -0.568 OA 
BRANCH   8  11
HETATM   11  C   UNL     2     -10.387  13.950  66.132  1.00  0.00    -0.301 C  
HETATM   12  O   UNL     2     -10.445  15.072  68.228  1.00  0.00    -0.231 OA 
HETATM   13  H   UNL     2      -8.925  15.237  66.178  1.00  0.00     0.000 HD 
HETATM   14  O   UNL     2     -12.285  13.889  67.509  1.00  0.00    -0.366 OA 
HETATM   15  O   UNL     2      -9.541  14.946  65.515  1.00  0.00    -0.296 OA 
HETATM   16  C   UNL     2     -11.112  14.398  67.416  1.00  0.00    -0.308 C  
ENDBRANCH   8  11
ENDBRANCH   4   8
BRANCH   7  17
HETATM   17  C   UNL     3      -9.941  10.244  65.728  1.00  0.00    -0.271 C  
HETATM   18  O   UNL     3     -10.369  10.111  64.320  1.00  0.00    -0.417 OA 
HETATM   19  H   UNL     3     -10.166  10.909  63.847  1.00  0.00     0.000 HD 
BRANCH  17  20
HETATM   20  C   UNL     3      -8.505  10.769  65.861  1.00  0.00    -0.166 C  
HETATM   21  C   UNL     3      -7.564   9.628  65.397  1.00  0.00    -0.111 C  
HETATM   22  O   UNL     3      -8.304  11.206  67.235  1.00  0.00    -0.129 OA 
HETATM   23  O   UNL     3      -7.886   9.209  64.225  1.00  0.00    -0.115 OA 
HETATM   24  O   UNL     3      -6.728   9.172  66.202  1.00  0.00    -0.072 OA 
HETATM   25  H   UNL     3      -7.414  11.531  67.318  1.00  0.00     0.000 HD 
ENDBRANCH  17  20
ENDBRANCH   7  17
TORSDOF 4
ENDMDL
MODEL       44
REMARK 921   NORMALIZED FREE ENERGY PREDICTED BY IDOCK:   -4.27 KCAL/MOL
REMARK 922        TOTAL FREE ENERGY PREDICTED BY IDOCK:   -6.45 KCAL/MOL
REMARK 923 INTER-LIGAND FREE ENERGY PREDICTED BY IDOCK:   -6.59 KCAL/MOL
REMARK 924 INTRA-LIGAND FREE ENERGY PREDICTED BY IDOCK:    0.14 KCAL/MOL
REMARK 927      BINDING AFFINITY PREDICTED BY RF-SCORE:    0.00 PKD
ROOT
HETATM    1 CA   UNL     1     -13.034  12.800  65.513  1.00  0.00    -0.442 Ca 
HETATM    2  O   UNL     2     -12.161  14.868  63.826  1.00  0.00    -0.941 OA 
HETATM    3  O   UNL     3     -12.125  10.268  69.474  1.00  0.00    -0.495 OA 
HETATM    4  C   UNL     2     -11.401  15.761  64.705  1.00  0.00    -0.337 C  
HETATM    5  H   UNL     2     -12.394  15.417  63.086  1.00  0.00     0.000 HD 
HETATM    6  H   UNL     3     -12.595   9.998  70.254  1.00  0.00     0.000 HD 
HETATM    7  C   UNL     3     -11.928  11.676  69.442  1.00  0.00    -0.316 C  
ENDROOT
BRANCH   4   8
HETATM    8  C   UNL     2     -11.030  14.885  65.885  1.00  0.00    -0.338 C  
HETATM    9  H   UNL     2     -12.046  14.031  67.315  1.00  0.00     0.000 HD 
HETATM   10  O   UNL     2     -12.278  14.580  66.576  1.00  0.00    -0.381 OA 
BRANCH   8  11
HETATM   11  C   UNL     2      -9.915  15.368  66.785  1.00  0.00    -0.249 C  
HETATM   12  O   UNL     2      -9.625  16.923  68.560  1.00  0.00    -0.244 OA 
HETATM   13  H   UNL     2      -8.235  16.312  66.502  1.00  0.00     0.000 HD 
HETATM   14  O   UNL     2     -11.699  16.003  68.170  1.00  0.00    -0.259 OA 
HETATM   15  O   UNL     2      -8.935  16.009  65.937  1.00  0.00    -0.326 OA 
HETATM   16  C   UNL     2     -10.458  16.231  67.940  1.00  0.00    -0.295 C  
ENDBRANCH   8  11
ENDBRANCH   4   8
BRANCH   7  17
HETATM   17  C   UNL     3     -11.168  12.114  68.179  1.00  0.00    -0.267 C  
HETATM   18  O   UNL     3     -11.821  11.544  66.983  1.00  0.00    -0.568 OA 
HETATM   19  H   UNL     3     -11.351  11.814  66.203  1.00  0.00     0.000 HD 
BRANCH  17  20
HETATM   20  C   UNL     3      -9.649  11.892  68.185  1.00  0.00    -0.195 C  
HETATM   21  C   UNL     3      -9.281  11.267  66.815  1.00  0.00    -0.175 C  
HETATM   22  O   UNL     3      -9.312  11.073  69.340  1.00  0.00    -0.405 OA 
HETATM   23  O   UNL     3      -9.724  11.984  65.844  1.00  0.00    -0.235 OA 
HETATM   24  O   UNL     3      -8.742  10.143  66.791  1.00  0.00    -0.126 OA 
HETATM   25  H   UNL     3      -8.371  10.935  69.344  1.00  0.00     0.000 HD 
ENDBRANCH  17  20
ENDBRANCH   7  17
TORSDOF 4
ENDMDL
MODEL       45
REMARK 921   NORMALIZED FREE ENERGY PREDICTED BY IDOCK:   -4.25 KCAL/MOL
REMARK 922        TOTAL FREE ENERGY PREDICTED BY IDOCK:   -6.42 KCAL/MOL
REMARK 923 INTER-LIGAND FREE ENERGY PREDICTED BY IDOCK:   -6.29 KCAL/MOL
REMARK 924 INTRA-LIGAND FREE ENERGY PREDICTED BY IDOCK:   -0.13 KCAL/MOL
REMARK 927      BINDING AFFINITY PREDICTED BY RF-SCORE:    0.00 PKD
ROOT
HETATM    1 CA   UNL     1     -10.666  18.147  69.224  1.00  0.00    -0.368 Ca 
HETATM    2  O   UNL     2     -10.391  20.503  67.721  1.00  0.00    -0.270 OA 
HETATM    3  O   UNL     3     -10.694  13.360  69.118  1.00  0.00    -0.396 OA 
HETATM    4  C   UNL     2      -9.525  20.123  66.601  1.00  0.00    -0.391 C  
HETATM    5  H   UNL     2     -10.305  21.448  67.767  1.00  0.00     0.000 HD 
HETATM    6  H   UNL     3     -10.287  12.648  69.596  1.00  0.00     0.000 HD 
HETATM    7  C   UNL     3      -9.740  14.105  68.372  1.00  0.00    -0.226 C  
ENDROOT
BRANCH   4   8
HETATM    8  C   UNL     2      -9.662  18.615  66.527  1.00  0.00    -0.351 C  
HETATM    9  H   UNL     2     -10.925  17.327  67.270  1.00  0.00     0.000 HD 
HETATM   10  O   UNL     2     -10.839  18.272  67.317  1.00  0.00    -0.373 OA 
BRANCH   8  11
HETATM   11  C   UNL     2      -8.433  17.791  66.840  1.00  0.00    -0.243 C  
HETATM   12  O   UNL     2      -6.529  17.924  68.259  1.00  0.00    -0.185 OA 
HETATM   13  H   UNL     2      -6.873  17.213  65.826  1.00  0.00     0.000 HD 
HETATM   14  O   UNL     2      -8.467  19.026  68.834  1.00  0.00    -0.335 OA 
HETATM   15  O   UNL     2      -7.645  17.730  65.630  1.00  0.00    -0.541 OA 
HETATM   16  C   UNL     2      -7.698  18.326  68.084  1.00  0.00    -0.279 C  
ENDBRANCH   8  11
ENDBRANCH   4   8
BRANCH   7  17
HETATM   17  C   UNL     3     -10.398  15.258  67.598  1.00  0.00    -0.250 C  
HETATM   18  O   UNL     3     -11.590  15.734  68.332  1.00  0.00    -0.373 OA 
HETATM   19  H   UNL     3     -11.997  16.446  67.854  1.00  0.00     0.000 HD 
BRANCH  17  20
HETATM   20  C   UNL     3     -10.684  15.007  66.110  1.00  0.00    -0.327 C  
HETATM   21  C   UNL     3     -11.486  13.684  66.023  1.00  0.00    -0.324 C  
HETATM   22  O   UNL     3      -9.414  15.000  65.397  1.00  0.00    -0.419 OA 
HETATM   23  O   UNL     3     -12.525  13.720  66.779  1.00  0.00    -0.366 OA 
HETATM   24  O   UNL     3     -11.008  12.732  65.374  1.00  0.00    -0.276 OA 
HETATM   25  H   UNL     3      -9.590  14.845  64.476  1.00  0.00     0.000 HD 
ENDBRANCH  17  20
ENDBRANCH   7  17
TORSDOF 4
ENDMDL
MODEL       46
REMARK 921   NORMALIZED FREE ENERGY PREDICTED BY IDOCK:   -4.23 KCAL/MOL
REMARK 922        TOTAL FREE ENERGY PREDICTED BY IDOCK:   -6.40 KCAL/MOL
REMARK 923 INTER-LIGAND FREE ENERGY PREDICTED BY IDOCK:   -6.17 KCAL/MOL
REMARK 924 INTRA-LIGAND FREE ENERGY PREDICTED BY IDOCK:   -0.23 KCAL/MOL
REMARK 927      BINDING AFFINITY PREDICTED BY RF-SCORE:    0.00 PKD
ROOT
HETATM    1 CA   UNL     1     -11.178  17.206  70.129  1.00  0.00    -0.410 Ca 
HETATM    2  O   UNL     2      -9.981  19.678  69.549  1.00  0.00    -0.497 OA 
HETATM    3  O   UNL     3     -11.914  12.714  68.640  1.00  0.00    -0.304 OA 
HETATM    4  C   UNL     2      -8.823  19.338  68.718  1.00  0.00    -0.346 C  
HETATM    5  H   UNL     2      -9.772  20.539  69.892  1.00  0.00     0.000 HD 
HETATM    6  H   UNL     3     -11.840  11.838  68.998  1.00  0.00     0.000 HD 
HETATM    7  C   UNL     3     -10.643  13.334  68.499  1.00  0.00    -0.256 C  
ENDROOT
BRANCH   4   8
HETATM    8  C   UNL     2      -9.155  17.964  68.171  1.00  0.00    -0.278 C  
HETATM    9  H   UNL     2      -8.091  16.488  67.467  1.00  0.00     0.000 HD 
HETATM   10  O   UNL     2      -7.882  17.349  67.809  1.00  0.00    -0.194 OA 
BRANCH   8  11
HETATM   11  C   UNL     2     -10.220  17.882  67.100  1.00  0.00    -0.353 C  
HETATM   12  O   UNL     2     -10.932  19.143  65.214  1.00  0.00    -0.512 OA 
HETATM   13  H   UNL     2     -12.167  17.927  67.094  1.00  0.00     0.000 HD 
HETATM   14  O   UNL     2      -8.751  19.295  65.938  1.00  0.00    -0.443 OA 
HETATM   15  O   UNL     2     -11.499  17.979  67.767  1.00  0.00     0.309 OA 
HETATM   16  C   UNL     2      -9.975  18.913  65.982  1.00  0.00    -0.271 C  
ENDBRANCH   8  11
ENDBRANCH   4   8
BRANCH   7  17
HETATM   17  C   UNL     3     -10.764  14.753  67.920  1.00  0.00    -0.259 C  
HETATM   18  O   UNL     3     -12.076  15.328  68.282  1.00  0.00    -0.534 OA 
HETATM   19  H   UNL     3     -12.151  16.205  67.924  1.00  0.00     0.000 HD 
BRANCH  17  20
HETATM   20  C   UNL     3     -10.442  14.911  66.427  1.00  0.00    -0.299 C  
HETATM   21  C   UNL     3     -11.308  13.872  65.668  1.00  0.00    -0.309 C  
HETATM   22  O   UNL     3      -9.005  14.755  66.250  1.00  0.00    -0.444 OA 
HETATM   23  O   UNL     3     -12.550  13.991  65.974  1.00  0.00    -0.481 OA 
HETATM   24  O   UNL     3     -10.738  13.000  64.983  1.00  0.00    -0.293 OA 
HETATM   25  H   UNL     3      -8.806  14.852  65.326  1.00  0.00     0.000 HD 
ENDBRANCH  17  20
ENDBRANCH   7  17
TORSDOF 4
ENDMDL
MODEL       47
REMARK 921   NORMALIZED FREE ENERGY PREDICTED BY IDOCK:   -4.18 KCAL/MOL
REMARK 922        TOTAL FREE ENERGY PREDICTED BY IDOCK:   -6.33 KCAL/MOL
REMARK 923 INTER-LIGAND FREE ENERGY PREDICTED BY IDOCK:   -5.16 KCAL/MOL
REMARK 924 INTRA-LIGAND FREE ENERGY PREDICTED BY IDOCK:   -1.17 KCAL/MOL
REMARK 927      BINDING AFFINITY PREDICTED BY RF-SCORE:    0.00 PKD
ROOT
HETATM    1 CA   UNL     1     -12.284   6.555  67.068  1.00  0.00    -0.663 Ca 
HETATM    2  O   UNL     2     -11.442   4.541  65.302  1.00  0.00    -1.068 OA 
HETATM    3  O   UNL     3     -11.418   8.820  71.197  1.00  0.00    -0.263 OA 
HETATM    4  C   UNL     2      -9.994   4.455  65.509  1.00  0.00    -0.230 C  
HETATM    5  H   UNL     2     -11.575   4.156  64.444  1.00  0.00     0.000 HD 
HETATM    6  H   UNL     3     -11.348   9.717  71.502  1.00  0.00     0.000 HD 
HETATM    7  C   UNL     3     -10.359   8.482  70.310  1.00  0.00    -0.205 C  
ENDROOT
BRANCH   4   8
HETATM    8  C   UNL     2      -9.782   5.070  66.878  1.00  0.00    -0.168 C  
HETATM    9  H   UNL     2      -9.995   6.867  67.607  1.00  0.00     0.000 HD 
HETATM   10  O   UNL     2     -10.128   6.482  66.749  1.00  0.00    -0.175 OA 
BRANCH   8  11
HETATM   11  C   UNL     2      -8.458   4.807  67.559  1.00  0.00    -0.104 C  
HETATM   12  O   UNL     2      -7.651   3.618  69.454  1.00  0.00    -0.052 OA 
HETATM   13  H   UNL     2      -7.131   5.916  68.457  1.00  0.00     0.000 HD 
HETATM   14  O   UNL     2      -9.605   2.956  68.432  1.00  0.00    -0.179 OA 
HETATM   15  O   UNL     2      -7.963   6.081  68.029  1.00  0.00    -0.107 OA 
HETATM   16  C   UNL     2      -8.586   3.708  68.632  1.00  0.00    -0.091 C  
ENDBRANCH   8  11
ENDBRANCH   4   8
BRANCH   7  17
HETATM   17  C   UNL     3     -10.472   7.030  69.817  1.00  0.00    -0.219 C  
HETATM   18  O   UNL     3     -11.819   6.800  69.254  1.00  0.00    -0.606 OA 
HETATM   19  H   UNL     3     -11.889   5.903  68.949  1.00  0.00     0.000 HD 
BRANCH  17  20
HETATM   20  C   UNL     3     -10.054   5.937  70.811  1.00  0.00    -0.199 C  
HETATM   21  C   UNL     3     -10.919   6.131  72.083  1.00  0.00    -0.262 C  
HETATM   22  O   UNL     3      -8.618   6.041  71.026  1.00  0.00    -0.129 OA 
HETATM   23  O   UNL     3     -12.171   6.155  71.794  1.00  0.00    -0.245 OA 
HETATM   24  O   UNL     3     -10.349   6.358  73.169  1.00  0.00    -0.198 OA 
HETATM   25  H   UNL     3      -8.359   5.365  71.641  1.00  0.00     0.000 HD 
ENDBRANCH  17  20
ENDBRANCH   7  17
TORSDOF 4
ENDMDL
MODEL       48
REMARK 921   NORMALIZED FREE ENERGY PREDICTED BY IDOCK:   -4.16 KCAL/MOL
REMARK 922        TOTAL FREE ENERGY PREDICTED BY IDOCK:   -6.31 KCAL/MOL
REMARK 923 INTER-LIGAND FREE ENERGY PREDICTED BY IDOCK:   -5.20 KCAL/MOL
REMARK 924 INTRA-LIGAND FREE ENERGY PREDICTED BY IDOCK:   -1.11 KCAL/MOL
REMARK 927      BINDING AFFINITY PREDICTED BY RF-SCORE:    0.00 PKD
ROOT
HETATM    1 CA   UNL     1     -10.607  12.214  69.321  1.00  0.00    -0.206 Ca 
HETATM    2  O   UNL     2     -12.511  14.259  69.606  1.00  0.00    -0.467 OA 
HETATM    3  O   UNL     3      -7.581  10.007  66.339  1.00  0.00    -0.099 OA 
HETATM    4  C   UNL     2     -12.114  15.268  68.620  1.00  0.00    -0.130 C  
HETATM    5  H   UNL     2     -13.045  14.741  70.226  1.00  0.00     0.000 HD 
HETATM    6  H   UNL     3      -6.670   9.736  66.340  1.00  0.00     0.000 HD 
HETATM    7  C   UNL     3      -7.708  11.423  66.339  1.00  0.00    -0.051 C  
ENDROOT
BRANCH   4   8
HETATM    8  C   UNL     2     -11.261  14.499  67.631  1.00  0.00    -0.322 C  
HETATM    9  H   UNL     2      -9.453  13.767  67.679  1.00  0.00     0.000 HD 
HETATM   10  O   UNL     2      -9.987  14.248  68.298  1.00  0.00    -0.225 OA 
BRANCH   8  11
HETATM   11  C   UNL     2     -11.138  15.064  66.234  1.00  0.00    -0.334 C  
HETATM   12  O   UNL     2     -11.836  14.500  64.032  1.00  0.00    -0.305 OA 
HETATM   13  H   UNL     2      -9.656  15.405  65.017  1.00  0.00     0.000 HD 
HETATM   14  O   UNL     2     -13.036  13.740  65.845  1.00  0.00    -0.407 OA 
HETATM   15  O   UNL     2      -9.733  15.050  65.894  1.00  0.00    -0.306 OA 
HETATM   16  C   UNL     2     -12.066  14.330  65.247  1.00  0.00    -0.400 C  
ENDBRANCH   8  11
ENDBRANCH   4   8
BRANCH   7  17
HETATM   17  C   UNL     3      -9.182  11.860  66.337  1.00  0.00    -0.215 C  
HETATM   18  O   UNL     3      -9.885  11.246  67.482  1.00  0.00    -0.175 OA 
HETATM   19  H   UNL     3     -10.795  11.516  67.481  1.00  0.00     0.000 HD 
BRANCH  17  20
HETATM   20  C   UNL     3      -9.944  11.687  65.015  1.00  0.00    -0.259 C  
HETATM   21  C   UNL     3      -9.728  10.221  64.561  1.00  0.00    -0.329 C  
HETATM   22  O   UNL     3      -9.468  12.694  64.078  1.00  0.00    -0.497 OA 
HETATM   23  O   UNL     3     -10.052   9.394  65.490  1.00  0.00    -0.217 OA 
HETATM   24  O   UNL     3      -9.177  10.006  63.462  1.00  0.00    -0.257 OA 
HETATM   25  H   UNL     3      -9.939  12.587  63.260  1.00  0.00     0.000 HD 
ENDBRANCH  17  20
ENDBRANCH   7  17
TORSDOF 4
ENDMDL
MODEL       49
REMARK 921   NORMALIZED FREE ENERGY PREDICTED BY IDOCK:   -4.16 KCAL/MOL
REMARK 922        TOTAL FREE ENERGY PREDICTED BY IDOCK:   -6.31 KCAL/MOL
REMARK 923 INTER-LIGAND FREE ENERGY PREDICTED BY IDOCK:   -5.23 KCAL/MOL
REMARK 924 INTRA-LIGAND FREE ENERGY PREDICTED BY IDOCK:   -1.08 KCAL/MOL
REMARK 927      BINDING AFFINITY PREDICTED BY RF-SCORE:    0.00 PKD
ROOT
HETATM    1 CA   UNL     1     -11.175  12.925  70.542  1.00  0.00    -0.484 Ca 
HETATM    2  O   UNL     2     -12.360  14.852  68.878  1.00  0.00    -0.570 OA 
HETATM    3  O   UNL     3      -8.433   9.003  70.734  1.00  0.00    -0.165 OA 
HETATM    4  C   UNL     2     -11.470  14.928  67.717  1.00  0.00    -0.338 C  
HETATM    5  H   UNL     2     -12.835  15.674  68.859  1.00  0.00     0.000 HD 
HETATM    6  H   UNL     3      -7.674   8.703  71.221  1.00  0.00     0.000 HD 
HETATM    7  C   UNL     3      -8.109  10.083  69.868  1.00  0.00    -0.166 C  
ENDROOT
BRANCH   4   8
HETATM    8  C   UNL     2     -10.711  13.617  67.748  1.00  0.00    -0.246 C  
HETATM    9  H   UNL     2      -9.266  12.909  68.850  1.00  0.00     0.000 HD 
HETATM   10  O   UNL     2      -9.741  13.731  68.831  1.00  0.00    -0.114 OA 
BRANCH   8  11
HETATM   11  C   UNL     2     -10.139  13.115  66.441  1.00  0.00    -0.281 C  
HETATM   12  O   UNL     2     -10.549  11.360  64.889  1.00  0.00    -0.289 OA 
HETATM   13  H   UNL     2      -8.424  12.375  65.888  1.00  0.00     0.000 HD 
HETATM   14  O   UNL     2     -12.259  12.135  66.222  1.00  0.00    -0.604 OA 
HETATM   15  O   UNL     2      -8.784  12.689  66.708  1.00  0.00    -0.199 OA 
HETATM   16  C   UNL     2     -11.052  12.054  65.797  1.00  0.00    -0.324 C  
ENDBRANCH   8  11
ENDBRANCH   4   8
BRANCH   7  17
HETATM   17  C   UNL     3      -9.337  10.568  69.081  1.00  0.00    -0.187 C  
HETATM   18  O   UNL     3     -10.454  10.830  70.013  1.00  0.00    -0.447 OA 
HETATM   19  H   UNL     3     -11.213  11.130  69.527  1.00  0.00     0.000 HD 
BRANCH  17  20
HETATM   20  C   UNL     3      -9.761   9.710  67.880  1.00  0.00    -0.146 C  
HETATM   21  C   UNL     3      -9.921   8.258  68.398  1.00  0.00    -0.190 C  
HETATM   22  O   UNL     3      -8.770   9.878  66.826  1.00  0.00    -0.128 OA 
HETATM   23  O   UNL     3     -10.713   8.210  69.408  1.00  0.00    -0.224 OA 
HETATM   24  O   UNL     3      -9.213   7.360  67.899  1.00  0.00    -0.133 OA 
HETATM   25  H   UNL     3      -9.031   9.348  66.083  1.00  0.00     0.000 HD 
ENDBRANCH  17  20
ENDBRANCH   7  17
TORSDOF 4
ENDMDL
MODEL       50
REMARK 921   NORMALIZED FREE ENERGY PREDICTED BY IDOCK:   -4.14 KCAL/MOL
REMARK 922        TOTAL FREE ENERGY PREDICTED BY IDOCK:   -6.29 KCAL/MOL
REMARK 923 INTER-LIGAND FREE ENERGY PREDICTED BY IDOCK:   -5.67 KCAL/MOL
REMARK 924 INTRA-LIGAND FREE ENERGY PREDICTED BY IDOCK:   -0.62 KCAL/MOL
REMARK 927      BINDING AFFINITY PREDICTED BY RF-SCORE:    0.00 PKD
ROOT
HETATM    1 CA   UNL     1      -8.761  14.001  69.289  1.00  0.00    -0.264 Ca 
HETATM    2  O   UNL     2      -9.665  16.259  67.885  1.00  0.00    -0.230 OA 
HETATM    3  O   UNL     3      -8.768   9.219  69.526  1.00  0.00    -0.130 OA 
HETATM    4  C   UNL     2      -9.829  15.791  66.506  1.00  0.00    -0.269 C  
HETATM    5  H   UNL     2      -9.588  17.202  67.800  1.00  0.00     0.000 HD 
HETATM    6  H   UNL     3      -8.129   8.522  69.624  1.00  0.00     0.000 HD 
HETATM    7  C   UNL     3      -8.626   9.891  68.281  1.00  0.00    -0.115 C  
ENDROOT
BRANCH   4   8
HETATM    8  C   UNL     2      -9.950  14.286  66.641  1.00  0.00    -0.275 C  
HETATM    9  H   UNL     2      -8.687  12.851  67.033  1.00  0.00     0.000 HD 
HETATM   10  O   UNL     2      -8.611  13.794  66.948  1.00  0.00    -0.196 OA 
BRANCH   8  11
HETATM   11  C   UNL     2     -10.653  13.543  65.528  1.00  0.00    -0.296 C  
HETATM   12  O   UNL     2     -12.732  12.445  65.172  1.00  0.00    -0.630 OA 
HETATM   13  H   UNL     2     -10.313  11.892  64.551  1.00  0.00     0.000 HD 
HETATM   14  O   UNL     2     -12.572  14.116  66.748  1.00  0.00    -0.306 OA 
HETATM   15  O   UNL     2      -9.872  12.358  65.251  1.00  0.00    -0.245 OA 
HETATM   16  C   UNL     2     -12.136  13.296  65.864  1.00  0.00    -0.441 C  
ENDBRANCH   8  11
ENDBRANCH   4   8
BRANCH   7  17
HETATM   17  C   UNL     3      -9.660  11.018  68.124  1.00  0.00    -0.171 C  
HETATM   18  O   UNL     3      -9.420  12.059  69.145  1.00  0.00    -0.377 OA 
HETATM   19  H   UNL     3     -10.059  12.756  69.048  1.00  0.00     0.000 HD 
BRANCH  17  20
HETATM   20  C   UNL     3     -11.132  10.589  68.054  1.00  0.00    -0.300 C  
HETATM   21  C   UNL     3     -11.851  11.248  69.259  1.00  0.00    -0.354 C  
HETATM   22  O   UNL     3     -11.184   9.134  68.032  1.00  0.00    -0.492 OA 
HETATM   23  O   UNL     3     -11.653  12.517  69.280  1.00  0.00    -0.284 OA 
HETATM   24  O   UNL     3     -12.404  10.515  70.104  1.00  0.00    -0.300 OA 
HETATM   25  H   UNL     3     -12.095   8.868  67.988  1.00  0.00     0.000 HD 
ENDBRANCH  17  20
ENDBRANCH   7  17
TORSDOF 4
ENDMDL
MODEL       51
REMARK 921   NORMALIZED FREE ENERGY PREDICTED BY IDOCK:   -4.14 KCAL/MOL
REMARK 922        TOTAL FREE ENERGY PREDICTED BY IDOCK:   -6.29 KCAL/MOL
REMARK 923 INTER-LIGAND FREE ENERGY PREDICTED BY IDOCK:   -5.10 KCAL/MOL
REMARK 924 INTRA-LIGAND FREE ENERGY PREDICTED BY IDOCK:   -1.19 KCAL/MOL
REMARK 927      BINDING AFFINITY PREDICTED BY RF-SCORE:    0.00 PKD
ROOT
HETATM    1 CA   UNL     1     -12.972   6.576  69.585  1.00  0.00    -0.505 Ca 
HETATM    2  O   UNL     2     -13.823   8.822  71.040  1.00  0.00    -0.582 OA 
HETATM    3  O   UNL     3      -9.428   3.440  68.854  1.00  0.00    -0.166 OA 
HETATM    4  C   UNL     2     -13.105   8.727  72.313  1.00  0.00    -0.409 C  
HETATM    5  H   UNL     2     -14.562   9.386  71.234  1.00  0.00     0.000 HD 
HETATM    6  H   UNL     3      -9.329   2.497  68.796  1.00  0.00     0.000 HD 
HETATM    7  C   UNL     3      -9.783   3.851  70.167  1.00  0.00    -0.172 C  
ENDROOT
BRANCH   4   8
HETATM    8  C   UNL     2     -11.926   7.826  72.003  1.00  0.00    -0.308 C  
HETATM    9  H   UNL     2     -11.725   5.910  71.690  1.00  0.00     0.000 HD 
HETATM   10  O   UNL     2     -12.464   6.475  71.884  1.00  0.00    -0.347 OA 
BRANCH   8  11
HETATM   11  C   UNL     2     -10.710   7.942  72.894  1.00  0.00    -0.375 C  
HETATM   12  O   UNL     2      -8.436   8.610  72.703  1.00  0.00    -0.378 OA 
HETATM   13  H   UNL     2      -9.616   6.679  73.895  1.00  0.00     0.000 HD 
HETATM   14  O   UNL     2     -10.005   9.455  71.246  1.00  0.00    -0.287 OA 
HETATM   15  O   UNL     2     -10.379   6.606  73.335  1.00  0.00    -0.224 OA 
HETATM   16  C   UNL     2      -9.571   8.711  72.196  1.00  0.00    -0.307 C  
ENDBRANCH   8  11
ENDBRANCH   4   8
BRANCH   7  17
HETATM   17  C   UNL     3      -9.943   5.377  70.261  1.00  0.00    -0.230 C  
HETATM   18  O   UNL     3     -10.886   5.843  69.222  1.00  0.00    -0.306 OA 
HETATM   19  H   UNL     3     -10.985   6.786  69.280  1.00  0.00     0.000 HD 
BRANCH  17  20
HETATM   20  C   UNL     3      -8.647   6.199  70.291  1.00  0.00    -0.140 C  
HETATM   21  C   UNL     3      -7.868   5.860  68.995  1.00  0.00    -0.095 C  
HETATM   22  O   UNL     3      -7.940   5.891  71.527  1.00  0.00    -0.110 OA 
HETATM   23  O   UNL     3      -8.601   6.036  67.954  1.00  0.00    -0.114 OA 
HETATM   24  O   UNL     3      -6.729   5.360  69.090  1.00  0.00    -0.049 OA 
HETATM   25  H   UNL     3      -7.138   6.400  71.546  1.00  0.00     0.000 HD 
ENDBRANCH  17  20
ENDBRANCH   7  17
TORSDOF 4
ENDMDL
MODEL       52
REMARK 921   NORMALIZED FREE ENERGY PREDICTED BY IDOCK:   -4.13 KCAL/MOL
REMARK 922        TOTAL FREE ENERGY PREDICTED BY IDOCK:   -6.28 KCAL/MOL
REMARK 923 INTER-LIGAND FREE ENERGY PREDICTED BY IDOCK:   -5.07 KCAL/MOL
REMARK 924 INTRA-LIGAND FREE ENERGY PREDICTED BY IDOCK:   -1.21 KCAL/MOL
REMARK 927      BINDING AFFINITY PREDICTED BY RF-SCORE:    0.00 PKD
ROOT
HETATM    1 CA   UNL     1     -11.790   6.897  67.569  1.00  0.00    -0.541 Ca 
HETATM    2  O   UNL     2      -9.785   7.817  65.832  1.00  0.00    -0.437 OA 
HETATM    3  O   UNL     3     -13.417   6.855  72.073  1.00  0.00    -0.538 OA 
HETATM    4  C   UNL     2      -9.327   9.072  66.434  1.00  0.00    -0.206 C  
HETATM    5  H   UNL     2      -9.517   7.887  64.923  1.00  0.00     0.000 HD 
HETATM    6  H   UNL     3     -14.240   7.010  72.521  1.00  0.00     0.000 HD 
HETATM    7  C   UNL     3     -12.903   8.046  71.490  1.00  0.00    -0.311 C  
ENDROOT
BRANCH   4   8
HETATM    8  C   UNL     2      -9.754   8.961  67.884  1.00  0.00    -0.160 C  
HETATM    9  H   UNL     2     -11.478   8.975  68.797  1.00  0.00     0.000 HD 
HETATM   10  O   UNL     2     -11.211   9.044  67.888  1.00  0.00     0.096 OA 
BRANCH   8  11
HETATM   11  C   UNL     2      -9.069   9.868  68.881  1.00  0.00    -0.156 C  
HETATM   12  O   UNL     2      -7.577   9.666  70.721  1.00  0.00    -0.271 OA 
HETATM   13  H   UNL     2      -9.678  11.061  70.296  1.00  0.00     0.000 HD 
HETATM   14  O   UNL     2      -7.587   8.060  69.071  1.00  0.00    -0.094 OA 
HETATM   15  O   UNL     2     -10.108  10.491  69.670  1.00  0.00    -0.214 OA 
HETATM   16  C   UNL     2      -7.991   9.113  69.682  1.00  0.00    -0.103 C  
ENDBRANCH   8  11
ENDBRANCH   4   8
BRANCH   7  17
HETATM   17  C   UNL     3     -11.571   7.795  70.765  1.00  0.00    -0.255 C  
HETATM   18  O   UNL     3     -11.736   6.702  69.784  1.00  0.00    -0.603 OA 
HETATM   19  H   UNL     3     -10.913   6.546  69.336  1.00  0.00     0.000 HD 
BRANCH  17  20
HETATM   20  C   UNL     3     -10.334   7.606  71.655  1.00  0.00    -0.189 C  
HETATM   21  C   UNL     3     -10.650   6.436  72.621  1.00  0.00    -0.224 C  
HETATM   22  O   UNL     3     -10.043   8.875  72.307  1.00  0.00    -0.294 OA 
HETATM   23  O   UNL     3     -11.022   5.389  71.976  1.00  0.00    -0.234 OA 
HETATM   24  O   UNL     3     -10.637   6.650  73.850  1.00  0.00    -0.331 OA 
HETATM   25  H   UNL     3      -9.278   8.759  72.858  1.00  0.00     0.000 HD 
ENDBRANCH  17  20
ENDBRANCH   7  17
TORSDOF 4
ENDMDL
MODEL       53
REMARK 921   NORMALIZED FREE ENERGY PREDICTED BY IDOCK:   -4.08 KCAL/MOL
REMARK 922        TOTAL FREE ENERGY PREDICTED BY IDOCK:   -6.21 KCAL/MOL
REMARK 923 INTER-LIGAND FREE ENERGY PREDICTED BY IDOCK:   -5.98 KCAL/MOL
REMARK 924 INTRA-LIGAND FREE ENERGY PREDICTED BY IDOCK:   -0.24 KCAL/MOL
REMARK 927      BINDING AFFINITY PREDICTED BY RF-SCORE:    0.00 PKD
ROOT
HETATM    1 CA   UNL     1      -8.688  12.350  67.896  1.00  0.00    -0.130 Ca 
HETATM    2  O   UNL     2      -8.220  14.546  69.582  1.00  0.00    -0.387 OA 
HETATM    3  O   UNL     3     -10.790  10.819  63.875  1.00  0.00    -0.469 OA 
HETATM    4  C   UNL     2      -8.274  15.709  68.692  1.00  0.00    -0.168 C  
HETATM    5  H   UNL     2      -7.732  14.856  70.336  1.00  0.00     0.000 HD 
HETATM    6  H   UNL     3     -10.547  10.317  63.107  1.00  0.00     0.000 HD 
HETATM    7  C   UNL     3     -10.116  12.070  63.920  1.00  0.00    -0.369 C  
ENDROOT
BRANCH   4   8
HETATM    8  C   UNL     2      -9.052  15.214  67.489  1.00  0.00    -0.183 C  
HETATM    9  H   UNL     2      -9.222  15.814  65.640  1.00  0.00     0.000 HD 
HETATM   10  O   UNL     2      -8.734  16.124  66.394  1.00  0.00    -0.265 OA 
BRANCH   8  11
HETATM   11  C   UNL     2     -10.529  14.950  67.679  1.00  0.00    -0.249 C  
HETATM   12  O   UNL     2     -12.392  15.997  68.722  1.00  0.00     0.018 OA 
HETATM   13  H   UNL     2     -11.573  13.578  68.585  1.00  0.00     0.000 HD 
HETATM   14  O   UNL     2     -10.604  17.269  68.027  1.00  0.00    -0.368 OA 
HETATM   15  O   UNL     2     -10.646  13.743  68.466  1.00  0.00    -0.242 OA 
HETATM   16  C   UNL     2     -11.254  16.186  68.248  1.00  0.00    -0.343 C  
ENDBRANCH   8  11
ENDBRANCH   4   8
BRANCH   7  17
HETATM   17  C   UNL     3     -10.509  12.883  65.164  1.00  0.00    -0.309 C  
HETATM   18  O   UNL     3     -10.995  11.972  66.221  1.00  0.00    -0.274 OA 
HETATM   19  H   UNL     3     -11.238  12.474  66.989  1.00  0.00     0.000 HD 
BRANCH  17  20
HETATM   20  C   UNL     3     -11.450  14.073  64.932  1.00  0.00    -0.358 C  
HETATM   21  C   UNL     3     -12.656  13.541  64.116  1.00  0.00    -0.122 C  
HETATM   22  O   UNL     3     -10.694  15.135  64.283  1.00  0.00    -0.520 OA 
HETATM   23  O   UNL     3     -13.192  12.524  64.690  1.00  0.00    -0.848 OA 
HETATM   24  O   UNL     3     -12.890  14.036  62.995  1.00  0.00    -0.392 OA 
HETATM   25  H   UNL     3     -11.276  15.872  64.139  1.00  0.00     0.000 HD 
ENDBRANCH  17  20
ENDBRANCH   7  17
TORSDOF 4
ENDMDL
MODEL       54
REMARK 921   NORMALIZED FREE ENERGY PREDICTED BY IDOCK:   -4.07 KCAL/MOL
REMARK 922        TOTAL FREE ENERGY PREDICTED BY IDOCK:   -6.20 KCAL/MOL
REMARK 923 INTER-LIGAND FREE ENERGY PREDICTED BY IDOCK:   -6.27 KCAL/MOL
REMARK 924 INTRA-LIGAND FREE ENERGY PREDICTED BY IDOCK:    0.07 KCAL/MOL
REMARK 927      BINDING AFFINITY PREDICTED BY RF-SCORE:    0.00 PKD
ROOT
HETATM    1 CA   UNL     1      -8.746  16.012  65.613  1.00  0.00    -0.274 Ca 
HETATM    2  O   UNL     2      -7.044  15.731  67.829  1.00  0.00    -0.125 OA 
HETATM    3  O   UNL     3     -12.394  14.123  63.154  1.00  0.00    -1.125 OA 
HETATM    4  C   UNL     2      -7.837  14.977  68.805  1.00  0.00    -0.151 C  
HETATM    5  H   UNL     2      -6.377  16.156  68.354  1.00  0.00     0.000 HD 
HETATM    6  H   UNL     3     -13.224  14.416  62.797  1.00  0.00     0.000 HD 
HETATM    7  C   UNL     3     -12.399  14.139  64.576  1.00  0.00    -0.392 C  
ENDROOT
BRANCH   4   8
HETATM    8  C   UNL     2      -8.902  14.299  67.968  1.00  0.00    -0.178 C  
HETATM    9  H   UNL     2      -9.080  13.887  66.069  1.00  0.00     0.000 HD 
HETATM   10  O   UNL     2      -8.413  14.313  66.593  1.00  0.00    -0.100 OA 
BRANCH   8  11
HETATM   11  C   UNL     2     -10.326  14.782  68.132  1.00  0.00    -0.239 C  
HETATM   12  O   UNL     2     -11.459  16.818  68.607  1.00  0.00    -0.188 OA 
HETATM   13  H   UNL     2     -11.768  14.401  69.386  1.00  0.00     0.000 HD 
HETATM   14  O   UNL     2      -9.371  16.866  67.638  1.00  0.00    -0.230 OA 
HETATM   15  O   UNL     2     -10.874  14.099  69.283  1.00  0.00    -0.244 OA 
HETATM   16  C   UNL     2     -10.398  16.320  68.178  1.00  0.00    -0.277 C  
ENDBRANCH   8  11
ENDBRANCH   4   8
BRANCH   7  17
HETATM   17  C   UNL     3     -11.056  13.663  65.154  1.00  0.00    -0.318 C  
HETATM   18  O   UNL     3      -9.952  14.440  64.552  1.00  0.00    -0.614 OA 
HETATM   19  H   UNL     3      -9.123  14.146  64.909  1.00  0.00     0.000 HD 
BRANCH  17  20
HETATM   20  C   UNL     3     -10.798  12.151  65.124  1.00  0.00    -0.300 C  
HETATM   21  C   UNL     3     -11.008  11.630  66.569  1.00  0.00    -0.299 C  
HETATM   22  O   UNL     3      -9.466  11.925  64.581  1.00  0.00    -0.426 OA 
HETATM   23  O   UNL     3     -12.158  11.978  67.025  1.00  0.00    -0.603 OA 
HETATM   24  O   UNL     3     -10.055  11.075  67.153  1.00  0.00    -0.184 OA 
HETATM   25  H   UNL     3      -9.305  10.989  64.562  1.00  0.00     0.000 HD 
ENDBRANCH  17  20
ENDBRANCH   7  17
TORSDOF 4
ENDMDL
MODEL       55
REMARK 921   NORMALIZED FREE ENERGY PREDICTED BY IDOCK:   -4.07 KCAL/MOL
REMARK 922        TOTAL FREE ENERGY PREDICTED BY IDOCK:   -6.20 KCAL/MOL
REMARK 923 INTER-LIGAND FREE ENERGY PREDICTED BY IDOCK:   -6.57 KCAL/MOL
REMARK 924 INTRA-LIGAND FREE ENERGY PREDICTED BY IDOCK:    0.38 KCAL/MOL
REMARK 927      BINDING AFFINITY PREDICTED BY RF-SCORE:    0.00 PKD
ROOT
HETATM    1 CA   UNL     1     -10.705  10.607  68.431  1.00  0.00    -0.164 Ca 
HETATM    2  O   UNL     2     -10.063   9.864  65.800  1.00  0.00    -0.284 OA 
HETATM    3  O   UNL     3     -11.797  14.226  71.371  1.00  0.00    -0.445 OA 
HETATM    4  C   UNL     2     -10.719  10.873  64.965  1.00  0.00    -0.146 C  
HETATM    5  H   UNL     2      -9.929   9.130  65.212  1.00  0.00     0.000 HD 
HETATM    6  H   UNL     3     -12.459  14.422  72.023  1.00  0.00     0.000 HD 
HETATM    7  C   UNL     3     -12.352  14.149  70.064  1.00  0.00    -0.344 C  
ENDROOT
BRANCH   4   8
HETATM    8  C   UNL     2     -10.934  12.044  65.904  1.00  0.00    -0.298 C  
HETATM    9  H   UNL     2     -12.052  12.337  67.476  1.00  0.00     0.000 HD 
HETATM   10  O   UNL     2     -11.918  11.603  66.887  1.00  0.00    -0.567 OA 
BRANCH   8  11
HETATM   11  C   UNL     2     -11.227  13.390  65.280  1.00  0.00    -0.289 C  
HETATM   12  O   UNL     2     -12.454  14.253  63.435  1.00  0.00    -0.761 OA 
HETATM   13  H   UNL     2     -10.151  14.768  64.422  1.00  0.00     0.000 HD 
HETATM   14  O   UNL     2     -13.072  12.249  64.386  1.00  0.00    -0.780 OA 
HETATM   15  O   UNL     2      -9.967  13.923  64.814  1.00  0.00    -0.297 OA 
HETATM   16  C   UNL     2     -12.338  13.288  64.218  1.00  0.00    -0.340 C  
ENDBRANCH   8  11
ENDBRANCH   4   8
BRANCH   7  17
HETATM   17  C   UNL     3     -11.281  13.832  69.009  1.00  0.00    -0.272 C  
HETATM   18  O   UNL     3     -10.670  12.518  69.299  1.00  0.00    -0.432 OA 
HETATM   19  H   UNL     3     -10.007  12.322  68.647  1.00  0.00     0.000 HD 
BRANCH  17  20
HETATM   20  C   UNL     3     -10.234  14.924  68.749  1.00  0.00    -0.243 C  
HETATM   21  C   UNL     3     -10.962  16.080  68.016  1.00  0.00    -0.341 C  
HETATM   22  O   UNL     3      -9.129  14.331  68.009  1.00  0.00    -0.178 OA 
HETATM   23  O   UNL     3     -11.999  16.464  68.670  1.00  0.00    -0.086 OA 
HETATM   24  O   UNL     3     -10.570  16.413  66.880  1.00  0.00    -0.305 OA 
HETATM   25  H   UNL     3      -8.480  15.007  67.849  1.00  0.00     0.000 HD 
ENDBRANCH  17  20
ENDBRANCH   7  17
TORSDOF 4
ENDMDL
MODEL       56
REMARK 921   NORMALIZED FREE ENERGY PREDICTED BY IDOCK:   -4.07 KCAL/MOL
REMARK 922        TOTAL FREE ENERGY PREDICTED BY IDOCK:   -6.20 KCAL/MOL
REMARK 923 INTER-LIGAND FREE ENERGY PREDICTED BY IDOCK:   -4.98 KCAL/MOL
REMARK 924 INTRA-LIGAND FREE ENERGY PREDICTED BY IDOCK:   -1.22 KCAL/MOL
REMARK 927      BINDING AFFINITY PREDICTED BY RF-SCORE:    0.00 PKD
ROOT
HETATM    1 CA   UNL     1     -13.025   7.153  70.453  1.00  0.00    -0.524 Ca 
HETATM    2  O   UNL     2     -13.905   9.788  70.863  1.00  0.00    -0.452 OA 
HETATM    3  O   UNL     3      -9.551   4.363  68.698  1.00  0.00    -0.150 OA 
HETATM    4  C   UNL     2     -12.672  10.573  70.964  1.00  0.00    -0.408 C  
HETATM    5  H   UNL     2     -14.559  10.331  71.287  1.00  0.00     0.000 HD 
HETATM    6  H   UNL     3      -9.033   3.623  68.991  1.00  0.00     0.000 HD 
HETATM    7  C   UNL     3      -9.245   5.542  69.431  1.00  0.00    -0.117 C  
ENDROOT
BRANCH   4   8
HETATM    8  C   UNL     2     -11.628   9.707  70.289  1.00  0.00    -0.198 C  
HETATM    9  H   UNL     2     -10.731   8.040  70.764  1.00  0.00     0.000 HD 
HETATM   10  O   UNL     2     -11.385   8.583  71.187  1.00  0.00    -0.254 OA 
BRANCH   8  11
HETATM   11  C   UNL     2     -10.377  10.392  69.786  1.00  0.00    -0.208 C  
HETATM   12  O   UNL     2      -9.360  10.906  67.699  1.00  0.00    -0.153 OA 
HETATM   13  H   UNL     2      -8.466  10.041  69.933  1.00  0.00     0.000 HD 
HETATM   14  O   UNL     2     -11.642  10.628  67.825  1.00  0.00    -0.501 OA 
HETATM   15  O   UNL     2      -9.252   9.611  70.249  1.00  0.00    -0.242 OA 
HETATM   16  C   UNL     2     -10.438  10.630  68.265  1.00  0.00    -0.187 C  
ENDBRANCH   8  11
ENDBRANCH   4   8
BRANCH   7  17
HETATM   17  C   UNL     3     -10.083   6.740  68.956  1.00  0.00    -0.164 C  
HETATM   18  O   UNL     3     -11.520   6.402  69.029  1.00  0.00    -0.580 OA 
HETATM   19  H   UNL     3     -12.038   7.143  68.736  1.00  0.00     0.000 HD 
BRANCH  17  20
HETATM   20  C   UNL     3      -9.691   7.356  67.606  1.00  0.00    -0.144 C  
HETATM   21  C   UNL     3      -9.731   6.212  66.561  1.00  0.00    -0.145 C  
HETATM   22  O   UNL     3      -8.393   8.000  67.758  1.00  0.00    -0.126 OA 
HETATM   23  O   UNL     3     -10.866   5.610  66.576  1.00  0.00    -0.284 OA 
HETATM   24  O   UNL     3      -8.687   5.925  65.942  1.00  0.00    -0.143 OA 
HETATM   25  H   UNL     3      -8.150   8.381  66.922  1.00  0.00     0.000 HD 
ENDBRANCH  17  20
ENDBRANCH   7  17
TORSDOF 4
ENDMDL
MODEL       57
REMARK 921   NORMALIZED FREE ENERGY PREDICTED BY IDOCK:   -4.06 KCAL/MOL
REMARK 922        TOTAL FREE ENERGY PREDICTED BY IDOCK:   -6.19 KCAL/MOL
REMARK 923 INTER-LIGAND FREE ENERGY PREDICTED BY IDOCK:   -5.00 KCAL/MOL
REMARK 924 INTRA-LIGAND FREE ENERGY PREDICTED BY IDOCK:   -1.19 KCAL/MOL
REMARK 927      BINDING AFFINITY PREDICTED BY RF-SCORE:    0.00 PKD
ROOT
HETATM    1 CA   UNL     1      -7.539  14.442  66.317  1.00  0.00    -0.262 Ca 
HETATM    2  O   UNL     2      -8.128  16.904  67.534  1.00  0.00    -0.170 OA 
HETATM    3  O   UNL     3      -9.164  10.072  65.228  1.00  0.00    -0.183 OA 
HETATM    4  C   UNL     2      -9.581  17.040  67.399  1.00  0.00    -0.246 C  
HETATM    5  H   UNL     2      -7.825  17.794  67.671  1.00  0.00     0.000 HD 
HETATM    6  H   UNL     3      -9.205   9.512  64.462  1.00  0.00     0.000 HD 
HETATM    7  C   UNL     3      -9.992  11.219  65.086  1.00  0.00    -0.264 C  
ENDROOT
BRANCH   4   8
HETATM    8  C   UNL     2     -10.063  15.620  67.179  1.00  0.00    -0.256 C  
HETATM    9  H   UNL     2     -10.035  14.396  65.660  1.00  0.00     0.000 HD 
HETATM   10  O   UNL     2      -9.733  15.285  65.798  1.00  0.00    -0.327 OA 
BRANCH   8  11
HETATM   11  C   UNL     2     -11.486  15.300  67.580  1.00  0.00    -0.280 C  
HETATM   12  O   UNL     2     -12.610  14.030  69.246  1.00  0.00    -0.151 OA 
HETATM   13  H   UNL     2     -12.973  14.366  66.737  1.00  0.00     0.000 HD 
HETATM   14  O   UNL     2     -10.490  14.833  69.652  1.00  0.00    -0.201 OA 
HETATM   15  O   UNL     2     -12.079  14.566  66.485  1.00  0.00    -0.396 OA 
HETATM   16  C   UNL     2     -11.541  14.603  68.953  1.00  0.00    -0.310 C  
ENDBRANCH   8  11
ENDBRANCH   4   8
BRANCH   7  17
HETATM   17  C   UNL     3      -9.925  12.125  66.326  1.00  0.00    -0.229 C  
HETATM   18  O   UNL     3      -8.524  12.519  66.579  1.00  0.00    -0.401 OA 
HETATM   19  H   UNL     3      -8.482  13.079  67.345  1.00  0.00     0.000 HD 
BRANCH  17  20
HETATM   20  C   UNL     3     -10.630  11.609  67.588  1.00  0.00    -0.203 C  
HETATM   21  C   UNL     3     -10.005  10.229  67.920  1.00  0.00    -0.164 C  
HETATM   22  O   UNL     3     -12.063  11.585  67.334  1.00  0.00    -0.593 OA 
HETATM   23  O   UNL     3      -8.725  10.308  68.003  1.00  0.00    -0.121 OA 
HETATM   24  O   UNL     3     -10.743   9.224  67.943  1.00  0.00    -0.242 OA 
HETATM   25  H   UNL     3     -12.500  11.265  68.115  1.00  0.00     0.000 HD 
ENDBRANCH  17  20
ENDBRANCH   7  17
TORSDOF 4
ENDMDL
MODEL       58
REMARK 921   NORMALIZED FREE ENERGY PREDICTED BY IDOCK:   -4.03 KCAL/MOL
REMARK 922        TOTAL FREE ENERGY PREDICTED BY IDOCK:   -6.15 KCAL/MOL
REMARK 923 INTER-LIGAND FREE ENERGY PREDICTED BY IDOCK:   -4.93 KCAL/MOL
REMARK 924 INTRA-LIGAND FREE ENERGY PREDICTED BY IDOCK:   -1.22 KCAL/MOL
REMARK 927      BINDING AFFINITY PREDICTED BY RF-SCORE:    0.00 PKD
ROOT
HETATM    1 CA   UNL     1      -7.981  12.859  69.388  1.00  0.00    -0.305 Ca 
HETATM    2  O   UNL     2      -6.374  10.618  68.860  1.00  0.00    -0.043 OA 
HETATM    3  O   UNL     3     -12.056  15.148  68.343  1.00  0.00    -0.553 OA 
HETATM    4  C   UNL     2      -7.320   9.579  68.444  1.00  0.00    -0.076 C  
HETATM    5  H   UNL     2      -5.605  10.132  69.134  1.00  0.00     0.000 HD 
HETATM    6  H   UNL     3     -12.782  15.535  68.818  1.00  0.00     0.000 HD 
HETATM    7  C   UNL     3     -12.026  13.734  68.492  1.00  0.00    -0.367 C  
ENDROOT
BRANCH   4   8
HETATM    8  C   UNL     2      -8.547  10.355  68.007  1.00  0.00    -0.123 C  
HETATM    9  H   UNL     2      -9.980  11.279  68.956  1.00  0.00     0.000 HD 
HETATM   10  O   UNL     2      -9.211  10.793  69.230  1.00  0.00    -0.153 OA 
BRANCH   8  11
HETATM   11  C   UNL     2      -9.461   9.697  66.997  1.00  0.00    -0.154 C  
HETATM   12  O   UNL     2     -10.106  10.009  64.730  1.00  0.00    -0.296 OA 
HETATM   13  H   UNL     2     -11.384   9.415  66.864  1.00  0.00     0.000 HD 
HETATM   14  O   UNL     2      -8.062  10.781  65.457  1.00  0.00    -0.153 OA 
HETATM   15  O   UNL     2     -10.810   9.829  67.498  1.00  0.00    -0.283 OA 
HETATM   16  C   UNL     2      -9.223  10.250  65.579  1.00  0.00    -0.190 C  
ENDBRANCH   8  11
ENDBRANCH   4   8
BRANCH   7  17
HETATM   17  C   UNL     3     -10.851  13.107  67.724  1.00  0.00    -0.244 C  
HETATM   18  O   UNL     3      -9.584  13.737  68.152  1.00  0.00    -0.205 OA 
HETATM   19  H   UNL     3      -8.858  13.349  67.677  1.00  0.00     0.000 HD 
BRANCH  17  20
HETATM   20  C   UNL     3     -10.991  13.041  66.197  1.00  0.00    -0.280 C  
HETATM   21  C   UNL     3     -11.220  14.492  65.703  1.00  0.00    -0.335 C  
HETATM   22  O   UNL     3     -12.063  12.109  65.876  1.00  0.00    -0.594 OA 
HETATM   23  O   UNL     3     -10.300  15.279  66.133  1.00  0.00    -0.274 OA 
HETATM   24  O   UNL     3     -12.272  14.759  65.088  1.00  0.00    -0.308 OA 
HETATM   25  H   UNL     3     -12.150  12.068  64.931  1.00  0.00     0.000 HD 
ENDBRANCH  17  20
ENDBRANCH   7  17
TORSDOF 4
ENDMDL
MODEL       59
REMARK 921   NORMALIZED FREE ENERGY PREDICTED BY IDOCK:   -4.00 KCAL/MOL
REMARK 922        TOTAL FREE ENERGY PREDICTED BY IDOCK:   -6.11 KCAL/MOL
REMARK 923 INTER-LIGAND FREE ENERGY PREDICTED BY IDOCK:   -4.95 KCAL/MOL
REMARK 924 INTRA-LIGAND FREE ENERGY PREDICTED BY IDOCK:   -1.17 KCAL/MOL
REMARK 927      BINDING AFFINITY PREDICTED BY RF-SCORE:    0.00 PKD
ROOT
HETATM    1 CA   UNL     1     -12.845   6.968  70.143  1.00  0.00    -0.573 Ca 
HETATM    2  O   UNL     2     -12.322   7.934  72.728  1.00  0.00    -0.591 OA 
HETATM    3  O   UNL     3     -10.940   5.452  66.020  1.00  0.00    -0.712 OA 
HETATM    4  C   UNL     2     -11.020   7.359  73.076  1.00  0.00    -0.374 C  
HETATM    5  H   UNL     2     -12.708   8.153  73.567  1.00  0.00     0.000 HD 
HETATM    6  H   UNL     3     -11.042   4.713  65.432  1.00  0.00     0.000 HD 
HETATM    7  C   UNL     3     -10.390   5.058  67.270  1.00  0.00    -0.134 C  
ENDROOT
BRANCH   4   8
HETATM    8  C   UNL     2     -10.403   7.008  71.737  1.00  0.00    -0.197 C  
HETATM    9  H   UNL     2     -10.799   5.677  70.366  1.00  0.00     0.000 HD 
HETATM   10  O   UNL     2     -11.185   5.896  71.206  1.00  0.00    -0.273 OA 
BRANCH   8  11
HETATM   11  C   UNL     2      -8.906   6.799  71.695  1.00  0.00    -0.129 C  
HETATM   12  O   UNL     2      -6.990   7.912  70.833  1.00  0.00    -0.047 OA 
HETATM   13  H   UNL     2      -7.727   5.464  70.906  1.00  0.00     0.000 HD 
HETATM   14  O   UNL     2      -8.884   9.118  71.340  1.00  0.00    -0.298 OA 
HETATM   15  O   UNL     2      -8.668   5.595  70.932  1.00  0.00    -0.129 OA 
HETATM   16  C   UNL     2      -8.176   8.059  71.192  1.00  0.00    -0.106 C  
ENDBRANCH   8  11
ENDBRANCH   4   8
BRANCH   7  17
HETATM   17  C   UNL     3     -10.225   6.254  68.221  1.00  0.00    -0.169 C  
HETATM   18  O   UNL     3     -11.505   6.986  68.326  1.00  0.00    -0.449 OA 
HETATM   19  H   UNL     3     -11.403   7.726  68.914  1.00  0.00     0.000 HD 
BRANCH  17  20
HETATM   20  C   UNL     3      -9.034   7.184  67.949  1.00  0.00    -0.122 C  
HETATM   21  C   UNL     3      -9.242   7.776  66.531  1.00  0.00    -0.184 C  
HETATM   22  O   UNL     3      -7.808   6.417  68.117  1.00  0.00    -0.102 OA 
HETATM   23  O   UNL     3     -10.399   8.325  66.422  1.00  0.00    -0.227 OA 
HETATM   24  O   UNL     3      -8.377   7.563  65.657  1.00  0.00    -0.130 OA 
HETATM   25  H   UNL     3      -7.071   6.992  67.948  1.00  0.00     0.000 HD 
ENDBRANCH  17  20
ENDBRANCH   7  17
TORSDOF 4
ENDMDL
MODEL       60
REMARK 921   NORMALIZED FREE ENERGY PREDICTED BY IDOCK:   -4.00 KCAL/MOL
REMARK 922        TOTAL FREE ENERGY PREDICTED BY IDOCK:   -6.11 KCAL/MOL
REMARK 923 INTER-LIGAND FREE ENERGY PREDICTED BY IDOCK:   -4.92 KCAL/MOL
REMARK 924 INTRA-LIGAND FREE ENERGY PREDICTED BY IDOCK:   -1.19 KCAL/MOL
REMARK 927      BINDING AFFINITY PREDICTED BY RF-SCORE:    0.00 PKD
ROOT
HETATM    1 CA   UNL     1     -12.058   6.630  67.676  1.00  0.00    -0.611 Ca 
HETATM    2  O   UNL     2     -12.827   6.861  70.367  1.00  0.00    -0.520 OA 
HETATM    3  O   UNL     3      -8.649   7.535  64.438  1.00  0.00    -0.369 OA 
HETATM    4  C   UNL     2     -11.563   6.869  71.109  1.00  0.00    -0.319 C  
HETATM    5  H   UNL     2     -13.472   6.604  71.015  1.00  0.00     0.000 HD 
HETATM    6  H   UNL     3      -8.181   7.058  63.763  1.00  0.00     0.000 HD 
HETATM    7  C   UNL     3      -8.319   7.065  65.739  1.00  0.00    -0.143 C  
ENDROOT
BRANCH   4   8
HETATM    8  C   UNL     2     -10.533   7.279  70.075  1.00  0.00    -0.224 C  
HETATM    9  H   UNL     2      -9.802   6.433  68.476  1.00  0.00     0.000 HD 
HETATM   10  O   UNL     2     -10.447   6.176  69.124  1.00  0.00    -0.199 OA 
BRANCH   8  11
HETATM   11  C   UNL     2      -9.198   7.776  70.584  1.00  0.00    -0.161 C  
HETATM   12  O   UNL     2      -7.987   9.820  70.665  1.00  0.00    -0.272 OA 
HETATM   13  H   UNL     2      -7.337   7.401  70.148  1.00  0.00     0.000 HD 
HETATM   14  O   UNL     2     -10.287   9.853  70.553  1.00  0.00    -0.286 OA 
HETATM   15  O   UNL     2      -8.175   7.089  69.828  1.00  0.00    -0.127 OA 
HETATM   16  C   UNL     2      -9.123   9.314  70.558  1.00  0.00    -0.259 C  
ENDBRANCH   8  11
ENDBRANCH   4   8
BRANCH   7  17
HETATM   17  C   UNL     3      -9.076   7.837  66.831  1.00  0.00    -0.144 C  
HETATM   18  O   UNL     3     -10.530   7.767  66.573  1.00  0.00    -0.492 OA 
HETATM   19  H   UNL     3     -10.998   8.244  67.248  1.00  0.00     0.000 HD 
BRANCH  17  20
HETATM   20  C   UNL     3      -8.596   9.268  67.113  1.00  0.00    -0.128 C  
HETATM   21  C   UNL     3      -8.698  10.048  65.777  1.00  0.00    -0.145 C  
HETATM   22  O   UNL     3      -7.256   9.197  67.678  1.00  0.00    -0.082 OA 
HETATM   23  O   UNL     3      -9.878   9.958  65.276  1.00  0.00    -0.302 OA 
HETATM   24  O   UNL     3      -7.663  10.545  65.289  1.00  0.00    -0.145 OA 
HETATM   25  H   UNL     3      -6.959  10.083  67.853  1.00  0.00     0.000 HD 
ENDBRANCH  17  20
ENDBRANCH   7  17
TORSDOF 4
ENDMDL
MODEL       61
REMARK 921   NORMALIZED FREE ENERGY PREDICTED BY IDOCK:   -3.93 KCAL/MOL
REMARK 922        TOTAL FREE ENERGY PREDICTED BY IDOCK:   -6.03 KCAL/MOL
REMARK 923 INTER-LIGAND FREE ENERGY PREDICTED BY IDOCK:   -6.16 KCAL/MOL
REMARK 924 INTRA-LIGAND FREE ENERGY PREDICTED BY IDOCK:    0.13 KCAL/MOL
REMARK 927      BINDING AFFINITY PREDICTED BY RF-SCORE:    0.00 PKD
ROOT
HETATM    1 CA   UNL     1      -8.629  12.137  68.057  1.00  0.00    -0.126 Ca 
HETATM    2  O   UNL     2      -7.638  14.196  69.689  1.00  0.00    -0.351 OA 
HETATM    3  O   UNL     3     -10.993  11.059  64.035  1.00  0.00    -0.461 OA 
HETATM    4  C   UNL     2      -7.377  15.303  68.764  1.00  0.00    -0.131 C  
HETATM    5  H   UNL     2      -7.098  14.396  70.444  1.00  0.00     0.000 HD 
HETATM    6  H   UNL     3     -10.876  10.486  63.287  1.00  0.00     0.000 HD 
HETATM    7  C   UNL     3     -10.020  12.096  64.058  1.00  0.00    -0.274 C  
ENDROOT
BRANCH   4   8
HETATM    8  C   UNL     2      -8.239  14.983  67.558  1.00  0.00    -0.182 C  
HETATM    9  H   UNL     2      -8.262  13.536  66.250  1.00  0.00     0.000 HD 
HETATM   10  O   UNL     2      -7.722  13.736  67.005  1.00  0.00    -0.045 OA 
BRANCH   8  11
HETATM   11  C   UNL     2      -8.445  16.084  66.541  1.00  0.00    -0.313 C  
HETATM   12  O   UNL     2      -7.318  18.043  65.804  1.00  0.00    -0.493 OA 
HETATM   13  H   UNL     2      -9.767  17.492  66.293  1.00  0.00     0.000 HD 
HETATM   14  O   UNL     2      -6.122  16.322  66.756  1.00  0.00    -0.316 OA 
HETATM   15  O   UNL     2      -9.638  16.802  66.931  1.00  0.00    -0.231 OA 
HETATM   16  C   UNL     2      -7.177  16.943  66.377  1.00  0.00    -0.234 C  
ENDBRANCH   8  11
ENDBRANCH   4   8
BRANCH   7  17
HETATM   17  C   UNL     3     -10.210  13.026  65.268  1.00  0.00    -0.279 C  
HETATM   18  O   UNL     3     -10.595  12.229  66.452  1.00  0.00    -0.234 OA 
HETATM   19  H   UNL     3     -10.712  12.803  67.200  1.00  0.00     0.000 HD 
BRANCH  17  20
HETATM   20  C   UNL     3     -11.118  14.245  65.057  1.00  0.00    -0.373 C  
HETATM   21  C   UNL     3     -12.431  13.723  64.419  1.00  0.00    -0.270 C  
HETATM   22  O   UNL     3     -10.394  15.220  64.255  1.00  0.00    -0.368 OA 
HETATM   23  O   UNL     3     -12.943  12.776  65.120  1.00  0.00    -0.768 OA 
HETATM   24  O   UNL     3     -12.768  14.154  63.298  1.00  0.00    -0.714 OA 
HETATM   25  H   UNL     3     -10.956  15.975  64.124  1.00  0.00     0.000 HD 
ENDBRANCH  17  20
ENDBRANCH   7  17
TORSDOF 4
ENDMDL
MODEL       62
REMARK 921   NORMALIZED FREE ENERGY PREDICTED BY IDOCK:   -3.93 KCAL/MOL
REMARK 922        TOTAL FREE ENERGY PREDICTED BY IDOCK:   -6.03 KCAL/MOL
REMARK 923 INTER-LIGAND FREE ENERGY PREDICTED BY IDOCK:   -5.41 KCAL/MOL
REMARK 924 INTRA-LIGAND FREE ENERGY PREDICTED BY IDOCK:   -0.62 KCAL/MOL
REMARK 927      BINDING AFFINITY PREDICTED BY RF-SCORE:    0.00 PKD
ROOT
HETATM    1 CA   UNL     1     -13.141   8.643  70.404  1.00  0.00    -0.503 Ca 
HETATM    2  O   UNL     2     -12.376  10.727  68.684  1.00  0.00    -0.825 OA 
HETATM    3  O   UNL     3     -11.634   5.068  73.211  1.00  0.00    -0.454 OA 
HETATM    4  C   UNL     2     -11.048  11.124  69.159  1.00  0.00    -0.248 C  
HETATM    5  H   UNL     2     -12.681  11.482  68.197  1.00  0.00     0.000 HD 
HETATM    6  H   UNL     3     -11.792   4.758  74.095  1.00  0.00     0.000 HD 
HETATM    7  C   UNL     3     -10.970   6.325  73.205  1.00  0.00    -0.223 C  
ENDROOT
BRANCH   4   8
HETATM    8  C   UNL     2     -10.560   9.918  69.938  1.00  0.00    -0.273 C  
HETATM    9  H   UNL     2     -10.935   9.206  71.715  1.00  0.00     0.000 HD 
HETATM   10  O   UNL     2     -11.241   9.962  71.228  1.00  0.00    -0.361 OA 
BRANCH   8  11
HETATM   11  C   UNL     2      -9.066   9.704  70.022  1.00  0.00    -0.237 C  
HETATM   12  O   UNL     2      -7.449   8.176  69.183  1.00  0.00    -0.083 OA 
HETATM   13  H   UNL     2      -7.818   9.286  71.458  1.00  0.00     0.000 HD 
HETATM   14  O   UNL     2      -9.417   8.507  68.035  1.00  0.00    -0.139 OA 
HETATM   15  O   UNL     2      -8.756   9.420  71.405  1.00  0.00    -0.288 OA 
HETATM   16  C   UNL     2      -8.590   8.649  69.005  1.00  0.00    -0.129 C  
ENDBRANCH   8  11
ENDBRANCH   4   8
BRANCH   7  17
HETATM   17  C   UNL     3     -10.714   6.826  71.774  1.00  0.00    -0.224 C  
HETATM   18  O   UNL     3     -11.988   6.862  71.025  1.00  0.00    -0.339 OA 
HETATM   19  H   UNL     3     -11.830   7.172  70.141  1.00  0.00     0.000 HD 
BRANCH  17  20
HETATM   20  C   UNL     3      -9.592   6.125  70.996  1.00  0.00    -0.175 C  
HETATM   21  C   UNL     3     -10.274   5.157  69.996  1.00  0.00    -0.284 C  
HETATM   22  O   UNL     3      -8.702   5.485  71.955  1.00  0.00    -0.133 OA 
HETATM   23  O   UNL     3     -11.139   5.773  69.271  1.00  0.00    -0.333 OA 
HETATM   24  O   UNL     3     -10.029   3.937  70.076  1.00  0.00    -0.159 OA 
HETATM   25  H   UNL     3      -8.007   5.051  71.474  1.00  0.00     0.000 HD 
ENDBRANCH  17  20
ENDBRANCH   7  17
TORSDOF 4
ENDMDL
MODEL       63
REMARK 921   NORMALIZED FREE ENERGY PREDICTED BY IDOCK:   -3.93 KCAL/MOL
REMARK 922        TOTAL FREE ENERGY PREDICTED BY IDOCK:   -6.03 KCAL/MOL
REMARK 923 INTER-LIGAND FREE ENERGY PREDICTED BY IDOCK:   -5.77 KCAL/MOL
REMARK 924 INTRA-LIGAND FREE ENERGY PREDICTED BY IDOCK:   -0.26 KCAL/MOL
REMARK 927      BINDING AFFINITY PREDICTED BY RF-SCORE:    0.00 PKD
ROOT
HETATM    1 CA   UNL     1     -11.068  12.613  69.471  1.00  0.00    -0.218 Ca 
HETATM    2  O   UNL     2     -12.348  14.790  68.243  1.00  0.00    -0.594 OA 
HETATM    3  O   UNL     3      -8.299   8.762  68.817  1.00  0.00    -0.121 OA 
HETATM    4  C   UNL     2     -11.520  15.088  67.071  1.00  0.00    -0.284 C  
HETATM    5  H   UNL     2     -12.828  15.595  68.396  1.00  0.00     0.000 HD 
HETATM    6  H   UNL     3      -7.514   8.391  69.203  1.00  0.00     0.000 HD 
HETATM    7  C   UNL     3      -8.026   9.984  68.144  1.00  0.00    -0.100 C  
ENDROOT
BRANCH   4   8
HETATM    8  C   UNL     2     -10.754  13.803  66.827  1.00  0.00    -0.276 C  
HETATM    9  H   UNL     2      -9.063  13.374  65.954  1.00  0.00     0.000 HD 
HETATM   10  O   UNL     2      -9.542  14.179  66.106  1.00  0.00    -0.291 OA 
BRANCH   8  11
HETATM   11  C   UNL     2     -11.514  12.646  66.219  1.00  0.00    -0.364 C  
HETATM   12  O   UNL     2     -13.196  12.307  64.573  1.00  0.00    -0.799 OA 
HETATM   13  H   UNL     2     -12.774  11.323  66.895  1.00  0.00     0.000 HD 
HETATM   14  O   UNL     2     -11.837  14.162  64.458  1.00  0.00    -0.397 OA 
HETATM   15  O   UNL     2     -12.297  12.050  67.278  1.00  0.00    -0.322 OA 
HETATM   16  C   UNL     2     -12.308  13.087  64.974  1.00  0.00    -0.473 C  
ENDBRANCH   8  11
ENDBRANCH   4   8
BRANCH   7  17
HETATM   17  C   UNL     3      -9.296  10.584  67.519  1.00  0.00    -0.149 C  
HETATM   18  O   UNL     3     -10.484  10.131  68.273  1.00  0.00    -0.188 OA 
HETATM   19  H   UNL     3     -11.268  10.502  67.888  1.00  0.00     0.000 HD 
BRANCH  17  20
HETATM   20  C   UNL     3      -9.459  10.411  66.003  1.00  0.00    -0.185 C  
HETATM   21  C   UNL     3      -9.334   8.894  65.708  1.00  0.00    -0.219 C  
HETATM   22  O   UNL     3      -8.469  11.246  65.338  1.00  0.00    -0.377 OA 
HETATM   23  O   UNL     3     -10.153   8.212  66.426  1.00  0.00    -0.241 OA 
HETATM   24  O   UNL     3      -8.424   8.501  64.950  1.00  0.00    -0.173 OA 
HETATM   25  H   UNL     3      -8.569  11.139  64.400  1.00  0.00     0.000 HD 
ENDBRANCH  17  20
ENDBRANCH   7  17
TORSDOF 4
ENDMDL
MODEL       64
REMARK 921   NORMALIZED FREE ENERGY PREDICTED BY IDOCK:   -3.92 KCAL/MOL
REMARK 922        TOTAL FREE ENERGY PREDICTED BY IDOCK:   -6.02 KCAL/MOL
REMARK 923 INTER-LIGAND FREE ENERGY PREDICTED BY IDOCK:   -6.00 KCAL/MOL
REMARK 924 INTRA-LIGAND FREE ENERGY PREDICTED BY IDOCK:   -0.03 KCAL/MOL
REMARK 927      BINDING AFFINITY PREDICTED BY RF-SCORE:    0.00 PKD
ROOT
HETATM    1 CA   UNL     1      -8.739  11.516  64.399  1.00  0.00    -0.331 Ca 
HETATM    2  O   UNL     2      -9.196   8.839  65.114  1.00  0.00    -0.419 OA 
HETATM    3  O   UNL     3      -9.453  16.105  65.564  1.00  0.00    -0.428 OA 
HETATM    4  C   UNL     2      -9.318   8.866  66.573  1.00  0.00    -0.195 C  
HETATM    5  H   UNL     2      -8.979   7.935  64.918  1.00  0.00     0.000 HD 
HETATM    6  H   UNL     3      -8.930  16.893  65.653  1.00  0.00     0.000 HD 
HETATM    7  C   UNL     3      -9.120  15.140  66.554  1.00  0.00    -0.294 C  
ENDROOT
BRANCH   4   8
HETATM    8  C   UNL     2      -9.665  10.308  66.886  1.00  0.00    -0.186 C  
HETATM    9  H   UNL     2      -8.624  11.949  67.057  1.00  0.00     0.000 HD 
HETATM   10  O   UNL     2      -8.406  11.046  66.861  1.00  0.00    -0.129 OA 
BRANCH   8  11
HETATM   11  C   UNL     2     -10.522  10.568  68.105  1.00  0.00    -0.186 C  
HETATM   12  O   UNL     2     -11.014   9.511  70.177  1.00  0.00    -0.236 OA 
HETATM   13  H   UNL     2     -12.436  10.720  68.429  1.00  0.00     0.000 HD 
HETATM   14  O   UNL     2      -9.010   9.093  69.125  1.00  0.00    -0.139 OA 
HETATM   15  O   UNL     2     -11.898  10.557  67.664  1.00  0.00    -0.297 OA 
HETATM   16  C   UNL     2     -10.184   9.592  69.249  1.00  0.00    -0.205 C  
ENDBRANCH   8  11
ENDBRANCH   4   8
BRANCH   7  17
HETATM   17  C   UNL     3      -9.965  13.864  66.411  1.00  0.00    -0.297 C  
HETATM   18  O   UNL     3      -9.820  13.323  65.043  1.00  0.00    -0.534 OA 
HETATM   19  H   UNL     3     -10.342  12.534  64.954  1.00  0.00     0.000 HD 
BRANCH  17  20
HETATM   20  C   UNL     3     -11.431  13.963  66.853  1.00  0.00    -0.351 C  
HETATM   21  C   UNL     3     -12.299  13.582  65.626  1.00  0.00    -0.476 C  
HETATM   22  O   UNL     3     -11.662  15.304  67.373  1.00  0.00    -0.268 OA 
HETATM   23  O   UNL     3     -11.949  12.442  65.147  1.00  0.00    -0.392 OA 
HETATM   24  O   UNL     3     -13.107  14.420  65.177  1.00  0.00    -0.633 OA 
HETATM   25  H   UNL     3     -12.570  15.365  67.647  1.00  0.00     0.000 HD 
ENDBRANCH  17  20
ENDBRANCH   7  17
TORSDOF 4
ENDMDL
MODEL       65
REMARK 921   NORMALIZED FREE ENERGY PREDICTED BY IDOCK:   -3.92 KCAL/MOL
REMARK 922        TOTAL FREE ENERGY PREDICTED BY IDOCK:   -6.01 KCAL/MOL
REMARK 923 INTER-LIGAND FREE ENERGY PREDICTED BY IDOCK:   -5.97 KCAL/MOL
REMARK 924 INTRA-LIGAND FREE ENERGY PREDICTED BY IDOCK:   -0.04 KCAL/MOL
REMARK 927      BINDING AFFINITY PREDICTED BY RF-SCORE:    0.00 PKD
ROOT
HETATM    1 CA   UNL     1     -10.864  12.928  70.295  1.00  0.00    -0.456 Ca 
HETATM    2  O   UNL     2     -12.183  14.737  71.989  1.00  0.00    -0.337 OA 
HETATM    3  O   UNL     3      -9.239  12.112  65.865  1.00  0.00    -0.380 OA 
HETATM    4  C   UNL     2     -11.875  16.055  71.428  1.00  0.00    -0.470 C  
HETATM    5  H   UNL     2     -12.427  14.922  72.888  1.00  0.00     0.000 HD 
HETATM    6  H   UNL     3      -8.433  11.817  65.459  1.00  0.00     0.000 HD 
HETATM    7  C   UNL     3      -9.082  13.384  66.481  1.00  0.00    -0.113 C  
ENDROOT
BRANCH   4   8
HETATM    8  C   UNL     2     -11.485  15.761  69.993  1.00  0.00    -0.356 C  
HETATM    9  H   UNL     2     -11.712  14.225  68.811  1.00  0.00     0.000 HD 
HETATM   10  O   UNL     2     -11.957  14.409  69.710  1.00  0.00    -0.293 OA 
BRANCH   8  11
HETATM   11  C   UNL     2     -10.049  16.021  69.596  1.00  0.00    -0.244 C  
HETATM   12  O   UNL     2      -8.864  16.952  67.757  1.00  0.00    -0.212 OA 
HETATM   13  H   UNL     2      -8.499  14.898  69.237  1.00  0.00     0.000 HD 
HETATM   14  O   UNL     2     -11.033  17.603  68.171  1.00  0.00    -0.289 OA 
HETATM   15  O   UNL     2      -9.401  14.734  69.485  1.00  0.00    -0.049 OA 
HETATM   16  C   UNL     2      -9.964  16.917  68.346  1.00  0.00    -0.275 C  
ENDBRANCH   8  11
ENDBRANCH   4   8
BRANCH   7  17
HETATM   17  C   UNL     3     -10.387  13.862  67.138  1.00  0.00    -0.265 C  
HETATM   18  O   UNL     3     -11.014  12.743  67.871  1.00  0.00    -0.220 OA 
HETATM   19  H   UNL     3     -11.821  13.038  68.277  1.00  0.00     0.000 HD 
BRANCH  17  20
HETATM   20  C   UNL     3     -11.379  14.600  66.228  1.00  0.00    -0.347 C  
HETATM   21  C   UNL     3     -11.864  13.578  65.168  1.00  0.00    -0.343 C  
HETATM   22  O   UNL     3     -10.713  15.775  65.685  1.00  0.00    -0.334 OA 
HETATM   23  O   UNL     3     -12.322  12.514  65.725  1.00  0.00    -0.627 OA 
HETATM   24  O   UNL     3     -11.656  13.818  63.962  1.00  0.00    -0.361 OA 
HETATM   25  H   UNL     3     -11.326  16.233  65.121  1.00  0.00     0.000 HD 
ENDBRANCH  17  20
ENDBRANCH   7  17
TORSDOF 4
ENDMDL
MODEL       66
REMARK 921   NORMALIZED FREE ENERGY PREDICTED BY IDOCK:   -3.89 KCAL/MOL
REMARK 922        TOTAL FREE ENERGY PREDICTED BY IDOCK:   -5.97 KCAL/MOL
REMARK 923 INTER-LIGAND FREE ENERGY PREDICTED BY IDOCK:   -5.89 KCAL/MOL
REMARK 924 INTRA-LIGAND FREE ENERGY PREDICTED BY IDOCK:   -0.09 KCAL/MOL
REMARK 927      BINDING AFFINITY PREDICTED BY RF-SCORE:    0.00 PKD
ROOT
HETATM    1 CA   UNL     1      -8.935  12.911  69.035  1.00  0.00    -0.294 Ca 
HETATM    2  O   UNL     2     -11.025  14.786  68.979  1.00  0.00    -0.230 OA 
HETATM    3  O   UNL     3      -6.797   9.292  66.742  1.00  0.00    -0.078 OA 
HETATM    4  C   UNL     2     -11.274  15.013  67.553  1.00  0.00    -0.330 C  
HETATM    5  H   UNL     2     -11.390  15.554  69.401  1.00  0.00     0.000 HD 
HETATM    6  H   UNL     3      -5.915   9.048  66.488  1.00  0.00     0.000 HD 
HETATM    7  C   UNL     3      -7.248  10.441  66.038  1.00  0.00    -0.134 C  
ENDROOT
BRANCH   4   8
HETATM    8  C   UNL     2     -10.691  13.787  66.878  1.00  0.00    -0.280 C  
HETATM    9  H   UNL     2      -8.889  13.252  66.357  1.00  0.00     0.000 HD 
HETATM   10  O   UNL     2      -9.254  14.020  66.779  1.00  0.00    -0.258 OA 
BRANCH   8  11
HETATM   11  C   UNL     2     -11.343  13.325  65.594  1.00  0.00    -0.304 C  
HETATM   12  O   UNL     2     -12.467  14.292  63.735  1.00  0.00    -0.810 OA 
HETATM   13  H   UNL     2     -12.878  12.208  65.160  1.00  0.00     0.000 HD 
HETATM   14  O   UNL     2     -10.955  15.544  64.938  1.00  0.00    -0.419 OA 
HETATM   15  O   UNL     2     -12.469  12.498  65.966  1.00  0.00    -0.565 OA 
HETATM   16  C   UNL     2     -11.669  14.513  64.669  1.00  0.00    -0.431 C  
ENDBRANCH   8  11
ENDBRANCH   4   8
BRANCH   7  17
HETATM   17  C   UNL     3      -8.676  10.835  66.449  1.00  0.00    -0.158 C  
HETATM   18  O   UNL     3      -8.743  11.008  67.915  1.00  0.00    -0.128 OA 
HETATM   19  H   UNL     3      -9.625  11.251  68.169  1.00  0.00     0.000 HD 
BRANCH  17  20
HETATM   20  C   UNL     3      -9.810   9.953  65.907  1.00  0.00    -0.274 C  
HETATM   21  C   UNL     3     -10.523   9.332  67.136  1.00  0.00    -0.249 C  
HETATM   22  O   UNL     3      -9.235   8.987  64.982  1.00  0.00    -0.405 OA 
HETATM   23  O   UNL     3     -10.888  10.240  67.968  1.00  0.00    -0.236 OA 
HETATM   24  O   UNL     3     -10.554   8.090  67.250  1.00  0.00    -0.303 OA 
HETATM   25  H   UNL     3      -9.937   8.441  64.646  1.00  0.00     0.000 HD 
ENDBRANCH  17  20
ENDBRANCH   7  17
TORSDOF 4
ENDMDL
MODEL       67
REMARK 921   NORMALIZED FREE ENERGY PREDICTED BY IDOCK:   -3.88 KCAL/MOL
REMARK 922        TOTAL FREE ENERGY PREDICTED BY IDOCK:   -5.96 KCAL/MOL
REMARK 923 INTER-LIGAND FREE ENERGY PREDICTED BY IDOCK:   -5.79 KCAL/MOL
REMARK 924 INTRA-LIGAND FREE ENERGY PREDICTED BY IDOCK:   -0.18 KCAL/MOL
REMARK 927      BINDING AFFINITY PREDICTED BY RF-SCORE:    0.00 PKD
ROOT
HETATM    1 CA   UNL     1      -8.816  11.599  64.684  1.00  0.00    -0.332 Ca 
HETATM    2  O   UNL     2      -9.874  14.159  64.220  1.00  0.00    -0.538 OA 
HETATM    3  O   UNL     3      -8.867   7.747  67.528  1.00  0.00    -0.124 OA 
HETATM    4  C   UNL     2     -11.217  14.111  64.804  1.00  0.00    -0.378 C  
HETATM    5  H   UNL     2      -9.916  14.881  63.605  1.00  0.00     0.000 HD 
HETATM    6  H   UNL     3      -8.942   6.806  67.430  1.00  0.00     0.000 HD 
HETATM    7  C   UNL     3     -10.073   8.410  67.170  1.00  0.00    -0.265 C  
ENDROOT
BRANCH   4   8
HETATM    8  C   UNL     2     -11.149  12.958  65.785  1.00  0.00    -0.284 C  
HETATM    9  H   UNL     2     -12.475  11.757  66.563  1.00  0.00     0.000 HD 
HETATM   10  O   UNL     2     -12.518  12.479  65.948  1.00  0.00    -0.596 OA 
BRANCH   8  11
HETATM   11  C   UNL     2     -10.406  13.192  67.081  1.00  0.00    -0.247 C  
HETATM   12  O   UNL     2     -10.265  14.870  68.760  1.00  0.00    -0.228 OA 
HETATM   13  H   UNL     2      -8.533  13.412  67.570  1.00  0.00     0.000 HD 
HETATM   14  O   UNL     2     -12.177  14.674  67.493  1.00  0.00    -0.277 OA 
HETATM   15  O   UNL     2      -9.000  13.265  66.755  1.00  0.00    -0.228 OA 
HETATM   16  C   UNL     2     -10.974  14.403  67.846  1.00  0.00    -0.262 C  
ENDBRANCH   8  11
ENDBRANCH   4   8
BRANCH   7  17
HETATM   17  C   UNL     3      -9.952   9.935  67.331  1.00  0.00    -0.189 C  
HETATM   18  O   UNL     3      -8.527  10.324  67.323  1.00  0.00    -0.125 OA 
HETATM   19  H   UNL     3      -8.452  11.266  67.422  1.00  0.00     0.000 HD 
BRANCH  17  20
HETATM   20  C   UNL     3     -10.729  10.562  68.497  1.00  0.00    -0.224 C  
HETATM   21  C   UNL     3     -10.399   9.725  69.759  1.00  0.00    -0.246 C  
HETATM   22  O   UNL     3     -12.140  10.598  68.138  1.00  0.00    -0.797 OA 
HETATM   23  O   UNL     3      -9.130   9.633  69.936  1.00  0.00    -0.194 OA 
HETATM   24  O   UNL     3     -11.330   9.154  70.363  1.00  0.00    -0.255 OA 
HETATM   25  H   UNL     3     -12.621  10.987  68.860  1.00  0.00     0.000 HD 
ENDBRANCH  17  20
ENDBRANCH   7  17
TORSDOF 4
ENDMDL
MODEL       68
REMARK 921   NORMALIZED FREE ENERGY PREDICTED BY IDOCK:   -3.85 KCAL/MOL
REMARK 922        TOTAL FREE ENERGY PREDICTED BY IDOCK:   -5.93 KCAL/MOL
REMARK 923 INTER-LIGAND FREE ENERGY PREDICTED BY IDOCK:   -5.24 KCAL/MOL
REMARK 924 INTRA-LIGAND FREE ENERGY PREDICTED BY IDOCK:   -0.69 KCAL/MOL
REMARK 927      BINDING AFFINITY PREDICTED BY RF-SCORE:    0.00 PKD
ROOT
HETATM    1 CA   UNL     1      -7.170  14.367  66.308  1.00  0.00    -0.091 Ca 
HETATM    2  O   UNL     2      -6.149  11.758  66.113  1.00  0.00    -0.480 OA 
HETATM    3  O   UNL     3     -11.014  17.056  67.268  1.00  0.00    -0.181 OA 
HETATM    4  C   UNL     2      -6.958  10.978  67.053  1.00  0.00    -0.117 C  
HETATM    5  H   UNL     2      -5.362  11.240  66.001  1.00  0.00     0.000 HD 
HETATM    6  H   UNL     3     -11.224  17.810  67.807  1.00  0.00     0.000 HD 
HETATM    7  C   UNL     3     -10.700  15.917  68.059  1.00  0.00    -0.301 C  
ENDROOT
BRANCH   4   8
HETATM    8  C   UNL     2      -8.215  11.806  67.231  1.00  0.00    -0.163 C  
HETATM    9  H   UNL     2      -8.593  13.546  68.029  1.00  0.00     0.000 HD 
HETATM   10  O   UNL     2      -7.806  13.027  67.918  1.00  0.00    -0.122 OA 
BRANCH   8  11
HETATM   11  C   UNL     2      -9.419  11.119  67.835  1.00  0.00    -0.175 C  
HETATM   12  O   UNL     2     -11.616  10.496  67.172  1.00  0.00    -0.251 OA 
HETATM   13  H   UNL     2     -10.638  11.522  69.300  1.00  0.00     0.000 HD 
HETATM   14  O   UNL     2      -9.962  10.730  65.587  1.00  0.00    -0.234 OA 
HETATM   15  O   UNL     2      -9.882  11.954  68.921  1.00  0.00    -0.116 OA 
HETATM   16  C   UNL     2     -10.472  10.783  66.762  1.00  0.00    -0.251 C  
ENDBRANCH   8  11
ENDBRANCH   4   8
BRANCH   7  17
HETATM   17  C   UNL     3     -10.361  14.696  67.188  1.00  0.00    -0.265 C  
HETATM   18  O   UNL     3      -9.334  15.066  66.192  1.00  0.00    -0.291 OA 
HETATM   19  H   UNL     3      -9.124  14.312  65.653  1.00  0.00     0.000 HD 
BRANCH  17  20
HETATM   20  C   UNL     3     -11.550  13.954  66.561  1.00  0.00    -0.369 C  
HETATM   21  C   UNL     3     -11.465  14.181  65.030  1.00  0.00    -0.352 C  
HETATM   22  O   UNL     3     -12.772  14.440  67.185  1.00  0.00    -0.446 OA 
HETATM   23  O   UNL     3     -10.311  13.846  64.574  1.00  0.00    -0.436 OA 
HETATM   24  O   UNL     3     -12.414  14.748  64.452  1.00  0.00    -0.599 OA 
HETATM   25  H   UNL     3     -13.508  13.981  66.797  1.00  0.00     0.000 HD 
ENDBRANCH  17  20
ENDBRANCH   7  17
TORSDOF 4
ENDMDL
MODEL       69
REMARK 921   NORMALIZED FREE ENERGY PREDICTED BY IDOCK:   -3.83 KCAL/MOL
REMARK 922        TOTAL FREE ENERGY PREDICTED BY IDOCK:   -5.90 KCAL/MOL
REMARK 923 INTER-LIGAND FREE ENERGY PREDICTED BY IDOCK:   -6.43 KCAL/MOL
REMARK 924 INTRA-LIGAND FREE ENERGY PREDICTED BY IDOCK:    0.53 KCAL/MOL
REMARK 927      BINDING AFFINITY PREDICTED BY RF-SCORE:    0.00 PKD
ROOT
HETATM    1 CA   UNL     1      -9.071  12.486  69.131  1.00  0.00    -0.341 Ca 
HETATM    2  O   UNL     2      -9.124  15.173  69.945  1.00  0.00    -0.450 OA 
HETATM    3  O   UNL     3      -9.923   9.410  65.562  1.00  0.00    -0.421 OA 
HETATM    4  C   UNL     2      -8.933  15.934  68.707  1.00  0.00    -0.216 C  
HETATM    5  H   UNL     2      -8.874  15.782  70.630  1.00  0.00     0.000 HD 
HETATM    6  H   UNL     3      -9.467   8.700  65.126  1.00  0.00     0.000 HD 
HETATM    7  C   UNL     3      -9.302  10.664  65.316  1.00  0.00    -0.214 C  
ENDROOT
BRANCH   4   8
HETATM    8  C   UNL     2      -9.331  14.963  67.614  1.00  0.00    -0.191 C  
HETATM    9  H   UNL     2      -8.337  13.861  66.347  1.00  0.00     0.000 HD 
HETATM   10  O   UNL     2      -8.087  14.470  67.032  1.00  0.00    -0.191 OA 
BRANCH   8  11
HETATM   11  C   UNL     2     -10.354  15.434  66.605  1.00  0.00    -0.280 C  
HETATM   12  O   UNL     2     -10.726  17.329  65.218  1.00  0.00    -0.637 OA 
HETATM   13  H   UNL     2     -12.248  15.884  66.679  1.00  0.00     0.000 HD 
HETATM   14  O   UNL     2      -8.586  16.795  65.880  1.00  0.00    -0.500 OA 
HETATM   15  O   UNL     2     -11.605  15.588  67.312  1.00  0.00    -0.187 OA 
HETATM   16  C   UNL     2      -9.863  16.682  65.847  1.00  0.00    -0.273 C  
ENDBRANCH   8  11
ENDBRANCH   4   8
BRANCH   7  17
HETATM   17  C   UNL     3     -10.041  11.813  66.021  1.00  0.00    -0.231 C  
HETATM   18  O   UNL     3      -9.548  11.944  67.409  1.00  0.00    -0.172 OA 
HETATM   19  H   UNL     3     -10.005  12.654  67.845  1.00  0.00     0.000 HD 
BRANCH  17  20
HETATM   20  C   UNL     3     -11.574  11.791  65.939  1.00  0.00    -0.130 C  
HETATM   21  C   UNL     3     -11.967  12.576  64.663  1.00  0.00    -0.404 C  
HETATM   22  O   UNL     3     -12.105  12.336  67.181  1.00  0.00    -0.560 OA 
HETATM   23  O   UNL     3     -11.359  12.116  63.628  1.00  0.00    -0.397 OA 
HETATM   24  O   UNL     3     -12.686  13.590  64.777  1.00  0.00    -0.639 OA 
HETATM   25  H   UNL     3     -13.054  12.322  67.130  1.00  0.00     0.000 HD 
ENDBRANCH  17  20
ENDBRANCH   7  17
TORSDOF 4
ENDMDL
MODEL       70
REMARK 921   NORMALIZED FREE ENERGY PREDICTED BY IDOCK:   -3.79 KCAL/MOL
REMARK 922        TOTAL FREE ENERGY PREDICTED BY IDOCK:   -5.86 KCAL/MOL
REMARK 923 INTER-LIGAND FREE ENERGY PREDICTED BY IDOCK:   -6.51 KCAL/MOL
REMARK 924 INTRA-LIGAND FREE ENERGY PREDICTED BY IDOCK:    0.65 KCAL/MOL
REMARK 927      BINDING AFFINITY PREDICTED BY RF-SCORE:    0.00 PKD
ROOT
HETATM    1 CA   UNL     1     -10.331  15.666  63.948  1.00  0.00    -0.473 Ca 
HETATM    2  O   UNL     2      -8.830  17.146  65.803  1.00  0.00    -0.526 OA 
HETATM    3  O   UNL     3     -12.651  11.564  63.101  1.00  0.00    -0.909 OA 
HETATM    4  C   UNL     2      -9.293  16.672  67.110  1.00  0.00    -0.228 C  
HETATM    5  H   UNL     2      -8.444  17.994  65.990  1.00  0.00     0.000 HD 
HETATM    6  H   UNL     3     -13.500  11.296  62.770  1.00  0.00     0.000 HD 
HETATM    7  C   UNL     3     -12.761  12.224  64.356  1.00  0.00    -0.288 C  
ENDROOT
BRANCH   4   8
HETATM    8  C   UNL     2      -9.909  15.320  66.813  1.00  0.00    -0.236 C  
HETATM    9  H   UNL     2     -11.487  14.733  65.826  1.00  0.00     0.000 HD 
HETATM   10  O   UNL     2     -11.101  15.580  66.013  1.00  0.00    -0.289 OA 
BRANCH   8  11
HETATM   11  C   UNL     2     -10.128  14.384  67.981  1.00  0.00    -0.232 C  
HETATM   12  O   UNL     2     -11.260  14.402  70.071  1.00  0.00    -0.229 OA 
HETATM   13  H   UNL     2      -8.971  13.554  69.309  1.00  0.00     0.000 HD 
HETATM   14  O   UNL     2     -11.988  15.762  68.362  1.00  0.00    -0.269 OA 
HETATM   15  O   UNL     2      -8.834  14.142  68.576  1.00  0.00    -0.187 OA 
HETATM   16  C   UNL     2     -11.208  14.923  68.938  1.00  0.00    -0.269 C  
ENDBRANCH   8  11
ENDBRANCH   4   8
BRANCH   7  17
HETATM   17  C   UNL     3     -11.388  12.657  64.893  1.00  0.00    -0.311 C  
HETATM   18  O   UNL     3     -10.828  13.717  64.029  1.00  0.00    -0.553 OA 
HETATM   19  H   UNL     3      -9.979  13.985  64.360  1.00  0.00     0.000 HD 
BRANCH  17  20
HETATM   20  C   UNL     3     -10.380  11.534  65.177  1.00  0.00    -0.278 C  
HETATM   21  C   UNL     3     -10.440  11.250  66.700  1.00  0.00    -0.247 C  
HETATM   22  O   UNL     3      -9.076  11.956  64.685  1.00  0.00    -0.393 OA 
HETATM   23  O   UNL     3     -11.645  11.011  67.080  1.00  0.00    -0.427 OA 
HETATM   24  O   UNL     3      -9.406  11.399  67.381  1.00  0.00    -0.165 OA 
HETATM   25  H   UNL     3      -8.452  11.261  64.861  1.00  0.00     0.000 HD 
ENDBRANCH  17  20
ENDBRANCH   7  17
TORSDOF 4
ENDMDL
MODEL       71
REMARK 921   NORMALIZED FREE ENERGY PREDICTED BY IDOCK:   -3.79 KCAL/MOL
REMARK 922        TOTAL FREE ENERGY PREDICTED BY IDOCK:   -5.86 KCAL/MOL
REMARK 923 INTER-LIGAND FREE ENERGY PREDICTED BY IDOCK:   -5.60 KCAL/MOL
REMARK 924 INTRA-LIGAND FREE ENERGY PREDICTED BY IDOCK:   -0.26 KCAL/MOL
REMARK 927      BINDING AFFINITY PREDICTED BY RF-SCORE:    0.00 PKD
ROOT
HETATM    1 CA   UNL     1      -9.811  18.461  69.549  1.00  0.00    -0.280 Ca 
HETATM    2  O   UNL     2      -7.303  19.722  69.612  1.00  0.00    -0.246 OA 
HETATM    3  O   UNL     3     -12.421  14.926  67.647  1.00  0.00    -0.436 OA 
HETATM    4  C   UNL     2      -6.351  18.661  69.272  1.00  0.00    -0.265 C  
HETATM    5  H   UNL     2      -6.773  20.374  70.055  1.00  0.00     0.000 HD 
HETATM    6  H   UNL     3     -12.992  14.233  67.957  1.00  0.00     0.000 HD 
HETATM    7  C   UNL     3     -11.072  14.711  68.040  1.00  0.00    -0.281 C  
ENDROOT
BRANCH   4   8
HETATM    8  C   UNL     2      -7.198  17.622  68.565  1.00  0.00    -0.242 C  
HETATM    9  H   UNL     2      -6.980  15.720  68.188  1.00  0.00     0.000 HD 
HETATM   10  O   UNL     2      -6.449  16.371  68.631  1.00  0.00    -0.127 OA 
BRANCH   8  11
HETATM   11  C   UNL     2      -7.719  17.970  67.189  1.00  0.00    -0.218 C  
HETATM   12  O   UNL     2      -6.896  18.942  65.180  1.00  0.00    -0.496 OA 
HETATM   13  H   UNL     2      -9.072  19.193  66.502  1.00  0.00     0.000 HD 
HETATM   14  O   UNL     2      -5.444  17.887  66.623  1.00  0.00    -0.134 OA 
HETATM   15  O   UNL     2      -8.744  18.974  67.367  1.00  0.00    -0.274 OA 
HETATM   16  C   UNL     2      -6.573  18.354  66.233  1.00  0.00    -0.220 C  
ENDBRANCH   8  11
ENDBRANCH   4   8
BRANCH   7  17
HETATM   17  C   UNL     3     -10.148  15.833  67.538  1.00  0.00    -0.245 C  
HETATM   18  O   UNL     3     -10.904  17.100  67.456  1.00  0.00    -0.309 OA 
HETATM   19  H   UNL     3     -10.334  17.793  67.145  1.00  0.00     0.000 HD 
BRANCH  17  20
HETATM   20  C   UNL     3      -9.349  15.539  66.261  1.00  0.00    -0.320 C  
HETATM   21  C   UNL     3     -10.370  15.086  65.186  1.00  0.00    -0.392 C  
HETATM   22  O   UNL     3      -8.323  14.557  66.580  1.00  0.00    -0.407 OA 
HETATM   23  O   UNL     3     -11.315  15.947  65.052  1.00  0.00    -0.288 OA 
HETATM   24  O   UNL     3     -10.252  13.950  64.684  1.00  0.00    -0.417 OA 
HETATM   25  H   UNL     3      -7.828  14.374  65.790  1.00  0.00     0.000 HD 
ENDBRANCH  17  20
ENDBRANCH   7  17
TORSDOF 4
ENDMDL
MODEL       72
REMARK 921   NORMALIZED FREE ENERGY PREDICTED BY IDOCK:   -3.77 KCAL/MOL
REMARK 922        TOTAL FREE ENERGY PREDICTED BY IDOCK:   -5.83 KCAL/MOL
REMARK 923 INTER-LIGAND FREE ENERGY PREDICTED BY IDOCK:   -6.12 KCAL/MOL
REMARK 924 INTRA-LIGAND FREE ENERGY PREDICTED BY IDOCK:    0.30 KCAL/MOL
REMARK 927      BINDING AFFINITY PREDICTED BY RF-SCORE:    0.00 PKD
ROOT
HETATM    1 CA   UNL     1      -9.195  15.411  66.688  1.00  0.00    -0.185 Ca 
HETATM    2  O   UNL     2      -8.670  15.341  69.446  1.00  0.00    -0.233 OA 
HETATM    3  O   UNL     3     -12.264  14.229  63.208  1.00  0.00    -1.037 OA 
HETATM    4  C   UNL     2      -9.996  15.327  70.070  1.00  0.00    -0.107 C  
HETATM    5  H   UNL     2      -8.095  15.652  70.134  1.00  0.00     0.000 HD 
HETATM    6  H   UNL     3     -12.683  14.655  62.470  1.00  0.00     0.000 HD 
HETATM    7  C   UNL     3     -12.726  14.751  64.447  1.00  0.00     0.130 C  
ENDROOT
BRANCH   4   8
HETATM    8  C   UNL     2     -10.914  14.831  68.971  1.00  0.00    -0.248 C  
HETATM    9  H   UNL     2     -11.899  15.699  67.528  1.00  0.00     0.000 HD 
HETATM   10  O   UNL     2     -11.324  16.011  68.217  1.00  0.00    -0.353 OA 
BRANCH   8  11
HETATM   11  C   UNL     2     -12.049  13.917  69.374  1.00  0.00    -0.337 C  
HETATM   12  O   UNL     2     -13.426  13.542  71.276  1.00  0.00    -0.222 OA 
HETATM   13  H   UNL     2     -12.242  11.994  69.620  1.00  0.00     0.000 HD 
HETATM   14  O   UNL     2     -12.472  15.610  70.941  1.00  0.00    -0.410 OA 
HETATM   15  O   UNL     2     -11.529  12.568  69.367  1.00  0.00    -0.270 OA 
HETATM   16  C   UNL     2     -12.695  14.371  70.697  1.00  0.00    -0.357 C  
ENDBRANCH   8  11
ENDBRANCH   4   8
BRANCH   7  17
HETATM   17  C   UNL     3     -12.050  14.061  65.643  1.00  0.00    -0.417 C  
HETATM   18  O   UNL     3     -10.622  14.439  65.693  1.00  0.00    -0.299 OA 
HETATM   19  H   UNL     3     -10.204  14.013  66.432  1.00  0.00     0.000 HD 
BRANCH  17  20
HETATM   20  C   UNL     3     -12.263  12.546  65.766  1.00  0.00    -0.292 C  
HETATM   21  C   UNL     3     -10.857  11.892  65.764  1.00  0.00    -0.295 C  
HETATM   22  O   UNL     3     -13.138  12.118  64.684  1.00  0.00    -0.673 OA 
HETATM   23  O   UNL     3     -10.102  12.412  66.664  1.00  0.00    -0.216 OA 
HETATM   24  O   UNL     3     -10.576  11.074  64.865  1.00  0.00    -0.302 OA 
HETATM   25  H   UNL     3     -13.270  11.180  64.760  1.00  0.00     0.000 HD 
ENDBRANCH  17  20
ENDBRANCH   7  17
TORSDOF 4
ENDMDL
MODEL       73
REMARK 921   NORMALIZED FREE ENERGY PREDICTED BY IDOCK:   -3.76 KCAL/MOL
REMARK 922        TOTAL FREE ENERGY PREDICTED BY IDOCK:   -5.82 KCAL/MOL
REMARK 923 INTER-LIGAND FREE ENERGY PREDICTED BY IDOCK:   -5.89 KCAL/MOL
REMARK 924 INTRA-LIGAND FREE ENERGY PREDICTED BY IDOCK:    0.07 KCAL/MOL
REMARK 927      BINDING AFFINITY PREDICTED BY RF-SCORE:    0.00 PKD
ROOT
HETATM    1 CA   UNL     1      -8.276  15.018  65.810  1.00  0.00    -0.363 Ca 
HETATM    2  O   UNL     2      -6.531  16.647  67.289  1.00  0.00    -0.146 OA 
HETATM    3  O   UNL     3     -12.472  12.709  65.781  1.00  0.00    -0.607 OA 
HETATM    4  C   UNL     2      -7.409  17.401  68.188  1.00  0.00    -0.205 C  
HETATM    5  H   UNL     2      -5.737  17.167  67.252  1.00  0.00     0.000 HD 
HETATM    6  H   UNL     3     -13.224  12.634  65.207  1.00  0.00     0.000 HD 
HETATM    7  C   UNL     3     -12.357  14.016  66.329  1.00  0.00    -0.448 C  
ENDROOT
BRANCH   4   8
HETATM    8  C   UNL     2      -8.676  16.572  68.245  1.00  0.00    -0.209 C  
HETATM    9  H   UNL     2      -9.123  14.738  67.749  1.00  0.00     0.000 HD 
HETATM   10  O   UNL     2      -8.329  15.258  67.713  1.00  0.00    -0.143 OA 
BRANCH   8  11
HETATM   11  C   UNL     2      -9.930  17.178  67.655  1.00  0.00    -0.283 C  
HETATM   12  O   UNL     2     -10.538  18.499  65.774  1.00  0.00    -0.575 OA 
HETATM   13  H   UNL     2     -11.211  18.523  68.242  1.00  0.00     0.000 HD 
HETATM   14  O   UNL     2      -8.656  17.176  65.685  1.00  0.00    -0.470 OA 
HETATM   15  O   UNL     2     -10.423  18.142  68.612  1.00  0.00    -0.333 OA 
HETATM   16  C   UNL     2      -9.678  17.721  66.235  1.00  0.00    -0.267 C  
ENDBRANCH   8  11
ENDBRANCH   4   8
BRANCH   7  17
HETATM   17  C   UNL     3     -11.139  14.139  67.258  1.00  0.00    -0.305 C  
HETATM   18  O   UNL     3      -9.935  13.631  66.569  1.00  0.00    -0.272 OA 
HETATM   19  H   UNL     3      -9.182  13.706  67.143  1.00  0.00     0.000 HD 
BRANCH  17  20
HETATM   20  C   UNL     3     -11.298  13.560  68.671  1.00  0.00    -0.288 C  
HETATM   21  C   UNL     3     -11.553  14.758  69.622  1.00  0.00    -0.304 C  
HETATM   22  O   UNL     3     -10.109  12.777  68.980  1.00  0.00    -0.426 OA 
HETATM   23  O   UNL     3     -12.538  15.474  69.212  1.00  0.00    -0.054 OA 
HETATM   24  O   UNL     3     -10.751  14.968  70.554  1.00  0.00    -0.188 OA 
HETATM   25  H   UNL     3     -10.207  12.419  69.855  1.00  0.00     0.000 HD 
ENDBRANCH  17  20
ENDBRANCH   7  17
TORSDOF 4
ENDMDL
MODEL       74
REMARK 921   NORMALIZED FREE ENERGY PREDICTED BY IDOCK:   -3.75 KCAL/MOL
REMARK 922        TOTAL FREE ENERGY PREDICTED BY IDOCK:   -5.81 KCAL/MOL
REMARK 923 INTER-LIGAND FREE ENERGY PREDICTED BY IDOCK:   -5.09 KCAL/MOL
REMARK 924 INTRA-LIGAND FREE ENERGY PREDICTED BY IDOCK:   -0.72 KCAL/MOL
REMARK 927      BINDING AFFINITY PREDICTED BY RF-SCORE:    0.00 PKD
ROOT
HETATM    1 CA   UNL     1     -11.551   8.727  67.591  1.00  0.00    -0.509 Ca 
HETATM    2  O   UNL     2     -12.741  10.713  69.181  1.00  0.00    -0.685 OA 
HETATM    3  O   UNL     3      -7.978   7.675  64.582  1.00  0.00    -0.134 OA 
HETATM    4  C   UNL     2     -11.634  11.598  69.550  1.00  0.00    -0.331 C  
HETATM    5  H   UNL     2     -13.404  10.886  69.838  1.00  0.00     0.000 HD 
HETATM    6  H   UNL     3      -7.323   6.994  64.485  1.00  0.00     0.000 HD 
HETATM    7  C   UNL     3      -7.751   8.461  65.744  1.00  0.00    -0.094 C  
ENDROOT
BRANCH   4   8
HETATM    8  C   UNL     2     -10.576  11.320  68.501  1.00  0.00    -0.199 C  
HETATM    9  H   UNL     2      -9.385   9.818  68.136  1.00  0.00     0.000 HD 
HETATM   10  O   UNL     2     -10.047   9.992  68.794  1.00  0.00    -0.170 OA 
BRANCH   8  11
HETATM   11  C   UNL     2      -9.521  12.381  68.280  1.00  0.00    -0.203 C  
HETATM   12  O   UNL     2      -8.965  14.005  66.634  1.00  0.00    -0.231 OA 
HETATM   13  H   UNL     2      -7.589  12.367  68.035  1.00  0.00     0.000 HD 
HETATM   14  O   UNL     2     -11.141  13.279  66.840  1.00  0.00    -0.279 OA 
HETATM   15  O   UNL     2      -8.251  11.700  68.173  1.00  0.00    -0.136 OA 
HETATM   16  C   UNL     2      -9.884  13.297  67.095  1.00  0.00    -0.237 C  
ENDBRANCH   8  11
ENDBRANCH   4   8
BRANCH   7  17
HETATM   17  C   UNL     3      -8.811   9.563  65.901  1.00  0.00    -0.164 C  
HETATM   18  O   UNL     3     -10.160   8.961  65.889  1.00  0.00    -0.432 OA 
HETATM   19  H   UNL     3     -10.815   9.642  65.986  1.00  0.00     0.000 HD 
BRANCH  17  20
HETATM   20  C   UNL     3      -8.693  10.764  64.952  1.00  0.00    -0.126 C  
HETATM   21  C   UNL     3     -10.011  10.827  64.140  1.00  0.00    -0.343 C  
HETATM   22  O   UNL     3      -7.489  10.597  64.151  1.00  0.00    -0.347 OA 
HETATM   23  O   UNL     3     -11.035  10.844  64.917  1.00  0.00    -0.160 OA 
HETATM   24  O   UNL     3      -9.958  10.730  62.897  1.00  0.00    -0.307 OA 
HETATM   25  H   UNL     3      -7.415  11.340  63.563  1.00  0.00     0.000 HD 
ENDBRANCH  17  20
ENDBRANCH   7  17
TORSDOF 4
ENDMDL
MODEL       75
REMARK 921   NORMALIZED FREE ENERGY PREDICTED BY IDOCK:   -3.74 KCAL/MOL
REMARK 922        TOTAL FREE ENERGY PREDICTED BY IDOCK:   -5.80 KCAL/MOL
REMARK 923 INTER-LIGAND FREE ENERGY PREDICTED BY IDOCK:   -6.06 KCAL/MOL
REMARK 924 INTRA-LIGAND FREE ENERGY PREDICTED BY IDOCK:    0.26 KCAL/MOL
REMARK 927      BINDING AFFINITY PREDICTED BY RF-SCORE:    0.00 PKD
ROOT
HETATM    1 CA   UNL     1     -11.494   5.212  71.790  1.00  0.00    -0.206 Ca 
HETATM    2  O   UNL     2      -9.496   4.376  70.002  1.00  0.00    -0.143 OA 
HETATM    3  O   UNL     3     -14.154   8.888  73.321  1.00  0.00    -1.211 OA 
HETATM    4  C   UNL     2      -9.632   5.276  68.854  1.00  0.00    -0.137 C  
HETATM    5  H   UNL     2      -9.034   3.624  69.651  1.00  0.00     0.000 HD 
HETATM    6  H   UNL     3     -15.071   9.064  73.492  1.00  0.00     0.000 HD 
HETATM    7  C   UNL     3     -13.906   8.689  71.935  1.00  0.00    -0.432 C  
ENDROOT
BRANCH   4   8
HETATM    8  C   UNL     2     -10.370   6.476  69.414  1.00  0.00    -0.205 C  
HETATM    9  H   UNL     2     -12.199   6.786  70.019  1.00  0.00     0.000 HD 
HETATM   10  O   UNL     2     -11.737   6.034  69.668  1.00  0.00    -0.196 OA 
BRANCH   8  11
HETATM   11  C   UNL     2     -10.261   7.777  68.651  1.00  0.00    -0.201 C  
HETATM   12  O   UNL     2     -10.209   8.497  66.385  1.00  0.00    -0.273 OA 
HETATM   13  H   UNL     2      -8.899   9.159  68.480  1.00  0.00     0.000 HD 
HETATM   14  O   UNL     2     -11.245   6.516  66.934  1.00  0.00    -0.387 OA 
HETATM   15  O   UNL     2      -8.967   8.342  68.959  1.00  0.00    -0.146 OA 
HETATM   16  C   UNL     2     -10.557   7.576  67.152  1.00  0.00    -0.345 C  
ENDBRANCH   8  11
ENDBRANCH   4   8
BRANCH   7  17
HETATM   17  C   UNL     3     -12.421   8.404  71.659  1.00  0.00    -0.328 C  
HETATM   18  O   UNL     3     -11.976   7.252  72.470  1.00  0.00    -0.472 OA 
HETATM   19  H   UNL     3     -11.058   7.076  72.299  1.00  0.00     0.000 HD 
BRANCH  17  20
HETATM   20  C   UNL     3     -11.466   9.601  71.762  1.00  0.00    -0.188 C  
HETATM   21  C   UNL     3     -11.837  10.573  70.612  1.00  0.00    -0.360 C  
HETATM   22  O   UNL     3     -10.099   9.100  71.720  1.00  0.00    -0.329 OA 
HETATM   23  O   UNL     3     -13.087  10.869  70.641  1.00  0.00    -0.246 OA 
HETATM   24  O   UNL     3     -10.973  10.851  69.756  1.00  0.00    -0.255 OA 
HETATM   25  H   UNL     3      -9.507   9.841  71.784  1.00  0.00     0.000 HD 
ENDBRANCH  17  20
ENDBRANCH   7  17
TORSDOF 4
ENDMDL
MODEL       76
REMARK 921   NORMALIZED FREE ENERGY PREDICTED BY IDOCK:   -3.74 KCAL/MOL
REMARK 922        TOTAL FREE ENERGY PREDICTED BY IDOCK:   -5.79 KCAL/MOL
REMARK 923 INTER-LIGAND FREE ENERGY PREDICTED BY IDOCK:   -5.90 KCAL/MOL
REMARK 924 INTRA-LIGAND FREE ENERGY PREDICTED BY IDOCK:    0.11 KCAL/MOL
REMARK 927      BINDING AFFINITY PREDICTED BY RF-SCORE:    0.00 PKD
ROOT
HETATM    1 CA   UNL     1      -8.614  14.722  65.477  1.00  0.00    -0.430 Ca 
HETATM    2  O   UNL     2      -9.513  17.011  66.834  1.00  0.00    -0.241 OA 
HETATM    3  O   UNL     3      -8.735   9.940  65.263  1.00  0.00    -0.143 OA 
HETATM    4  C   UNL     2     -10.809  16.618  67.394  1.00  0.00    -0.186 C  
HETATM    5  H   UNL     2      -9.548  17.959  66.816  1.00  0.00     0.000 HD 
HETATM    6  H   UNL     3      -8.886   9.273  64.603  1.00  0.00     0.000 HD 
HETATM    7  C   UNL     3      -9.912  10.692  65.527  1.00  0.00    -0.272 C  
ENDROOT
BRANCH   4   8
HETATM    8  C   UNL     2     -10.754  15.103  67.421  1.00  0.00    -0.286 C  
HETATM    9  H   UNL     2      -9.305  13.798  67.476  1.00  0.00     0.000 HD 
HETATM   10  O   UNL     2      -9.339  14.747  67.459  1.00  0.00    -0.189 OA 
BRANCH   8  11
HETATM   11  C   UNL     2     -11.562  14.360  66.382  1.00  0.00    -0.375 C  
HETATM   12  O   UNL     2     -12.413  14.748  64.195  1.00  0.00    -0.758 OA 
HETATM   13  H   UNL     2     -13.377  13.657  66.299  1.00  0.00     0.000 HD 
HETATM   14  O   UNL     2     -10.551  15.892  64.920  1.00  0.00    -0.546 OA 
HETATM   15  O   UNL     2     -12.869  14.124  66.952  1.00  0.00     0.069 OA 
HETATM   16  C   UNL     2     -11.551  15.097  65.028  1.00  0.00    -0.294 C  
ENDBRANCH   8  11
ENDBRANCH   4   8
BRANCH   7  17
HETATM   17  C   UNL     3      -9.669  11.772  66.594  1.00  0.00    -0.202 C  
HETATM   18  O   UNL     3      -8.429  12.511  66.280  1.00  0.00    -0.402 OA 
HETATM   19  H   UNL     3      -8.278  13.178  66.939  1.00  0.00     0.000 HD 
BRANCH  17  20
HETATM   20  C   UNL     3      -9.727  11.311  68.057  1.00  0.00    -0.179 C  
HETATM   21  C   UNL     3     -11.180  11.541  68.545  1.00  0.00    -0.258 C  
HETATM   22  O   UNL     3      -8.709  12.037  68.805  1.00  0.00    -0.350 OA 
HETATM   23  O   UNL     3     -12.027  10.975  67.761  1.00  0.00    -0.609 OA 
HETATM   24  O   UNL     3     -11.378  12.307  69.509  1.00  0.00    -0.246 OA 
HETATM   25  H   UNL     3      -8.744  11.752  69.711  1.00  0.00     0.000 HD 
ENDBRANCH  17  20
ENDBRANCH   7  17
TORSDOF 4
ENDMDL
MODEL       77
REMARK 921   NORMALIZED FREE ENERGY PREDICTED BY IDOCK:   -3.73 KCAL/MOL
REMARK 922        TOTAL FREE ENERGY PREDICTED BY IDOCK:   -5.78 KCAL/MOL
REMARK 923 INTER-LIGAND FREE ENERGY PREDICTED BY IDOCK:   -6.04 KCAL/MOL
REMARK 924 INTRA-LIGAND FREE ENERGY PREDICTED BY IDOCK:    0.26 KCAL/MOL
REMARK 927      BINDING AFFINITY PREDICTED BY RF-SCORE:    0.00 PKD
ROOT
HETATM    1 CA   UNL     1      -7.097  16.052  70.125  1.00  0.00    -0.193 Ca 
HETATM    2  O   UNL     2      -6.241  18.701  69.761  1.00  0.00    -0.263 OA 
HETATM    3  O   UNL     3     -10.669  12.922  69.510  1.00  0.00    -0.428 OA 
HETATM    4  C   UNL     2      -6.983  19.167  68.586  1.00  0.00    -0.301 C  
HETATM    5  H   UNL     2      -5.499  19.291  69.813  1.00  0.00     0.000 HD 
HETATM    6  H   UNL     3     -10.779  12.047  69.159  1.00  0.00     0.000 HD 
HETATM    7  C   UNL     3     -10.331  13.858  68.495  1.00  0.00    -0.244 C  
ENDROOT
BRANCH   4   8
HETATM    8  C   UNL     2      -8.168  18.225  68.503  1.00  0.00    -0.312 C  
HETATM    9  H   UNL     2      -8.408  16.395  67.870  1.00  0.00     0.000 HD 
HETATM   10  O   UNL     2      -7.665  16.985  67.922  1.00  0.00    -0.169 OA 
BRANCH   8  11
HETATM   11  C   UNL     2      -9.431  18.754  67.861  1.00  0.00    -0.304 C  
HETATM   12  O   UNL     2     -10.274  19.135  65.670  1.00  0.00    -0.485 OA 
HETATM   13  H   UNL     2     -10.351  20.471  67.850  1.00  0.00     0.000 HD 
HETATM   14  O   UNL     2      -8.658  17.532  66.013  1.00  0.00    -0.497 OA 
HETATM   15  O   UNL     2      -9.557  20.139  68.253  1.00  0.00    -0.297 OA 
HETATM   16  C   UNL     2      -9.443  18.491  66.342  1.00  0.00    -0.301 C  
ENDBRANCH   8  11
ENDBRANCH   4   8
BRANCH   7  17
HETATM   17  C   UNL     3     -10.153  15.275  69.063  1.00  0.00    -0.239 C  
HETATM   18  O   UNL     3      -9.206  15.240  70.198  1.00  0.00    -0.368 OA 
HETATM   19  H   UNL     3      -9.096  16.115  70.549  1.00  0.00     0.000 HD 
BRANCH  17  20
HETATM   20  C   UNL     3     -11.439  16.045  69.393  1.00  0.00    -0.336 C  
HETATM   21  C   UNL     3     -12.066  15.364  70.636  1.00  0.00    -0.369 C  
HETATM   22  O   UNL     3     -12.285  16.049  68.207  1.00  0.00    -0.233 OA 
HETATM   23  O   UNL     3     -11.217  15.283  71.598  1.00  0.00    -0.395 OA 
HETATM   24  O   UNL     3     -13.211  14.878  70.544  1.00  0.00    -0.309 OA 
HETATM   25  H   UNL     3     -13.081  16.526  68.411  1.00  0.00     0.000 HD 
ENDBRANCH  17  20
ENDBRANCH   7  17
TORSDOF 4
ENDMDL
MODEL       78
REMARK 921   NORMALIZED FREE ENERGY PREDICTED BY IDOCK:   -3.73 KCAL/MOL
REMARK 922        TOTAL FREE ENERGY PREDICTED BY IDOCK:   -5.78 KCAL/MOL
REMARK 923 INTER-LIGAND FREE ENERGY PREDICTED BY IDOCK:   -5.31 KCAL/MOL
REMARK 924 INTRA-LIGAND FREE ENERGY PREDICTED BY IDOCK:   -0.47 KCAL/MOL
REMARK 927      BINDING AFFINITY PREDICTED BY RF-SCORE:    0.00 PKD
ROOT
HETATM    1 CA   UNL     1      -7.537  13.395  66.528  1.00  0.00    -0.368 Ca 
HETATM    2  O   UNL     2      -6.675  14.942  68.707  1.00  0.00    -0.087 OA 
HETATM    3  O   UNL     3     -11.222  12.256  63.690  1.00  0.00    -0.397 OA 
HETATM    4  C   UNL     2      -7.540  16.124  68.682  1.00  0.00    -0.183 C  
HETATM    5  H   UNL     2      -5.919  15.221  69.210  1.00  0.00     0.000 HD 
HETATM    6  H   UNL     3     -11.392  12.186  62.758  1.00  0.00     0.000 HD 
HETATM    7  C   UNL     3     -10.987  13.602  64.081  1.00  0.00    -0.190 C  
ENDROOT
BRANCH   4   8
HETATM    8  C   UNL     2      -8.746  15.679  67.879  1.00  0.00    -0.166 C  
HETATM    9  H   UNL     2      -9.043  15.246  66.000  1.00  0.00     0.000 HD 
HETATM   10  O   UNL     2      -8.287  15.525  66.502  1.00  0.00    -0.269 OA 
BRANCH   8  11
HETATM   11  C   UNL     2     -10.017  16.484  68.031  1.00  0.00    -0.245 C  
HETATM   12  O   UNL     2     -12.234  16.154  68.824  1.00  0.00    -0.056 OA 
HETATM   13  H   UNL     2     -11.244  17.359  66.797  1.00  0.00     0.000 HD 
HETATM   14  O   UNL     2     -10.521  14.844  69.631  1.00  0.00    -0.226 OA 
HETATM   15  O   UNL     2     -10.446  16.853  66.701  1.00  0.00    -0.307 OA 
HETATM   16  C   UNL     2     -11.061  15.734  68.881  1.00  0.00    -0.298 C  
ENDBRANCH   8  11
ENDBRANCH   4   8
BRANCH   7  17
HETATM   17  C   UNL     3     -10.713  13.716  65.589  1.00  0.00    -0.283 C  
HETATM   18  O   UNL     3      -9.510  12.931  65.937  1.00  0.00    -0.431 OA 
HETATM   19  H   UNL     3      -9.340  13.001  66.869  1.00  0.00     0.000 HD 
BRANCH  17  20
HETATM   20  C   UNL     3     -11.896  13.425  66.522  1.00  0.00    -0.396 C  
HETATM   21  C   UNL     3     -11.454  12.279  67.467  1.00  0.00    -0.347 C  
HETATM   22  O   UNL     3     -13.062  13.126  65.702  1.00  0.00    -0.408 OA 
HETATM   23  O   UNL     3     -10.350  12.566  68.059  1.00  0.00    -0.210 OA 
HETATM   24  O   UNL     3     -12.099  11.211  67.461  1.00  0.00    -0.444 OA 
HETATM   25  H   UNL     3     -13.795  12.946  66.279  1.00  0.00     0.000 HD 
ENDBRANCH  17  20
ENDBRANCH   7  17
TORSDOF 4
ENDMDL
MODEL       79
REMARK 921   NORMALIZED FREE ENERGY PREDICTED BY IDOCK:   -3.72 KCAL/MOL
REMARK 922        TOTAL FREE ENERGY PREDICTED BY IDOCK:   -5.77 KCAL/MOL
REMARK 923 INTER-LIGAND FREE ENERGY PREDICTED BY IDOCK:   -5.85 KCAL/MOL
REMARK 924 INTRA-LIGAND FREE ENERGY PREDICTED BY IDOCK:    0.08 KCAL/MOL
REMARK 927      BINDING AFFINITY PREDICTED BY RF-SCORE:    0.00 PKD
ROOT
HETATM    1 CA   UNL     1      -9.774  16.240  70.060  1.00  0.00    -0.240 Ca 
HETATM    2  O   UNL     2     -10.402  18.805  69.106  1.00  0.00    -0.506 OA 
HETATM    3  O   UNL     3      -9.727  11.552  69.085  1.00  0.00    -0.410 OA 
HETATM    4  C   UNL     2     -10.253  18.701  67.652  1.00  0.00    -0.384 C  
HETATM    5  H   UNL     2     -10.330  19.736  69.278  1.00  0.00     0.000 HD 
HETATM    6  H   UNL     3      -9.110  10.832  69.140  1.00  0.00     0.000 HD 
HETATM    7  C   UNL     3      -9.335  12.508  68.109  1.00  0.00    -0.210 C  
ENDROOT
BRANCH   4   8
HETATM    8  C   UNL     2     -10.368  17.214  67.377  1.00  0.00    -0.333 C  
HETATM    9  H   UNL     2     -11.063  15.696  68.385  1.00  0.00     0.000 HD 
HETATM   10  O   UNL     2     -10.991  16.627  68.558  1.00  0.00    -0.342 OA 
BRANCH   8  11
HETATM   11  C   UNL     2      -9.123  16.499  66.901  1.00  0.00    -0.220 C  
HETATM   12  O   UNL     2      -6.774  16.613  67.253  1.00  0.00    -0.143 OA 
HETATM   13  H   UNL     2      -8.236  16.286  65.180  1.00  0.00     0.000 HD 
HETATM   14  O   UNL     2      -8.216  17.368  68.882  1.00  0.00    -0.254 OA 
HETATM   15  O   UNL     2      -9.017  16.735  65.479  1.00  0.00    -0.383 OA 
HETATM   16  C   UNL     2      -7.890  16.899  67.734  1.00  0.00    -0.178 C  
ENDBRANCH   8  11
ENDBRANCH   4   8
BRANCH   7  17
HETATM   17  C   UNL     3     -10.334  13.673  68.020  1.00  0.00    -0.250 C  
HETATM   18  O   UNL     3     -10.736  14.088  69.380  1.00  0.00    -0.404 OA 
HETATM   19  H   UNL     3     -11.353  14.808  69.325  1.00  0.00     0.000 HD 
BRANCH  17  20
HETATM   20  C   UNL     3     -11.536  13.472  67.086  1.00  0.00    -0.338 C  
HETATM   21  C   UNL     3     -11.092  13.939  65.676  1.00  0.00    -0.298 C  
HETATM   22  O   UNL     3     -12.671  14.195  67.640  1.00  0.00    -0.350 OA 
HETATM   23  O   UNL     3     -10.012  13.348  65.309  1.00  0.00    -0.259 OA 
HETATM   24  O   UNL     3     -11.713  14.873  65.129  1.00  0.00    -0.348 OA 
HETATM   25  H   UNL     3     -13.415  14.071  67.062  1.00  0.00     0.000 HD 
ENDBRANCH  17  20
ENDBRANCH   7  17
TORSDOF 4
ENDMDL
MODEL       80
REMARK 921   NORMALIZED FREE ENERGY PREDICTED BY IDOCK:   -3.70 KCAL/MOL
REMARK 922        TOTAL FREE ENERGY PREDICTED BY IDOCK:   -5.75 KCAL/MOL
REMARK 923 INTER-LIGAND FREE ENERGY PREDICTED BY IDOCK:   -5.72 KCAL/MOL
REMARK 924 INTRA-LIGAND FREE ENERGY PREDICTED BY IDOCK:   -0.02 KCAL/MOL
REMARK 927      BINDING AFFINITY PREDICTED BY RF-SCORE:    0.00 PKD
ROOT
HETATM    1 CA   UNL     1     -10.314  11.953  69.348  1.00  0.00    -0.264 Ca 
HETATM    2  O   UNL     2      -9.463   9.891  67.643  1.00  0.00    -0.145 OA 
HETATM    3  O   UNL     3     -11.480  16.585  69.688  1.00  0.00    -0.312 OA 
HETATM    4  C   UNL     2      -9.976  10.272  66.324  1.00  0.00    -0.235 C  
HETATM    5  H   UNL     2      -9.314   8.956  67.571  1.00  0.00     0.000 HD 
HETATM    6  H   UNL     3     -12.190  17.103  70.047  1.00  0.00     0.000 HD 
HETATM    7  C   UNL     3     -11.909  15.800  68.583  1.00  0.00    -0.275 C  
ENDROOT
BRANCH   4   8
HETATM    8  C   UNL     2     -10.214  11.764  66.440  1.00  0.00    -0.215 C  
HETATM    9  H   UNL     2      -9.599  13.147  67.672  1.00  0.00     0.000 HD 
HETATM   10  O   UNL     2      -9.450  12.212  67.600  1.00  0.00    -0.178 OA 
BRANCH   8  11
HETATM   11  C   UNL     2     -11.649  12.242  66.410  1.00  0.00    -0.383 C  
HETATM   12  O   UNL     2     -12.919  13.956  65.359  1.00  0.00    -0.722 OA 
HETATM   13  H   UNL     2     -12.874  12.990  67.726  1.00  0.00     0.000 HD 
HETATM   14  O   UNL     2     -10.985  13.191  64.370  1.00  0.00    -0.350 OA 
HETATM   15  O   UNL     2     -11.973  12.690  67.746  1.00  0.00    -0.347 OA 
HETATM   16  C   UNL     2     -11.874  13.277  65.291  1.00  0.00    -0.357 C  
ENDBRANCH   8  11
ENDBRANCH   4   8
BRANCH   7  17
HETATM   17  C   UNL     3     -10.759  14.962  68.001  1.00  0.00    -0.253 C  
HETATM   18  O   UNL     3      -9.990  14.342  69.100  1.00  0.00    -0.395 OA 
HETATM   19  H   UNL     3      -9.280  13.824  68.740  1.00  0.00     0.000 HD 
BRANCH  17  20
HETATM   20  C   UNL     3      -9.859  15.660  66.971  1.00  0.00    -0.233 C  
HETATM   21  C   UNL     3      -9.272  16.916  67.665  1.00  0.00    -0.228 C  
HETATM   22  O   UNL     3     -10.653  15.933  65.782  1.00  0.00    -0.332 OA 
HETATM   23  O   UNL     3      -8.697  16.608  68.772  1.00  0.00    -0.246 OA 
HETATM   24  O   UNL     3      -9.511  18.039  67.178  1.00  0.00    -0.255 OA 
HETATM   25  H   UNL     3     -10.096  16.365  65.144  1.00  0.00     0.000 HD 
ENDBRANCH  17  20
ENDBRANCH   7  17
TORSDOF 4
ENDMDL
MODEL       81
REMARK 921   NORMALIZED FREE ENERGY PREDICTED BY IDOCK:   -3.70 KCAL/MOL
REMARK 922        TOTAL FREE ENERGY PREDICTED BY IDOCK:   -5.74 KCAL/MOL
REMARK 923 INTER-LIGAND FREE ENERGY PREDICTED BY IDOCK:   -5.65 KCAL/MOL
REMARK 924 INTRA-LIGAND FREE ENERGY PREDICTED BY IDOCK:   -0.10 KCAL/MOL
REMARK 927      BINDING AFFINITY PREDICTED BY RF-SCORE:    0.00 PKD
ROOT
HETATM    1 CA   UNL     1      -7.012  13.384  66.492  1.00  0.00    -0.325 Ca 
HETATM    2  O   UNL     2      -5.942  10.883  65.795  1.00  0.00    -0.199 OA 
HETATM    3  O   UNL     3     -11.007  15.908  67.265  1.00  0.00    -0.310 OA 
HETATM    4  C   UNL     2      -6.943   9.916  66.255  1.00  0.00    -0.100 C  
HETATM    5  H   UNL     2      -5.145  10.372  65.725  1.00  0.00     0.000 HD 
HETATM    6  H   UNL     3     -11.348  16.489  67.934  1.00  0.00     0.000 HD 
HETATM    7  C   UNL     3     -10.877  14.575  67.744  1.00  0.00    -0.264 C  
ENDROOT
BRANCH   4   8
HETATM    8  C   UNL     2      -8.216  10.731  66.368  1.00  0.00    -0.155 C  
HETATM    9  H   UNL     2      -8.927  11.963  67.703  1.00  0.00     0.000 HD 
HETATM   10  O   UNL     2      -8.129  11.453  67.633  1.00  0.00    -0.117 OA 
BRANCH   8  11
HETATM   11  C   UNL     2      -9.525  10.008  66.145  1.00  0.00    -0.190 C  
HETATM   12  O   UNL     2     -10.473   7.880  66.624  1.00  0.00    -0.296 OA 
HETATM   13  H   UNL     2     -10.515   9.412  64.576  1.00  0.00     0.000 HD 
HETATM   14  O   UNL     2      -8.779   8.705  67.947  1.00  0.00    -0.135 OA 
HETATM   15  O   UNL     2      -9.692   9.866  64.716  1.00  0.00    -0.309 OA 
HETATM   16  C   UNL     2      -9.589   8.698  66.953  1.00  0.00    -0.194 C  
ENDBRANCH   8  11
ENDBRANCH   4   8
BRANCH   7  17
HETATM   17  C   UNL     3     -10.325  13.634  66.661  1.00  0.00    -0.275 C  
HETATM   18  O   UNL     3      -9.295  14.337  65.869  1.00  0.00    -0.504 OA 
HETATM   19  H   UNL     3      -8.953  13.756  65.200  1.00  0.00     0.000 HD 
BRANCH  17  20
HETATM   20  C   UNL     3     -11.362  12.922  65.781  1.00  0.00    -0.315 C  
HETATM   21  C   UNL     3     -12.102  14.023  64.979  1.00  0.00    -0.415 C  
HETATM   22  O   UNL     3     -12.215  12.115  66.642  1.00  0.00    -0.566 OA 
HETATM   23  O   UNL     3     -11.273  14.773  64.346  1.00  0.00    -0.292 OA 
HETATM   24  O   UNL     3     -13.336  14.144  65.120  1.00  0.00    -0.684 OA 
HETATM   25  H   UNL     3     -12.857  11.674  66.098  1.00  0.00     0.000 HD 
ENDBRANCH  17  20
ENDBRANCH   7  17
TORSDOF 4
ENDMDL
MODEL       82
REMARK 921   NORMALIZED FREE ENERGY PREDICTED BY IDOCK:   -3.69 KCAL/MOL
REMARK 922        TOTAL FREE ENERGY PREDICTED BY IDOCK:   -5.74 KCAL/MOL
REMARK 923 INTER-LIGAND FREE ENERGY PREDICTED BY IDOCK:   -4.54 KCAL/MOL
REMARK 924 INTRA-LIGAND FREE ENERGY PREDICTED BY IDOCK:   -1.19 KCAL/MOL
REMARK 927      BINDING AFFINITY PREDICTED BY RF-SCORE:    0.00 PKD
ROOT
HETATM    1 CA   UNL     1     -10.588   6.972  74.339  1.00  0.00    -0.329 Ca 
HETATM    2  O   UNL     2      -7.801   6.627  74.387  1.00  0.00    -0.107 OA 
HETATM    3  O   UNL     3     -14.377   8.247  71.704  1.00  0.00    -0.432 OA 
HETATM    4  C   UNL     2      -7.448   6.312  73.000  1.00  0.00    -0.096 C  
HETATM    5  H   UNL     2      -7.069   6.294  74.892  1.00  0.00     0.000 HD 
HETATM    6  H   UNL     3     -15.237   7.898  71.500  1.00  0.00     0.000 HD 
HETATM    7  C   UNL     3     -13.341   7.441  71.157  1.00  0.00    -0.179 C  
ENDROOT
BRANCH   4   8
HETATM    8  C   UNL     2      -8.617   6.843  72.194  1.00  0.00    -0.116 C  
HETATM    9  H   UNL     2     -10.441   6.227  71.880  1.00  0.00     0.000 HD 
HETATM   10  O   UNL     2      -9.709   5.894  72.385  1.00  0.00    -0.159 OA 
BRANCH   8  11
HETATM   11  C   UNL     2      -8.353   7.217  70.752  1.00  0.00    -0.128 C  
HETATM   12  O   UNL     2      -8.329   9.180  69.412  1.00  0.00    -0.115 OA 
HETATM   13  H   UNL     2      -9.205   6.805  69.050  1.00  0.00     0.000 HD 
HETATM   14  O   UNL     2      -7.952   9.335  71.678  1.00  0.00    -0.321 OA 
HETATM   15  O   UNL     2      -9.371   6.570  69.955  1.00  0.00    -0.151 OA 
HETATM   16  C   UNL     2      -8.244   8.744  70.578  1.00  0.00    -0.131 C  
ENDBRANCH   8  11
ENDBRANCH   4   8
BRANCH   7  17
HETATM   17  C   UNL     3     -11.949   8.005  71.485  1.00  0.00    -0.297 C  
HETATM   18  O   UNL     3     -11.803   8.147  72.949  1.00  0.00    -0.559 OA 
HETATM   19  H   UNL     3     -10.943   8.496  73.152  1.00  0.00     0.000 HD 
BRANCH  17  20
HETATM   20  C   UNL     3     -11.529   9.271  70.725  1.00  0.00    -0.292 C  
HETATM   21  C   UNL     3     -12.615  10.342  70.998  1.00  0.00    -0.390 C  
HETATM   22  O   UNL     3     -11.353   8.923  69.322  1.00  0.00    -0.426 OA 
HETATM   23  O   UNL     3     -12.803  10.501  72.260  1.00  0.00    -0.310 OA 
HETATM   24  O   UNL     3     -13.248  10.818  70.034  1.00  0.00    -0.004 OA 
HETATM   25  H   UNL     3     -11.092   9.706  68.850  1.00  0.00     0.000 HD 
ENDBRANCH  17  20
ENDBRANCH   7  17
TORSDOF 4
ENDMDL
MODEL       83
REMARK 921   NORMALIZED FREE ENERGY PREDICTED BY IDOCK:   -3.68 KCAL/MOL
REMARK 922        TOTAL FREE ENERGY PREDICTED BY IDOCK:   -5.72 KCAL/MOL
REMARK 923 INTER-LIGAND FREE ENERGY PREDICTED BY IDOCK:   -5.01 KCAL/MOL
REMARK 924 INTRA-LIGAND FREE ENERGY PREDICTED BY IDOCK:   -0.70 KCAL/MOL
REMARK 927      BINDING AFFINITY PREDICTED BY RF-SCORE:    0.00 PKD
ROOT
HETATM    1 CA   UNL     1      -8.680   8.835  72.181  1.00  0.00    -0.137 Ca 
HETATM    2  O   UNL     2      -7.726   6.209  71.901  1.00  0.00    -0.095 OA 
HETATM    3  O   UNL     3     -11.718  12.145  70.523  1.00  0.00    -0.513 OA 
HETATM    4  C   UNL     2      -8.857   5.467  71.338  1.00  0.00    -0.136 C  
HETATM    5  H   UNL     2      -7.180   5.536  72.289  1.00  0.00     0.000 HD 
HETATM    6  H   UNL     3     -12.365  12.742  70.880  1.00  0.00     0.000 HD 
HETATM    7  C   UNL     3     -12.119  10.788  70.668  1.00  0.00    -0.370 C  
ENDROOT
BRANCH   4   8
HETATM    8  C   UNL     2      -9.729   6.541  70.718  1.00  0.00    -0.179 C  
HETATM    9  H   UNL     2     -10.828   7.982  71.439  1.00  0.00     0.000 HD 
HETATM   10  O   UNL     2     -10.282   7.310  71.827  1.00  0.00    -0.194 OA 
BRANCH   8  11
HETATM   11  C   UNL     2     -10.745   6.101  69.688  1.00  0.00    -0.319 C  
HETATM   12  O   UNL     2     -11.170   6.427  67.371  1.00  0.00    -0.352 OA 
HETATM   13  H   UNL     2     -12.660   6.369  69.449  1.00  0.00     0.000 HD 
HETATM   14  O   UNL     2      -9.026   6.636  68.185  1.00  0.00    -0.123 OA 
HETATM   15  O   UNL     2     -12.022   6.645  70.095  1.00  0.00    -0.367 OA 
HETATM   16  C   UNL     2     -10.295   6.465  68.260  1.00  0.00    -0.191 C  
ENDBRANCH   8  11
ENDBRANCH   4   8
BRANCH   7  17
HETATM   17  C   UNL     3     -11.073   9.821  70.091  1.00  0.00    -0.285 C  
HETATM   18  O   UNL     3      -9.796   9.978  70.818  1.00  0.00    -0.314 OA 
HETATM   19  H   UNL     3      -9.149   9.381  70.461  1.00  0.00     0.000 HD 
BRANCH  17  20
HETATM   20  C   UNL     3     -10.890   9.844  68.566  1.00  0.00    -0.217 C  
HETATM   21  C   UNL     3      -9.482  10.430  68.291  1.00  0.00    -0.148 C  
HETATM   22  O   UNL     3     -11.991  10.600  67.986  1.00  0.00    -0.784 OA 
HETATM   23  O   UNL     3      -8.577   9.788  68.939  1.00  0.00    -0.123 OA 
HETATM   24  O   UNL     3      -9.386  11.475  67.616  1.00  0.00    -0.166 OA 
HETATM   25  H   UNL     3     -11.878  10.614  67.042  1.00  0.00     0.000 HD 
ENDBRANCH  17  20
ENDBRANCH   7  17
TORSDOF 4
ENDMDL
MODEL       84
REMARK 921   NORMALIZED FREE ENERGY PREDICTED BY IDOCK:   -3.68 KCAL/MOL
REMARK 922        TOTAL FREE ENERGY PREDICTED BY IDOCK:   -5.72 KCAL/MOL
REMARK 923 INTER-LIGAND FREE ENERGY PREDICTED BY IDOCK:   -6.13 KCAL/MOL
REMARK 924 INTRA-LIGAND FREE ENERGY PREDICTED BY IDOCK:    0.41 KCAL/MOL
REMARK 927      BINDING AFFINITY PREDICTED BY RF-SCORE:    0.00 PKD
ROOT
HETATM    1 CA   UNL     1      -8.825   9.891  66.221  1.00  0.00    -0.128 Ca 
HETATM    2  O   UNL     2      -8.402  10.734  63.576  1.00  0.00    -0.329 OA 
HETATM    3  O   UNL     3     -10.992  10.843  70.384  1.00  0.00    -0.458 OA 
HETATM    4  C   UNL     2      -9.613  11.485  63.234  1.00  0.00    -0.346 C  
HETATM    5  H   UNL     2      -8.036  10.492  62.734  1.00  0.00     0.000 HD 
HETATM    6  H   UNL     3     -11.530  10.380  71.014  1.00  0.00     0.000 HD 
HETATM    7  C   UNL     3     -11.669  11.023  69.147  1.00  0.00    -0.333 C  
ENDROOT
BRANCH   4   8
HETATM    8  C   UNL     2     -10.198  11.870  64.578  1.00  0.00    -0.282 C  
HETATM    9  H   UNL     2     -11.173  10.902  65.963  1.00  0.00     0.000 HD 
HETATM   10  O   UNL     2     -10.807  10.660  65.121  1.00  0.00    -0.110 OA 
BRANCH   8  11
HETATM   11  C   UNL     2     -11.084  13.095  64.624  1.00  0.00    -0.345 C  
HETATM   12  O   UNL     2     -12.760  14.116  63.281  1.00  0.00    -0.714 OA 
HETATM   13  H   UNL     2     -10.771  15.017  64.613  1.00  0.00     0.000 HD 
HETATM   14  O   UNL     2     -12.393  11.848  63.128  1.00  0.00    -0.485 OA 
HETATM   15  O   UNL     2     -10.214  14.248  64.583  1.00  0.00    -0.387 OA 
HETATM   16  C   UNL     2     -12.171  13.045  63.533  1.00  0.00    -0.501 C  
ENDBRANCH   8  11
ENDBRANCH   4   8
BRANCH   7  17
HETATM   17  C   UNL     3     -10.798  11.774  68.126  1.00  0.00    -0.217 C  
HETATM   18  O   UNL     3      -9.646  10.932  67.741  1.00  0.00    -0.161 OA 
HETATM   19  H   UNL     3      -9.108  11.396  67.111  1.00  0.00     0.000 HD 
BRANCH  17  20
HETATM   20  C   UNL     3     -10.385  13.203  68.502  1.00  0.00    -0.238 C  
HETATM   21  C   UNL     3     -11.687  14.039  68.594  1.00  0.00    -0.354 C  
HETATM   22  O   UNL     3      -9.424  13.676  67.515  1.00  0.00    -0.209 OA 
HETATM   23  O   UNL     3     -12.535  13.490  69.388  1.00  0.00    -0.199 OA 
HETATM   24  O   UNL     3     -11.824  15.025  67.842  1.00  0.00    -0.334 OA 
HETATM   25  H   UNL     3      -9.168  14.561  67.747  1.00  0.00     0.000 HD 
ENDBRANCH  17  20
ENDBRANCH   7  17
TORSDOF 4
ENDMDL
MODEL       85
REMARK 921   NORMALIZED FREE ENERGY PREDICTED BY IDOCK:   -3.65 KCAL/MOL
REMARK 922        TOTAL FREE ENERGY PREDICTED BY IDOCK:   -5.68 KCAL/MOL
REMARK 923 INTER-LIGAND FREE ENERGY PREDICTED BY IDOCK:   -5.68 KCAL/MOL
REMARK 924 INTRA-LIGAND FREE ENERGY PREDICTED BY IDOCK:    0.01 KCAL/MOL
REMARK 927      BINDING AFFINITY PREDICTED BY RF-SCORE:    0.00 PKD
ROOT
HETATM    1 CA   UNL     1     -13.158   9.038  70.107  1.00  0.00    -0.465 Ca 
HETATM    2  O   UNL     2     -12.315   8.125  72.625  1.00  0.00    -0.572 OA 
HETATM    3  O   UNL     3     -12.099  11.784  66.329  1.00  0.00    -0.446 OA 
HETATM    4  C   UNL     2     -10.852   8.164  72.557  1.00  0.00    -0.361 C  
HETATM    5  H   UNL     2     -12.496   7.515  73.330  1.00  0.00     0.000 HD 
HETATM    6  H   UNL     3     -12.081  11.696  65.384  1.00  0.00     0.000 HD 
HETATM    7  C   UNL     3     -11.107  10.977  66.951  1.00  0.00    -0.213 C  
ENDROOT
BRANCH   4   8
HETATM    8  C   UNL     2     -10.562   9.137  71.431  1.00  0.00    -0.341 C  
HETATM    9  H   UNL     2     -11.610  10.503  70.513  1.00  0.00     0.000 HD 
HETATM   10  O   UNL     2     -11.792   9.893  71.218  1.00  0.00    -0.344 OA 
BRANCH   8  11
HETATM   11  C   UNL     2      -9.942   8.577  70.171  1.00  0.00    -0.181 C  
HETATM   12  O   UNL     2     -10.031   6.570  68.899  1.00  0.00    -0.145 OA 
HETATM   13  H   UNL     2      -8.131   8.124  69.616  1.00  0.00     0.000 HD 
HETATM   14  O   UNL     2     -11.819   7.170  70.219  1.00  0.00    -0.233 OA 
HETATM   15  O   UNL     2      -8.520   8.476  70.408  1.00  0.00    -0.123 OA 
HETATM   16  C   UNL     2     -10.636   7.272  69.734  1.00  0.00    -0.235 C  
ENDBRANCH   8  11
ENDBRANCH   4   8
BRANCH   7  17
HETATM   17  C   UNL     3     -11.136  11.120  68.481  1.00  0.00    -0.244 C  
HETATM   18  O   UNL     3     -12.536  11.131  68.954  1.00  0.00    -0.591 OA 
HETATM   19  H   UNL     3     -12.554  11.218  69.899  1.00  0.00     0.000 HD 
BRANCH  17  20
HETATM   20  C   UNL     3     -10.304  12.265  69.076  1.00  0.00     0.038 C  
HETATM   21  C   UNL     3     -10.824  13.578  68.438  1.00  0.00    -0.267 C  
HETATM   22  O   UNL     3      -8.897  11.982  68.831  1.00  0.00    -0.376 OA 
HETATM   23  O   UNL     3     -12.095  13.693  68.585  1.00  0.00    -0.360 OA 
HETATM   24  O   UNL     3     -10.033  14.280  67.777  1.00  0.00    -0.222 OA 
HETATM   25  H   UNL     3      -8.381  12.690  69.199  1.00  0.00     0.000 HD 
ENDBRANCH  17  20
ENDBRANCH   7  17
TORSDOF 4
ENDMDL
MODEL       86
REMARK 921   NORMALIZED FREE ENERGY PREDICTED BY IDOCK:   -3.64 KCAL/MOL
REMARK 922        TOTAL FREE ENERGY PREDICTED BY IDOCK:   -5.67 KCAL/MOL
REMARK 923 INTER-LIGAND FREE ENERGY PREDICTED BY IDOCK:   -5.70 KCAL/MOL
REMARK 924 INTRA-LIGAND FREE ENERGY PREDICTED BY IDOCK:    0.03 KCAL/MOL
REMARK 927      BINDING AFFINITY PREDICTED BY RF-SCORE:    0.00 PKD
ROOT
HETATM    1 CA   UNL     1      -7.864  10.109  65.277  1.00  0.00    -0.107 Ca 
HETATM    2  O   UNL     2      -8.503   7.418  65.761  1.00  0.00    -0.136 OA 
HETATM    3  O   UNL     3      -9.475  14.619  65.244  1.00  0.00    -0.456 OA 
HETATM    4  C   UNL     2      -9.567   7.470  66.767  1.00  0.00    -0.206 C  
HETATM    5  H   UNL     2      -8.151   6.539  65.843  1.00  0.00     0.000 HD 
HETATM    6  H   UNL     3      -9.198  15.463  65.580  1.00  0.00     0.000 HD 
HETATM    7  C   UNL     3      -9.822  13.724  66.293  1.00  0.00    -0.303 C  
ENDROOT
BRANCH   4   8
HETATM    8  C   UNL     2     -10.128   8.872  66.636  1.00  0.00    -0.287 C  
HETATM    9  H   UNL     2     -10.007  10.261  65.272  1.00  0.00     0.000 HD 
HETATM   10  O   UNL     2      -9.655   9.383  65.354  1.00  0.00    -0.273 OA 
BRANCH   8  11
HETATM   11  C   UNL     2      -9.924   9.813  67.802  1.00  0.00    -0.168 C  
HETATM   12  O   UNL     2      -8.243  10.293  69.414  1.00  0.00    -0.148 OA 
HETATM   13  H   UNL     2     -10.787  10.064  69.530  1.00  0.00     0.000 HD 
HETATM   14  O   UNL     2      -7.657   9.378  67.383  1.00  0.00    -0.094 OA 
HETATM   15  O   UNL     2     -10.915   9.473  68.798  1.00  0.00    -0.181 OA 
HETATM   16  C   UNL     2      -8.462   9.798  68.289  1.00  0.00    -0.114 C  
ENDBRANCH   8  11
ENDBRANCH   4   8
BRANCH   7  17
HETATM   17  C   UNL     3     -10.270  12.358  65.749  1.00  0.00    -0.260 C  
HETATM   18  O   UNL     3      -9.624  12.105  64.444  1.00  0.00    -0.466 OA 
HETATM   19  H   UNL     3      -9.900  11.261  64.108  1.00  0.00     0.000 HD 
BRANCH  17  20
HETATM   20  C   UNL     3     -11.783  12.098  65.717  1.00  0.00    -0.327 C  
HETATM   21  C   UNL     3     -12.399  13.146  64.755  1.00  0.00    -0.423 C  
HETATM   22  O   UNL     3     -12.285  12.154  67.083  1.00  0.00    -0.507 OA 
HETATM   23  O   UNL     3     -11.817  13.123  63.609  1.00  0.00    -0.472 OA 
HETATM   24  O   UNL     3     -13.251  13.943  65.198  1.00  0.00    -0.768 OA 
HETATM   25  H   UNL     3     -13.221  11.993  67.064  1.00  0.00     0.000 HD 
ENDBRANCH  17  20
ENDBRANCH   7  17
TORSDOF 4
ENDMDL
MODEL       87
REMARK 921   NORMALIZED FREE ENERGY PREDICTED BY IDOCK:   -3.64 KCAL/MOL
REMARK 922        TOTAL FREE ENERGY PREDICTED BY IDOCK:   -5.67 KCAL/MOL
REMARK 923 INTER-LIGAND FREE ENERGY PREDICTED BY IDOCK:   -6.02 KCAL/MOL
REMARK 924 INTRA-LIGAND FREE ENERGY PREDICTED BY IDOCK:    0.35 KCAL/MOL
REMARK 927      BINDING AFFINITY PREDICTED BY RF-SCORE:    0.00 PKD
ROOT
HETATM    1 CA   UNL     1      -8.273  14.803  65.638  1.00  0.00    -0.279 Ca 
HETATM    2  O   UNL     2      -6.579  13.325  67.321  1.00  0.00    -0.365 OA 
HETATM    3  O   UNL     3     -12.570  15.009  63.534  1.00  0.00    -0.854 OA 
HETATM    4  C   UNL     2      -7.490  12.586  68.199  1.00  0.00    -0.117 C  
HETATM    5  H   UNL     2      -5.757  13.335  67.798  1.00  0.00     0.000 HD 
HETATM    6  H   UNL     3     -13.272  15.641  63.438  1.00  0.00     0.000 HD 
HETATM    7  C   UNL     3     -12.433  14.577  64.882  1.00  0.00    -0.311 C  
ENDROOT
BRANCH   4   8
HETATM    8  C   UNL     2      -8.801  12.571  67.439  1.00  0.00    -0.187 C  
HETATM    9  H   UNL     2     -10.104  13.938  66.951  1.00  0.00     0.000 HD 
HETATM   10  O   UNL     2      -9.283  13.948  67.427  1.00  0.00    -0.206 OA 
BRANCH   8  11
HETATM   11  C   UNL     2      -9.833  11.547  67.855  1.00  0.00    -0.185 C  
HETATM   12  O   UNL     2     -11.577  11.346  69.459  1.00  0.00    -0.272 OA 
HETATM   13  H   UNL     2      -9.760   9.755  68.617  1.00  0.00     0.000 HD 
HETATM   14  O   UNL     2     -10.927  13.430  68.727  1.00  0.00    -0.246 OA 
HETATM   15  O   UNL     2      -9.111  10.399  68.356  1.00  0.00    -0.137 OA 
HETATM   16  C   UNL     2     -10.869  12.152  68.822  1.00  0.00    -0.228 C  
ENDBRANCH   8  11
ENDBRANCH   4   8
BRANCH   7  17
HETATM   17  C   UNL     3     -11.297  13.553  65.038  1.00  0.00    -0.320 C  
HETATM   18  O   UNL     3     -10.067  14.074  64.406  1.00  0.00    -0.706 OA 
HETATM   19  H   UNL     3      -9.365  13.442  64.502  1.00  0.00     0.000 HD 
BRANCH  17  20
HETATM   20  C   UNL     3     -11.613  12.112  64.613  1.00  0.00    -0.328 C  
HETATM   21  C   UNL     3     -10.343  11.559  63.917  1.00  0.00    -0.371 C  
HETATM   22  O   UNL     3     -12.806  12.134  63.778  1.00  0.00    -0.718 OA 
HETATM   23  O   UNL     3      -9.308  11.692  64.668  1.00  0.00    -0.110 OA 
HETATM   24  O   UNL     3     -10.421  11.185  62.730  1.00  0.00    -0.078 OA 
HETATM   25  H   UNL     3     -13.002  11.242  63.514  1.00  0.00     0.000 HD 
ENDBRANCH  17  20
ENDBRANCH   7  17
TORSDOF 4
ENDMDL
MODEL       88
REMARK 921   NORMALIZED FREE ENERGY PREDICTED BY IDOCK:   -3.61 KCAL/MOL
REMARK 922        TOTAL FREE ENERGY PREDICTED BY IDOCK:   -5.64 KCAL/MOL
REMARK 923 INTER-LIGAND FREE ENERGY PREDICTED BY IDOCK:   -4.44 KCAL/MOL
REMARK 924 INTRA-LIGAND FREE ENERGY PREDICTED BY IDOCK:   -1.20 KCAL/MOL
REMARK 927      BINDING AFFINITY PREDICTED BY RF-SCORE:    0.00 PKD
ROOT
HETATM    1 CA   UNL     1     -11.386   9.459  72.157  1.00  0.00    -0.309 Ca 
HETATM    2  O   UNL     2     -11.268   6.999  73.505  1.00  0.00    -0.537 OA 
HETATM    3  O   UNL     3     -10.622  11.752  68.023  1.00  0.00    -0.194 OA 
HETATM    4  C   UNL     2     -11.449   5.996  72.452  1.00  0.00    -0.308 C  
HETATM    5  H   UNL     2     -11.500   6.539  74.303  1.00  0.00     0.000 HD 
HETATM    6  H   UNL     3     -11.097  12.347  67.455  1.00  0.00     0.000 HD 
HETATM    7  C   UNL     3     -11.217  10.461  68.046  1.00  0.00    -0.272 C  
ENDROOT
BRANCH   4   8
HETATM    8  C   UNL     2     -11.078   6.729  71.179  1.00  0.00    -0.270 C  
HETATM    9  H   UNL     2     -11.885   8.191  70.169  1.00  0.00     0.000 HD 
HETATM   10  O   UNL     2     -12.117   7.732  70.967  1.00  0.00    -0.302 OA 
BRANCH   8  11
HETATM   11  C   UNL     2     -10.757   5.890  69.962  1.00  0.00    -0.326 C  
HETATM   12  O   UNL     2      -8.856   5.347  68.641  1.00  0.00    -0.103 OA 
HETATM   13  H   UNL     2     -11.283   5.932  68.088  1.00  0.00     0.000 HD 
HETATM   14  O   UNL     2      -8.584   5.966  70.842  1.00  0.00    -0.128 OA 
HETATM   15  O   UNL     2     -11.485   6.460  68.851  1.00  0.00    -0.314 OA 
HETATM   16  C   UNL     2      -9.236   5.753  69.759  1.00  0.00    -0.140 C  
ENDBRANCH   8  11
ENDBRANCH   4   8
BRANCH   7  17
HETATM   17  C   UNL     3     -10.448   9.498  68.965  1.00  0.00    -0.213 C  
HETATM   18  O   UNL     3     -10.281  10.111  70.300  1.00  0.00    -0.373 OA 
HETATM   19  H   UNL     3      -9.806   9.516  70.868  1.00  0.00     0.000 HD 
BRANCH  17  20
HETATM   20  C   UNL     3      -9.136   8.926  68.411  1.00  0.00    -0.137 C  
HETATM   21  C   UNL     3      -8.226  10.134  68.070  1.00  0.00    -0.113 C  
HETATM   22  O   UNL     3      -9.454   8.064  67.281  1.00  0.00    -0.144 OA 
HETATM   23  O   UNL     3      -8.096  10.916  69.082  1.00  0.00    -0.149 OA 
HETATM   24  O   UNL     3      -7.843  10.287  66.893  1.00  0.00    -0.109 OA 
HETATM   25  H   UNL     3      -8.642   7.709  66.938  1.00  0.00     0.000 HD 
ENDBRANCH  17  20
ENDBRANCH   7  17
TORSDOF 4
ENDMDL
MODEL       89
REMARK 921   NORMALIZED FREE ENERGY PREDICTED BY IDOCK:   -3.61 KCAL/MOL
REMARK 922        TOTAL FREE ENERGY PREDICTED BY IDOCK:   -5.63 KCAL/MOL
REMARK 923 INTER-LIGAND FREE ENERGY PREDICTED BY IDOCK:   -5.61 KCAL/MOL
REMARK 924 INTRA-LIGAND FREE ENERGY PREDICTED BY IDOCK:   -0.02 KCAL/MOL
REMARK 927      BINDING AFFINITY PREDICTED BY RF-SCORE:    0.00 PKD
ROOT
HETATM    1 CA   UNL     1     -10.755  17.995  65.476  1.00  0.00    -0.360 Ca 
HETATM    2  O   UNL     2      -9.380  20.407  65.895  1.00  0.00    -0.621 OA 
HETATM    3  O   UNL     3     -11.770  13.657  67.230  1.00  0.00    -0.337 OA 
HETATM    4  C   UNL     2      -9.308  20.539  67.353  1.00  0.00    -0.375 C  
HETATM    5  H   UNL     2      -9.252  21.293  65.578  1.00  0.00     0.000 HD 
HETATM    6  H   UNL     3     -12.543  13.125  67.376  1.00  0.00     0.000 HD 
HETATM    7  C   UNL     3     -11.754  14.803  68.072  1.00  0.00    -0.333 C  
ENDROOT
BRANCH   4   8
HETATM    8  C   UNL     2      -9.512  19.125  67.859  1.00  0.00    -0.320 C  
HETATM    9  H   UNL     2     -10.375  18.356  69.431  1.00  0.00     0.000 HD 
HETATM   10  O   UNL     2     -10.247  19.242  69.114  1.00  0.00    -0.340 OA 
BRANCH   8  11
HETATM   11  C   UNL     2      -8.295  18.229  67.925  1.00  0.00    -0.250 C  
HETATM   12  O   UNL     2      -6.015  18.389  68.579  1.00  0.00    -0.185 OA 
HETATM   13  H   UNL     2      -7.214  17.284  66.608  1.00  0.00     0.000 HD 
HETATM   14  O   UNL     2      -7.575  19.808  69.503  1.00  0.00    -0.213 OA 
HETATM   15  O   UNL     2      -7.977  17.847  66.567  1.00  0.00    -0.242 OA 
HETATM   16  C   UNL     2      -7.149  18.892  68.713  1.00  0.00    -0.311 C  
ENDBRANCH   8  11
ENDBRANCH   4   8
BRANCH   7  17
HETATM   17  C   UNL     3     -10.503  15.664  67.836  1.00  0.00    -0.267 C  
HETATM   18  O   UNL     3     -10.421  16.042  66.409  1.00  0.00    -0.301 OA 
HETATM   19  H   UNL     3      -9.648  16.574  66.263  1.00  0.00     0.000 HD 
BRANCH  17  20
HETATM   20  C   UNL     3      -9.178  15.106  68.375  1.00  0.00    -0.189 C  
HETATM   21  C   UNL     3      -8.927  13.761  67.646  1.00  0.00    -0.194 C  
HETATM   22  O   UNL     3      -9.281  15.007  69.824  1.00  0.00    -0.447 OA 
HETATM   23  O   UNL     3      -8.978  13.908  66.371  1.00  0.00    -0.138 OA 
HETATM   24  O   UNL     3      -8.835  12.718  68.324  1.00  0.00    -0.186 OA 
HETATM   25  H   UNL     3      -8.461  14.661  70.158  1.00  0.00     0.000 HD 
ENDBRANCH  17  20
ENDBRANCH   7  17
TORSDOF 4
ENDMDL
MODEL       90
REMARK 921   NORMALIZED FREE ENERGY PREDICTED BY IDOCK:   -3.59 KCAL/MOL
REMARK 922        TOTAL FREE ENERGY PREDICTED BY IDOCK:   -5.61 KCAL/MOL
REMARK 923 INTER-LIGAND FREE ENERGY PREDICTED BY IDOCK:   -5.11 KCAL/MOL
REMARK 924 INTRA-LIGAND FREE ENERGY PREDICTED BY IDOCK:   -0.50 KCAL/MOL
REMARK 927      BINDING AFFINITY PREDICTED BY RF-SCORE:    0.00 PKD
ROOT
HETATM    1 CA   UNL     1     -10.487   8.288  65.409  1.00  0.00    -0.339 Ca 
HETATM    2  O   UNL     2     -11.232   5.997  66.852  1.00  0.00    -0.577 OA 
HETATM    3  O   UNL     3      -9.208  12.895  65.674  1.00  0.00    -0.446 OA 
HETATM    4  C   UNL     2     -10.578   6.156  68.154  1.00  0.00    -0.264 C  
HETATM    5  H   UNL     2     -11.404   5.065  66.793  1.00  0.00     0.000 HD 
HETATM    6  H   UNL     3      -8.520  13.451  65.328  1.00  0.00     0.000 HD 
HETATM    7  C   UNL     3      -8.697  11.938  66.593  1.00  0.00    -0.185 C  
ENDROOT
BRANCH   4   8
HETATM    8  C   UNL     2     -10.303   7.644  68.247  1.00  0.00    -0.198 C  
HETATM    9  H   UNL     2      -9.411   8.936  67.089  1.00  0.00     0.000 HD 
HETATM   10  O   UNL     2      -9.583   8.003  67.030  1.00  0.00    -0.168 OA 
BRANCH   8  11
HETATM   11  C   UNL     2      -9.675   8.155  69.524  1.00  0.00    -0.170 C  
HETATM   12  O   UNL     2     -10.226   9.646  71.292  1.00  0.00    -0.245 OA 
HETATM   13  H   UNL     2      -8.094   9.210  69.950  1.00  0.00     0.000 HD 
HETATM   14  O   UNL     2     -11.903   8.619  70.093  1.00  0.00     0.052 OA 
HETATM   15  O   UNL     2      -8.488   8.889  69.147  1.00  0.00    -0.127 OA 
HETATM   16  C   UNL     2     -10.693   8.932  70.381  1.00  0.00    -0.227 C  
ENDBRANCH   8  11
ENDBRANCH   4   8
BRANCH   7  17
HETATM   17  C   UNL     3      -9.810  11.038  67.154  1.00  0.00    -0.184 C  
HETATM   18  O   UNL     3     -10.527  10.381  66.041  1.00  0.00    -0.219 OA 
HETATM   19  H   UNL     3     -11.215   9.825  66.387  1.00  0.00     0.000 HD 
BRANCH  17  20
HETATM   20  C   UNL     3     -10.764  11.684  68.169  1.00  0.00    -0.213 C  
HETATM   21  C   UNL     3     -11.503  12.827  67.429  1.00  0.00    -0.340 C  
HETATM   22  O   UNL     3      -9.983  12.107  69.323  1.00  0.00    -0.386 OA 
HETATM   23  O   UNL     3     -12.060  12.399  66.353  1.00  0.00    -0.607 OA 
HETATM   24  O   UNL     3     -11.383  13.995  67.852  1.00  0.00    -0.265 OA 
HETATM   25  H   UNL     3     -10.573  12.507  69.952  1.00  0.00     0.000 HD 
ENDBRANCH  17  20
ENDBRANCH   7  17
TORSDOF 4
ENDMDL
MODEL       91
REMARK 921   NORMALIZED FREE ENERGY PREDICTED BY IDOCK:   -3.58 KCAL/MOL
REMARK 922        TOTAL FREE ENERGY PREDICTED BY IDOCK:   -5.60 KCAL/MOL
REMARK 923 INTER-LIGAND FREE ENERGY PREDICTED BY IDOCK:   -4.77 KCAL/MOL
REMARK 924 INTRA-LIGAND FREE ENERGY PREDICTED BY IDOCK:   -0.82 KCAL/MOL
REMARK 927      BINDING AFFINITY PREDICTED BY RF-SCORE:    0.00 PKD
ROOT
HETATM    1 CA   UNL     1      -9.897  15.827  70.354  1.00  0.00    -0.267 Ca 
HETATM    2  O   UNL     2     -10.202  18.508  69.578  1.00  0.00    -0.334 OA 
HETATM    3  O   UNL     3      -9.273  11.318  68.866  1.00  0.00    -0.320 OA 
HETATM    4  C   UNL     2      -9.486  18.604  68.303  1.00  0.00    -0.336 C  
HETATM    5  H   UNL     2     -10.243  19.406  69.886  1.00  0.00     0.000 HD 
HETATM    6  H   UNL     3      -8.698  10.589  69.066  1.00  0.00     0.000 HD 
HETATM    7  C   UNL     3      -8.566  12.394  68.262  1.00  0.00    -0.172 C  
ENDROOT
BRANCH   4   8
HETATM    8  C   UNL     2      -9.420  17.172  67.811  1.00  0.00    -0.253 C  
HETATM    9  H   UNL     2      -8.468  15.575  68.402  1.00  0.00     0.000 HD 
HETATM   10  O   UNL     2      -8.509  16.472  68.710  1.00  0.00    -0.227 OA 
BRANCH   8  11
HETATM   11  C   UNL     2      -9.142  16.955  66.340  1.00  0.00    -0.283 C  
HETATM   12  O   UNL     2     -10.165  15.869  64.489  1.00  0.00    -0.125 OA 
HETATM   13  H   UNL     2      -7.755  16.038  65.326  1.00  0.00     0.000 HD 
HETATM   14  O   UNL     2     -11.458  16.590  66.253  1.00  0.00     0.468 OA 
HETATM   15  O   UNL     2      -7.929  16.174  66.250  1.00  0.00    -0.271 OA 
HETATM   16  C   UNL     2     -10.367  16.364  65.617  1.00  0.00    -0.350 C  
ENDBRANCH   8  11
ENDBRANCH   4   8
BRANCH   7  17
HETATM   17  C   UNL     3      -9.496  13.575  67.939  1.00  0.00    -0.215 C  
HETATM   18  O   UNL     3     -10.106  14.083  69.185  1.00  0.00    -0.416 OA 
HETATM   19  H   UNL     3     -10.681  14.813  68.985  1.00  0.00     0.000 HD 
BRANCH  17  20
HETATM   20  C   UNL     3     -10.530  13.344  66.827  1.00  0.00    -0.275 C  
HETATM   21  C   UNL     3     -11.569  12.336  67.381  1.00  0.00    -0.355 C  
HETATM   22  O   UNL     3      -9.825  12.902  65.633  1.00  0.00    -0.355 OA 
HETATM   23  O   UNL     3     -12.053  12.737  68.502  1.00  0.00    -0.270 OA 
HETATM   24  O   UNL     3     -11.726  11.248  66.790  1.00  0.00    -0.418 OA 
HETATM   25  H   UNL     3     -10.464  12.759  64.944  1.00  0.00     0.000 HD 
ENDBRANCH  17  20
ENDBRANCH   7  17
TORSDOF 4
ENDMDL
MODEL       92
REMARK 921   NORMALIZED FREE ENERGY PREDICTED BY IDOCK:   -3.58 KCAL/MOL
REMARK 922        TOTAL FREE ENERGY PREDICTED BY IDOCK:   -5.59 KCAL/MOL
REMARK 923 INTER-LIGAND FREE ENERGY PREDICTED BY IDOCK:   -5.96 KCAL/MOL
REMARK 924 INTRA-LIGAND FREE ENERGY PREDICTED BY IDOCK:    0.36 KCAL/MOL
REMARK 927      BINDING AFFINITY PREDICTED BY RF-SCORE:    0.00 PKD
ROOT
HETATM    1 CA   UNL     1     -10.738  13.446  70.104  1.00  0.00    -0.441 Ca 
HETATM    2  O   UNL     2     -12.207  15.228  68.506  1.00  0.00    -0.572 OA 
HETATM    3  O   UNL     3      -8.207   9.382  70.208  1.00  0.00    -0.139 OA 
HETATM    4  C   UNL     2     -11.625  15.085  67.169  1.00  0.00    -0.261 C  
HETATM    5  H   UNL     2     -12.636  16.075  68.481  1.00  0.00     0.000 HD 
HETATM    6  H   UNL     3      -7.366   9.090  70.540  1.00  0.00     0.000 HD 
HETATM    7  C   UNL     3      -8.057  10.313  69.143  1.00  0.00    -0.138 C  
ENDROOT
BRANCH   4   8
HETATM    8  C   UNL     2     -10.940  13.733  67.209  1.00  0.00    -0.292 C  
HETATM    9  H   UNL     2      -9.164  13.126  67.740  1.00  0.00     0.000 HD 
HETATM   10  O   UNL     2      -9.593  13.973  67.714  1.00  0.00    -0.206 OA 
BRANCH   8  11
HETATM   11  C   UNL     2     -11.001  12.887  65.957  1.00  0.00    -0.276 C  
HETATM   12  O   UNL     2     -11.049  13.213  63.603  1.00  0.00    -0.324 OA 
HETATM   13  H   UNL     2     -12.304  11.655  65.196  1.00  0.00     0.000 HD 
HETATM   14  O   UNL     2     -10.094  14.807  64.962  1.00  0.00    -0.371 OA 
HETATM   15  O   UNL     2     -12.266  12.187  65.982  1.00  0.00    -0.609 OA 
HETATM   16  C   UNL     2     -10.733  13.728  64.695  1.00  0.00    -0.414 C  
ENDBRANCH   8  11
ENDBRANCH   4   8
BRANCH   7  17
HETATM   17  C   UNL     3      -9.417  10.785  68.606  1.00  0.00    -0.188 C  
HETATM   18  O   UNL     3     -10.149  11.507  69.669  1.00  0.00    -0.323 OA 
HETATM   19  H   UNL     3     -10.989  11.799  69.337  1.00  0.00     0.000 HD 
BRANCH  17  20
HETATM   20  C   UNL     3     -10.283   9.725  67.910  1.00  0.00    -0.194 C  
HETATM   21  C   UNL     3      -9.608   9.416  66.549  1.00  0.00    -0.208 C  
HETATM   22  O   UNL     3     -11.643  10.236  67.816  1.00  0.00    -0.651 OA 
HETATM   23  O   UNL     3      -8.373   9.096  66.706  1.00  0.00    -0.120 OA 
HETATM   24  O   UNL     3     -10.250   9.620  65.499  1.00  0.00    -0.228 OA 
HETATM   25  H   UNL     3     -12.179   9.580  67.386  1.00  0.00     0.000 HD 
ENDBRANCH  17  20
ENDBRANCH   7  17
TORSDOF 4
ENDMDL
MODEL       93
REMARK 921   NORMALIZED FREE ENERGY PREDICTED BY IDOCK:   -3.57 KCAL/MOL
REMARK 922        TOTAL FREE ENERGY PREDICTED BY IDOCK:   -5.59 KCAL/MOL
REMARK 923 INTER-LIGAND FREE ENERGY PREDICTED BY IDOCK:   -4.38 KCAL/MOL
REMARK 924 INTRA-LIGAND FREE ENERGY PREDICTED BY IDOCK:   -1.21 KCAL/MOL
REMARK 927      BINDING AFFINITY PREDICTED BY RF-SCORE:    0.00 PKD
ROOT
HETATM    1 CA   UNL     1     -10.583  10.519  64.142  1.00  0.00    -0.321 Ca 
HETATM    2  O   UNL     2     -10.054  13.258  64.463  1.00  0.00    -0.586 OA 
HETATM    3  O   UNL     3     -10.354   6.178  66.149  1.00  0.00    -0.425 OA 
HETATM    4  C   UNL     2     -10.145  13.481  65.908  1.00  0.00    -0.303 C  
HETATM    5  H   UNL     2     -10.180  14.122  64.088  1.00  0.00     0.000 HD 
HETATM    6  H   UNL     3     -10.935   5.440  66.287  1.00  0.00     0.000 HD 
HETATM    7  C   UNL     3     -10.760   7.314  66.902  1.00  0.00    -0.276 C  
ENDROOT
BRANCH   4   8
HETATM    8  C   UNL     2      -9.944  12.103  66.505  1.00  0.00    -0.213 C  
HETATM    9  H   UNL     2     -11.049  10.499  66.622  1.00  0.00     0.000 HD 
HETATM   10  O   UNL     2     -11.175  11.362  66.247  1.00  0.00    -0.270 OA 
BRANCH   8  11
HETATM   11  C   UNL     2      -9.455  12.030  67.934  1.00  0.00    -0.196 C  
HETATM   12  O   UNL     2      -7.523  11.285  69.105  1.00  0.00    -0.120 OA 
HETATM   13  H   UNL     2     -10.036  11.091  69.539  1.00  0.00     0.000 HD 
HETATM   14  O   UNL     2      -7.350  11.934  66.903  1.00  0.00    -0.138 OA 
HETATM   15  O   UNL     2     -10.344  11.136  68.641  1.00  0.00    -0.188 OA 
HETATM   16  C   UNL     2      -7.959  11.665  67.999  1.00  0.00    -0.132 C  
ENDBRANCH   8  11
ENDBRANCH   4   8
BRANCH   7  17
HETATM   17  C   UNL     3      -9.819   8.509  66.679  1.00  0.00    -0.272 C  
HETATM   18  O   UNL     3      -9.729   8.809  65.235  1.00  0.00    -0.399 OA 
HETATM   19  H   UNL     3      -9.148   9.547  65.097  1.00  0.00     0.000 HD 
BRANCH  17  20
HETATM   20  C   UNL     3      -8.441   8.428  67.352  1.00  0.00    -0.124 C  
HETATM   21  C   UNL     3      -7.762   7.135  66.832  1.00  0.00    -0.106 C  
HETATM   22  O   UNL     3      -8.633   8.480  68.794  1.00  0.00    -0.129 OA 
HETATM   23  O   UNL     3      -7.745   7.104  65.547  1.00  0.00    -0.095 OA 
HETATM   24  O   UNL     3      -7.439   6.253  67.653  1.00  0.00    -0.085 OA 
HETATM   25  H   UNL     3      -7.780   8.430  69.211  1.00  0.00     0.000 HD 
ENDBRANCH  17  20
ENDBRANCH   7  17
TORSDOF 4
ENDMDL
MODEL       94
REMARK 921   NORMALIZED FREE ENERGY PREDICTED BY IDOCK:   -3.52 KCAL/MOL
REMARK 922        TOTAL FREE ENERGY PREDICTED BY IDOCK:   -5.52 KCAL/MOL
REMARK 923 INTER-LIGAND FREE ENERGY PREDICTED BY IDOCK:   -5.57 KCAL/MOL
REMARK 924 INTRA-LIGAND FREE ENERGY PREDICTED BY IDOCK:    0.05 KCAL/MOL
REMARK 927      BINDING AFFINITY PREDICTED BY RF-SCORE:    0.00 PKD
ROOT
HETATM    1 CA   UNL     1     -12.114  10.041  67.846  1.00  0.00    -0.526 Ca 
HETATM    2  O   UNL     2      -9.943   8.408  68.559  1.00  0.00    -0.176 OA 
HETATM    3  O   UNL     3     -13.509  13.974  65.499  1.00  0.00    -0.705 OA 
HETATM    4  C   UNL     2      -8.977   8.588  67.472  1.00  0.00    -0.135 C  
HETATM    5  H   UNL     2      -9.690   7.584  68.958  1.00  0.00     0.000 HD 
HETATM    6  H   UNL     3     -14.176  14.211  64.865  1.00  0.00     0.000 HD 
HETATM    7  C   UNL     3     -12.545  13.090  64.941  1.00  0.00    -0.428 C  
ENDROOT
BRANCH   4   8
HETATM    8  C   UNL     2      -9.382   9.903  66.837  1.00  0.00    -0.152 C  
HETATM    9  H   UNL     2     -10.808  10.442  65.619  1.00  0.00     0.000 HD 
HETATM   10  O   UNL     2     -10.555   9.618  66.017  1.00  0.00    -0.068 OA 
BRANCH   8  11
HETATM   11  C   UNL     2      -8.302  10.696  66.135  1.00  0.00    -0.158 C  
HETATM   12  O   UNL     2      -7.006  10.544  64.147  1.00  0.00    -0.026 OA 
HETATM   13  H   UNL     2      -6.468  11.193  66.561  1.00  0.00     0.000 HD 
HETATM   14  O   UNL     2      -9.068   9.523  64.253  1.00  0.00    -0.233 OA 
HETATM   15  O   UNL     2      -7.145  10.695  67.002  1.00  0.00    -0.091 OA 
HETATM   16  C   UNL     2      -8.060  10.175  64.705  1.00  0.00    -0.153 C  
ENDBRANCH   8  11
ENDBRANCH   4   8
BRANCH   7  17
HETATM   17  C   UNL     3     -11.466  12.707  65.966  1.00  0.00    -0.368 C  
HETATM   18  O   UNL     3     -12.099  12.412  67.269  1.00  0.00    -0.516 OA 
HETATM   19  H   UNL     3     -11.432  12.175  67.902  1.00  0.00     0.000 HD 
BRANCH  17  20
HETATM   20  C   UNL     3     -10.274  13.667  66.094  1.00  0.00    -0.304 C  
HETATM   21  C   UNL     3     -10.848  15.044  66.515  1.00  0.00    -0.320 C  
HETATM   22  O   UNL     3      -9.550  13.666  64.831  1.00  0.00    -0.529 OA 
HETATM   23  O   UNL     3     -11.580  14.940  67.566  1.00  0.00    -0.349 OA 
HETATM   24  O   UNL     3     -10.663  16.027  65.769  1.00  0.00    -0.333 OA 
HETATM   25  H   UNL     3      -8.812  14.260  64.910  1.00  0.00     0.000 HD 
ENDBRANCH  17  20
ENDBRANCH   7  17
TORSDOF 4
ENDMDL
MODEL       95
REMARK 921   NORMALIZED FREE ENERGY PREDICTED BY IDOCK:   -3.51 KCAL/MOL
REMARK 922        TOTAL FREE ENERGY PREDICTED BY IDOCK:   -5.51 KCAL/MOL
REMARK 923 INTER-LIGAND FREE ENERGY PREDICTED BY IDOCK:   -5.58 KCAL/MOL
REMARK 924 INTRA-LIGAND FREE ENERGY PREDICTED BY IDOCK:    0.07 KCAL/MOL
REMARK 927      BINDING AFFINITY PREDICTED BY RF-SCORE:    0.00 PKD
ROOT
HETATM    1 CA   UNL     1      -8.167  13.149  69.216  1.00  0.00    -0.303 Ca 
HETATM    2  O   UNL     2      -7.622  10.542  70.107  1.00  0.00    -0.381 OA 
HETATM    3  O   UNL     3     -10.777  15.859  66.254  1.00  0.00    -0.310 OA 
HETATM    4  C   UNL     2      -8.878   9.816  69.904  1.00  0.00    -0.225 C  
HETATM    5  H   UNL     2      -7.159  10.025  70.755  1.00  0.00     0.000 HD 
HETATM    6  H   UNL     3     -11.309  16.643  66.310  1.00  0.00     0.000 HD 
HETATM    7  C   UNL     3     -11.362  14.775  66.964  1.00  0.00    -0.353 C  
ENDROOT
BRANCH   4   8
HETATM    8  C   UNL     2      -9.617  10.643  68.870  1.00  0.00    -0.196 C  
HETATM    9  H   UNL     2     -11.479  10.757  68.300  1.00  0.00     0.000 HD 
HETATM   10  O   UNL     2     -11.017  10.238  68.947  1.00  0.00    -0.219 OA 
BRANCH   8  11
HETATM   11  C   UNL     2      -9.047  10.674  67.470  1.00  0.00    -0.139 C  
HETATM   12  O   UNL     2      -8.269   9.123  65.844  1.00  0.00    -0.108 OA 
HETATM   13  H   UNL     2      -7.429  11.396  66.661  1.00  0.00     0.000 HD 
HETATM   14  O   UNL     2      -9.802   8.453  67.426  1.00  0.00    -0.164 OA 
HETATM   15  O   UNL     2      -7.786  11.376  67.541  1.00  0.00    -0.116 OA 
HETATM   16  C   UNL     2      -8.986   9.262  66.856  1.00  0.00    -0.130 C  
ENDBRANCH   8  11
ENDBRANCH   4   8
BRANCH   7  17
HETATM   17  C   UNL     3     -10.501  13.505  66.873  1.00  0.00    -0.271 C  
HETATM   18  O   UNL     3      -9.145  13.855  66.401  1.00  0.00    -0.443 OA 
HETATM   19  H   UNL     3      -8.613  13.071  66.345  1.00  0.00     0.000 HD 
BRANCH  17  20
HETATM   20  C   UNL     3     -11.107  12.323  66.102  1.00  0.00    -0.311 C  
HETATM   21  C   UNL     3     -11.630  12.885  64.756  1.00  0.00    -0.331 C  
HETATM   22  O   UNL     3     -12.122  11.702  66.942  1.00  0.00    -0.512 OA 
HETATM   23  O   UNL     3     -10.709  13.529  64.132  1.00  0.00    -0.372 OA 
HETATM   24  O   UNL     3     -12.844  12.777  64.489  1.00  0.00    -0.701 OA 
HETATM   25  H   UNL     3     -12.497  10.971  66.465  1.00  0.00     0.000 HD 
ENDBRANCH  17  20
ENDBRANCH   7  17
TORSDOF 4
ENDMDL
MODEL       96
REMARK 921   NORMALIZED FREE ENERGY PREDICTED BY IDOCK:   -3.51 KCAL/MOL
REMARK 922        TOTAL FREE ENERGY PREDICTED BY IDOCK:   -5.51 KCAL/MOL
REMARK 923 INTER-LIGAND FREE ENERGY PREDICTED BY IDOCK:   -4.31 KCAL/MOL
REMARK 924 INTRA-LIGAND FREE ENERGY PREDICTED BY IDOCK:   -1.21 KCAL/MOL
REMARK 927      BINDING AFFINITY PREDICTED BY RF-SCORE:    0.00 PKD
ROOT
HETATM    1 CA   UNL     1     -12.919   8.052  70.095  1.00  0.00    -0.380 Ca 
HETATM    2  O   UNL     2     -12.649   6.505  72.423  1.00  0.00    -0.539 OA 
HETATM    3  O   UNL     3     -10.627  10.266  66.520  1.00  0.00    -0.207 OA 
HETATM    4  C   UNL     2     -11.404   5.759  72.223  1.00  0.00    -0.278 C  
HETATM    5  H   UNL     2     -13.116   6.002  73.079  1.00  0.00     0.000 HD 
HETATM    6  H   UNL     3     -10.684  10.308  65.573  1.00  0.00     0.000 HD 
HETATM    7  C   UNL     3     -10.221   8.978  66.966  1.00  0.00    -0.266 C  
ENDROOT
BRANCH   4   8
HETATM    8  C   UNL     2     -10.658   6.561  71.176  1.00  0.00    -0.229 C  
HETATM    9  H   UNL     2     -10.856   6.797  69.249  1.00  0.00     0.000 HD 
HETATM   10  O   UNL     2     -11.323   6.293  69.905  1.00  0.00    -0.397 OA 
BRANCH   8  11
HETATM   11  C   UNL     2      -9.153   6.425  71.138  1.00  0.00    -0.150 C  
HETATM   12  O   UNL     2      -7.244   7.765  71.603  1.00  0.00    -0.061 OA 
HETATM   13  H   UNL     2      -7.836   6.121  69.735  1.00  0.00     0.000 HD 
HETATM   14  O   UNL     2      -9.242   8.212  72.655  1.00  0.00    -0.209 OA 
HETATM   15  O   UNL     2      -8.782   6.207  69.758  1.00  0.00    -0.132 OA 
HETATM   16  C   UNL     2      -8.462   7.615  71.831  1.00  0.00    -0.109 C  
ENDBRANCH   8  11
ENDBRANCH   4   8
BRANCH   7  17
HETATM   17  C   UNL     3     -10.129   8.910  68.499  1.00  0.00    -0.188 C  
HETATM   18  O   UNL     3     -11.429   9.288  69.092  1.00  0.00    -0.425 OA 
HETATM   19  H   UNL     3     -11.373   9.246  70.039  1.00  0.00     0.000 HD 
BRANCH  17  20
HETATM   20  C   UNL     3      -8.949   9.647  69.146  1.00  0.00    -0.154 C  
HETATM   21  C   UNL     3      -9.037  11.126  68.688  1.00  0.00    -0.166 C  
HETATM   22  O   UNL     3      -7.720   8.963  68.768  1.00  0.00    -0.093 OA 
HETATM   23  O   UNL     3     -10.195  11.622  68.942  1.00  0.00    -0.198 OA 
HETATM   24  O   UNL     3      -8.085  11.615  68.047  1.00  0.00    -0.124 OA 
HETATM   25  H   UNL     3      -6.989   9.419  69.169  1.00  0.00     0.000 HD 
ENDBRANCH  17  20
ENDBRANCH   7  17
TORSDOF 4
ENDMDL
MODEL       97
REMARK 921   NORMALIZED FREE ENERGY PREDICTED BY IDOCK:   -3.50 KCAL/MOL
REMARK 922        TOTAL FREE ENERGY PREDICTED BY IDOCK:   -5.50 KCAL/MOL
REMARK 923 INTER-LIGAND FREE ENERGY PREDICTED BY IDOCK:   -4.37 KCAL/MOL
REMARK 924 INTRA-LIGAND FREE ENERGY PREDICTED BY IDOCK:   -1.13 KCAL/MOL
REMARK 927      BINDING AFFINITY PREDICTED BY RF-SCORE:    0.00 PKD
ROOT
HETATM    1 CA   UNL     1      -9.935   8.024  65.824  1.00  0.00    -0.367 Ca 
HETATM    2  O   UNL     2     -11.644   6.362  67.308  1.00  0.00    -0.695 OA 
HETATM    3  O   UNL     3      -6.596  11.450  66.010  1.00  0.00    -0.366 OA 
HETATM    4  C   UNL     2     -10.955   6.179  68.588  1.00  0.00    -0.336 C  
HETATM    5  H   UNL     2     -12.244   5.627  67.263  1.00  0.00     0.000 HD 
HETATM    6  H   UNL     3      -5.736  11.610  65.639  1.00  0.00     0.000 HD 
HETATM    7  C   UNL     3      -6.579  10.360  66.922  1.00  0.00    -0.078 C  
ENDROOT
BRANCH   4   8
HETATM    8  C   UNL     2      -9.998   7.352  68.660  1.00  0.00    -0.169 C  
HETATM    9  H   UNL     2      -8.420   7.882  67.642  1.00  0.00     0.000 HD 
HETATM   10  O   UNL     2      -9.020   7.147  67.597  1.00  0.00    -0.126 OA 
BRANCH   8  11
HETATM   11  C   UNL     2      -9.399   7.678  70.010  1.00  0.00    -0.154 C  
HETATM   12  O   UNL     2      -9.477   9.445  71.599  1.00  0.00    -0.262 OA 
HETATM   13  H   UNL     2      -7.594   7.984  70.674  1.00  0.00     0.000 HD 
HETATM   14  O   UNL     2     -11.243   9.121  70.156  1.00  0.00    -0.242 OA 
HETATM   15  O   UNL     2      -7.969   7.779  69.826  1.00  0.00    -0.110 OA 
HETATM   16  C   UNL     2     -10.076   8.908  70.644  1.00  0.00    -0.212 C  
ENDBRANCH   8  11
ENDBRANCH   4   8
BRANCH   7  17
HETATM   17  C   UNL     3      -7.970  10.101  67.523  1.00  0.00    -0.106 C  
HETATM   18  O   UNL     3      -8.952   9.902  66.437  1.00  0.00    -0.143 OA 
HETATM   19  H   UNL     3      -9.812   9.742  66.809  1.00  0.00     0.000 HD 
BRANCH  17  20
HETATM   20  C   UNL     3      -8.454  11.103  68.581  1.00  0.00    -0.153 C  
HETATM   21  C   UNL     3      -8.382  12.510  67.933  1.00  0.00    -0.167 C  
HETATM   22  O   UNL     3      -7.638  10.937  69.775  1.00  0.00    -0.350 OA 
HETATM   23  O   UNL     3      -9.021  12.541  66.819  1.00  0.00    -0.209 OA 
HETATM   24  O   UNL     3      -7.653  13.376  68.457  1.00  0.00    -0.124 OA 
HETATM   25  H   UNL     3      -7.937  11.557  70.430  1.00  0.00     0.000 HD 
ENDBRANCH  17  20
ENDBRANCH   7  17
TORSDOF 4
ENDMDL
MODEL       98
REMARK 921   NORMALIZED FREE ENERGY PREDICTED BY IDOCK:   -3.48 KCAL/MOL
REMARK 922        TOTAL FREE ENERGY PREDICTED BY IDOCK:   -5.47 KCAL/MOL
REMARK 923 INTER-LIGAND FREE ENERGY PREDICTED BY IDOCK:   -4.77 KCAL/MOL
REMARK 924 INTRA-LIGAND FREE ENERGY PREDICTED BY IDOCK:   -0.70 KCAL/MOL
REMARK 927      BINDING AFFINITY PREDICTED BY RF-SCORE:    0.00 PKD
ROOT
HETATM    1 CA   UNL     1     -12.947   6.356  72.599  1.00  0.00    -0.479 Ca 
HETATM    2  O   UNL     2     -13.901   8.661  71.309  1.00  0.00    -0.548 OA 
HETATM    3  O   UNL     3      -9.114   3.648  73.551  1.00  0.00    -0.094 OA 
HETATM    4  C   UNL     2     -12.754   9.572  71.292  1.00  0.00    -0.332 C  
HETATM    5  H   UNL     2     -14.651   9.233  71.195  1.00  0.00     0.000 HD 
HETATM    6  H   UNL     3      -8.711   3.250  74.313  1.00  0.00     0.000 HD 
HETATM    7  C   UNL     3      -9.040   5.067  73.598  1.00  0.00    -0.119 C  
ENDROOT
BRANCH   4   8
HETATM    8  C   UNL     2     -11.557   8.659  71.473  1.00  0.00    -0.302 C  
HETATM    9  H   UNL     2     -10.903   7.552  72.940  1.00  0.00     0.000 HD 
HETATM   10  O   UNL     2     -11.653   8.123  72.827  1.00  0.00    -0.411 OA 
BRANCH   8  11
HETATM   11  C   UNL     2     -10.198   9.216  71.112  1.00  0.00    -0.314 C  
HETATM   12  O   UNL     2      -8.545   8.893  69.433  1.00  0.00    -0.127 OA 
HETATM   13  H   UNL     2      -8.448   9.228  71.967  1.00  0.00     0.000 HD 
HETATM   14  O   UNL     2     -10.748   8.392  68.985  1.00  0.00    -0.185 OA 
HETATM   15  O   UNL     2      -9.302   8.878  72.194  1.00  0.00    -0.348 OA 
HETATM   16  C   UNL     2      -9.754   8.751  69.712  1.00  0.00    -0.177 C  
ENDBRANCH   8  11
ENDBRANCH   4   8
BRANCH   7  17
HETATM   17  C   UNL     3      -9.692   5.712  72.364  1.00  0.00    -0.156 C  
HETATM   18  O   UNL     3     -11.104   5.286  72.268  1.00  0.00    -0.221 OA 
HETATM   19  H   UNL     3     -11.507   5.684  71.506  1.00  0.00     0.000 HD 
BRANCH  17  20
HETATM   20  C   UNL     3      -8.939   5.560  71.035  1.00  0.00    -0.140 C  
HETATM   21  C   UNL     3      -9.924   4.909  70.031  1.00  0.00    -0.253 C  
HETATM   22  O   UNL     3      -7.725   4.794  71.284  1.00  0.00    -0.078 OA 
HETATM   23  O   UNL     3     -11.022   5.573  69.963  1.00  0.00    -0.301 OA 
HETATM   24  O   UNL     3      -9.626   3.810  69.522  1.00  0.00    -0.184 OA 
HETATM   25  H   UNL     3      -7.258   4.700  70.461  1.00  0.00     0.000 HD 
ENDBRANCH  17  20
ENDBRANCH   7  17
TORSDOF 4
ENDMDL
MODEL       99
REMARK 921   NORMALIZED FREE ENERGY PREDICTED BY IDOCK:   -3.47 KCAL/MOL
REMARK 922        TOTAL FREE ENERGY PREDICTED BY IDOCK:   -5.46 KCAL/MOL
REMARK 923 INTER-LIGAND FREE ENERGY PREDICTED BY IDOCK:   -5.33 KCAL/MOL
REMARK 924 INTRA-LIGAND FREE ENERGY PREDICTED BY IDOCK:   -0.14 KCAL/MOL
REMARK 927      BINDING AFFINITY PREDICTED BY RF-SCORE:    0.00 PKD
ROOT
HETATM    1 CA   UNL     1     -10.110  18.000  65.455  1.00  0.00    -0.245 Ca 
HETATM    2  O   UNL     2      -7.643  19.339  65.509  1.00  0.00    -0.445 OA 
HETATM    3  O   UNL     3     -12.531  14.099  66.816  1.00  0.00    -0.558 OA 
HETATM    4  C   UNL     2      -7.009  18.889  66.751  1.00  0.00    -0.199 C  
HETATM    5  H   UNL     2      -7.197  20.152  65.305  1.00  0.00     0.000 HD 
HETATM    6  H   UNL     3     -13.359  13.901  67.237  1.00  0.00     0.000 HD 
HETATM    7  C   UNL     3     -11.633  14.752  67.704  1.00  0.00    -0.354 C  
ENDROOT
BRANCH   4   8
HETATM    8  C   UNL     2      -7.722  17.591  67.077  1.00  0.00    -0.212 C  
HETATM    9  H   UNL     2      -9.486  17.150  67.783  1.00  0.00     0.000 HD 
HETATM   10  O   UNL     2      -9.040  17.963  67.580  1.00  0.00    -0.243 OA 
BRANCH   8  11
HETATM   11  C   UNL     2      -6.982  16.589  67.934  1.00  0.00    -0.142 C  
HETATM   12  O   UNL     2      -5.462  16.608  69.763  1.00  0.00    -0.151 OA 
HETATM   13  H   UNL     2      -5.609  15.248  67.602  1.00  0.00     0.000 HD 
HETATM   14  O   UNL     2      -6.899  18.380  69.447  1.00  0.00    -0.237 OA 
HETATM   15  O   UNL     2      -6.073  15.877  67.064  1.00  0.00    -0.328 OA 
HETATM   16  C   UNL     2      -6.335  17.265  69.159  1.00  0.00    -0.229 C  
ENDBRANCH   8  11
ENDBRANCH   4   8
BRANCH   7  17
HETATM   17  C   UNL     3     -10.293  15.072  67.023  1.00  0.00    -0.269 C  
HETATM   18  O   UNL     3     -10.531  15.887  65.813  1.00  0.00    -0.331 OA 
HETATM   19  H   UNL     3      -9.703  16.085  65.392  1.00  0.00     0.000 HD 
BRANCH  17  20
HETATM   20  C   UNL     3      -9.360  13.881  66.757  1.00  0.00    -0.275 C  
HETATM   21  C   UNL     3     -10.086  12.958  65.745  1.00  0.00    -0.287 C  
HETATM   22  O   UNL     3      -9.041  13.258  68.033  1.00  0.00    -0.188 OA 
HETATM   23  O   UNL     3     -10.450  13.611  64.700  1.00  0.00    -0.411 OA 
HETATM   24  O   UNL     3     -10.344  11.784  66.079  1.00  0.00    -0.224 OA 
HETATM   25  H   UNL     3      -8.464  12.521  67.870  1.00  0.00     0.000 HD 
ENDBRANCH  17  20
ENDBRANCH   7  17
TORSDOF 4
ENDMDL
MODEL      100
REMARK 921   NORMALIZED FREE ENERGY PREDICTED BY IDOCK:   -3.46 KCAL/MOL
REMARK 922        TOTAL FREE ENERGY PREDICTED BY IDOCK:   -5.45 KCAL/MOL
REMARK 923 INTER-LIGAND FREE ENERGY PREDICTED BY IDOCK:   -5.39 KCAL/MOL
REMARK 924 INTRA-LIGAND FREE ENERGY PREDICTED BY IDOCK:   -0.05 KCAL/MOL
REMARK 927      BINDING AFFINITY PREDICTED BY RF-SCORE:    0.00 PKD
ROOT
HETATM    1 CA   UNL     1      -8.239  13.836  67.877  1.00  0.00    -0.112 Ca 
HETATM    2  O   UNL     2     -10.034  15.994  67.920  1.00  0.00    -0.229 OA 
HETATM    3  O   UNL     3      -7.740   9.089  68.270  1.00  0.00    -0.094 OA 
HETATM    4  C   UNL     2     -11.307  15.420  67.476  1.00  0.00    -0.269 C  
HETATM    5  H   UNL     2     -10.133  16.925  67.759  1.00  0.00     0.000 HD 
HETATM    6  H   UNL     3      -7.322   8.387  67.785  1.00  0.00     0.000 HD 
HETATM    7  C   UNL     3      -8.825   9.655  67.546  1.00  0.00    -0.125 C  
ENDROOT
BRANCH   4   8
HETATM    8  C   UNL     2     -11.149  13.935  67.733  1.00  0.00    -0.262 C  
HETATM    9  H   UNL     2      -9.965  12.869  68.859  1.00  0.00     0.000 HD 
HETATM   10  O   UNL     2     -10.064  13.800  68.698  1.00  0.00    -0.231 OA 
BRANCH   8  11
HETATM   11  C   UNL     2     -11.035  13.030  66.526  1.00  0.00    -0.285 C  
HETATM   12  O   UNL     2     -10.388  13.200  64.245  1.00  0.00    -0.421 OA 
HETATM   13  H   UNL     2     -12.297  12.004  65.455  1.00  0.00     0.000 HD 
HETATM   14  O   UNL     2      -9.543  14.684  65.789  1.00  0.00    -0.303 OA 
HETATM   15  O   UNL     2     -12.370  12.573  66.212  1.00  0.00    -0.570 OA 
HETATM   16  C   UNL     2     -10.282  13.722  65.373  1.00  0.00    -0.326 C  
ENDBRANCH   8  11
ENDBRANCH   4   8
BRANCH   7  17
HETATM   17  C   UNL     3      -9.500  10.791  68.331  1.00  0.00    -0.174 C  
HETATM   18  O   UNL     3      -8.494  11.495  69.153  1.00  0.00    -0.372 OA 
HETATM   19  H   UNL     3      -8.911  12.197  69.638  1.00  0.00     0.000 HD 
BRANCH  17  20
HETATM   20  C   UNL     3     -10.756  10.416  69.130  1.00  0.00    -0.234 C  
HETATM   21  C   UNL     3     -10.377   9.207  70.023  1.00  0.00    -0.207 C  
HETATM   22  O   UNL     3     -11.838  10.164  68.188  1.00  0.00    -0.686 OA 
HETATM   23  O   UNL     3      -9.336   9.463  70.732  1.00  0.00    -0.253 OA 
HETATM   24  O   UNL     3     -10.998   8.135  69.881  1.00  0.00    -0.240 OA 
HETATM   25  H   UNL     3     -12.616   9.932  68.683  1.00  0.00     0.000 HD 
ENDBRANCH  17  20
ENDBRANCH   7  17
TORSDOF 4
ENDMDL
MODEL      101
REMARK 921   NORMALIZED FREE ENERGY PREDICTED BY IDOCK:   -3.46 KCAL/MOL
REMARK 922        TOTAL FREE ENERGY PREDICTED BY IDOCK:   -5.45 KCAL/MOL
REMARK 923 INTER-LIGAND FREE ENERGY PREDICTED BY IDOCK:   -5.10 KCAL/MOL
REMARK 924 INTRA-LIGAND FREE ENERGY PREDICTED BY IDOCK:   -0.34 KCAL/MOL
REMARK 927      BINDING AFFINITY PREDICTED BY RF-SCORE:    0.00 PKD
ROOT
HETATM    1 CA   UNL     1      -8.100  16.542  65.234  1.00  0.00    -0.107 Ca 
HETATM    2  O   UNL     2      -6.892  19.071  65.059  1.00  0.00    -0.478 OA 
HETATM    3  O   UNL     3     -11.015  13.711  67.767  1.00  0.00    -0.251 OA 
HETATM    4  C   UNL     2      -7.823  19.969  65.747  1.00  0.00    -0.198 C  
HETATM    5  H   UNL     2      -6.380  19.650  64.507  1.00  0.00     0.000 HD 
HETATM    6  H   UNL     3     -11.767  13.155  67.603  1.00  0.00     0.000 HD 
HETATM    7  C   UNL     3     -11.321  15.084  67.563  1.00  0.00    -0.333 C  
ENDROOT
BRANCH   4   8
HETATM    8  C   UNL     2      -8.641  19.045  66.628  1.00  0.00    -0.313 C  
HETATM    9  H   UNL     2      -9.800  17.514  66.283  1.00  0.00     0.000 HD 
HETATM   10  O   UNL     2      -9.288  18.093  65.731  1.00  0.00    -0.476 OA 
BRANCH   8  11
HETATM   11  C   UNL     2      -9.567  19.688  67.637  1.00  0.00    -0.346 C  
HETATM   12  O   UNL     2      -9.815  19.780  70.000  1.00  0.00     0.032 OA 
HETATM   13  H   UNL     2     -11.461  19.526  68.059  1.00  0.00     0.000 HD 
HETATM   14  O   UNL     2      -7.745  19.366  69.080  1.00  0.00    -0.362 OA 
HETATM   15  O   UNL     2     -10.880  19.122  67.425  1.00  0.00    -0.483 OA 
HETATM   16  C   UNL     2      -9.013  19.562  69.069  1.00  0.00    -0.192 C  
ENDBRANCH   8  11
ENDBRANCH   4   8
BRANCH   7  17
HETATM   17  C   UNL     3     -10.104  15.984  67.830  1.00  0.00    -0.243 C  
HETATM   18  O   UNL     3      -9.024  15.654  66.877  1.00  0.00    -0.208 OA 
HETATM   19  H   UNL     3      -8.271  16.210  67.042  1.00  0.00     0.000 HD 
BRANCH  17  20
HETATM   20  C   UNL     3      -9.610  16.051  69.282  1.00  0.00    -0.255 C  
HETATM   21  C   UNL     3      -8.095  15.724  69.256  1.00  0.00    -0.241 C  
HETATM   22  O   UNL     3     -10.418  15.141  70.082  1.00  0.00    -0.433 OA 
HETATM   23  O   UNL     3      -7.469  16.486  68.432  1.00  0.00    -0.170 OA 
HETATM   24  O   UNL     3      -7.681  14.737  69.897  1.00  0.00    -0.044 OA 
HETATM   25  H   UNL     3     -10.112  15.182  70.980  1.00  0.00     0.000 HD 
ENDBRANCH  17  20
ENDBRANCH   7  17
TORSDOF 4
ENDMDL
MODEL      102
REMARK 921   NORMALIZED FREE ENERGY PREDICTED BY IDOCK:   -3.45 KCAL/MOL
REMARK 922        TOTAL FREE ENERGY PREDICTED BY IDOCK:   -5.44 KCAL/MOL
REMARK 923 INTER-LIGAND FREE ENERGY PREDICTED BY IDOCK:   -6.06 KCAL/MOL
REMARK 924 INTRA-LIGAND FREE ENERGY PREDICTED BY IDOCK:    0.62 KCAL/MOL
REMARK 927      BINDING AFFINITY PREDICTED BY RF-SCORE:    0.00 PKD
ROOT
HETATM    1 CA   UNL     1     -13.205   6.859  69.937  1.00  0.00    -0.626 Ca 
HETATM    2  O   UNL     2     -12.801   8.121  72.413  1.00  0.00    -0.517 OA 
HETATM    3  O   UNL     3     -11.185   5.458  65.828  1.00  0.00    -0.752 OA 
HETATM    4  C   UNL     2     -11.392   7.870  72.726  1.00  0.00    -0.393 C  
HETATM    5  H   UNL     2     -13.192   8.320  73.256  1.00  0.00     0.000 HD 
HETATM    6  H   UNL     3     -11.147   4.669  65.301  1.00  0.00     0.000 HD 
HETATM    7  C   UNL     3     -10.512   5.294  67.069  1.00  0.00    -0.229 C  
ENDROOT
BRANCH   4   8
HETATM    8  C   UNL     2     -10.768   7.552  71.381  1.00  0.00    -0.223 C  
HETATM    9  H   UNL     2     -10.258   5.900  70.477  1.00  0.00     0.000 HD 
HETATM   10  O   UNL     2     -10.649   6.099  71.320  1.00  0.00    -0.226 OA 
BRANCH   8  11
HETATM   11  C   UNL     2      -9.512   8.303  71.003  1.00  0.00    -0.161 C  
HETATM   12  O   UNL     2      -7.532   9.084  72.065  1.00  0.00    -0.337 OA 
HETATM   13  H   UNL     2      -9.130  10.095  70.343  1.00  0.00     0.000 HD 
HETATM   14  O   UNL     2      -8.665   7.279  72.936  1.00  0.00    -0.118 OA 
HETATM   15  O   UNL     2      -9.919   9.624  70.580  1.00  0.00    -0.273 OA 
HETATM   16  C   UNL     2      -8.469   8.262  72.137  1.00  0.00    -0.179 C  
ENDBRANCH   8  11
ENDBRANCH   4   8
BRANCH   7  17
HETATM   17  C   UNL     3     -10.574   6.571  67.923  1.00  0.00    -0.252 C  
HETATM   18  O   UNL     3     -11.730   6.501  68.841  1.00  0.00    -0.561 OA 
HETATM   19  H   UNL     3     -11.768   7.290  69.368  1.00  0.00     0.000 HD 
BRANCH  17  20
HETATM   20  C   UNL     3     -10.505   7.904  67.164  1.00  0.00    -0.344 C  
HETATM   21  C   UNL     3      -9.008   8.173  66.864  1.00  0.00    -0.140 C  
HETATM   22  O   UNL     3     -11.160   8.923  67.971  1.00  0.00    -0.488 OA 
HETATM   23  O   UNL     3      -8.468   7.174  66.262  1.00  0.00    -0.124 OA 
HETATM   24  O   UNL     3      -8.479   9.207  67.319  1.00  0.00    -0.120 OA 
HETATM   25  H   UNL     3     -11.117   9.749  67.501  1.00  0.00     0.000 HD 
ENDBRANCH  17  20
ENDBRANCH   7  17
TORSDOF 4
ENDMDL
MODEL      103
REMARK 921   NORMALIZED FREE ENERGY PREDICTED BY IDOCK:   -3.42 KCAL/MOL
REMARK 922        TOTAL FREE ENERGY PREDICTED BY IDOCK:   -5.40 KCAL/MOL
REMARK 923 INTER-LIGAND FREE ENERGY PREDICTED BY IDOCK:   -5.51 KCAL/MOL
REMARK 924 INTRA-LIGAND FREE ENERGY PREDICTED BY IDOCK:    0.11 KCAL/MOL
REMARK 927      BINDING AFFINITY PREDICTED BY RF-SCORE:    0.00 PKD
ROOT
HETATM    1 CA   UNL     1     -10.702  13.903  70.688  1.00  0.00    -0.456 Ca 
HETATM    2  O   UNL     2     -11.370  16.630  70.635  1.00  0.00    -0.518 OA 
HETATM    3  O   UNL     3      -9.124  10.161  68.152  1.00  0.00    -0.127 OA 
HETATM    4  C   UNL     2     -10.530  17.192  69.575  1.00  0.00    -0.122 C  
HETATM    5  H   UNL     2     -11.605  17.382  71.166  1.00  0.00     0.000 HD 
HETATM    6  H   UNL     3      -8.460   9.487  68.239  1.00  0.00     0.000 HD 
HETATM    7  C   UNL     3      -8.546  11.450  67.994  1.00  0.00    -0.147 C  
ENDROOT
BRANCH   4   8
HETATM    8  C   UNL     2     -10.155  15.991  68.728  1.00  0.00    -0.225 C  
HETATM    9  H   UNL     2      -8.876  14.532  68.930  1.00  0.00     0.000 HD 
HETATM   10  O   UNL     2      -9.110  15.284  69.461  1.00  0.00    -0.241 OA 
BRANCH   8  11
HETATM   11  C   UNL     2      -9.842  16.241  67.270  1.00  0.00    -0.243 C  
HETATM   12  O   UNL     2      -9.271  18.079  65.874  1.00  0.00    -0.520 OA 
HETATM   13  H   UNL     2     -10.838  16.076  65.604  1.00  0.00     0.000 HD 
HETATM   14  O   UNL     2      -8.785  18.153  68.123  1.00  0.00    -0.262 OA 
HETATM   15  O   UNL     2     -11.035  15.919  66.520  1.00  0.00    -0.252 OA 
HETATM   16  C   UNL     2      -9.281  17.659  67.049  1.00  0.00    -0.250 C  
ENDBRANCH   8  11
ENDBRANCH   4   8
BRANCH   7  17
HETATM   17  C   UNL     3      -9.620  12.541  67.853  1.00  0.00    -0.206 C  
HETATM   18  O   UNL     3     -10.555  12.468  68.995  1.00  0.00    -0.388 OA 
HETATM   19  H   UNL     3     -11.219  13.142  68.908  1.00  0.00     0.000 HD 
BRANCH  17  20
HETATM   20  C   UNL     3     -10.344  12.616  66.501  1.00  0.00    -0.242 C  
HETATM   21  C   UNL     3     -10.889  11.195  66.204  1.00  0.00    -0.185 C  
HETATM   22  O   UNL     3      -9.410  13.132  65.511  1.00  0.00    -0.460 OA 
HETATM   23  O   UNL     3     -11.601  10.758  67.180  1.00  0.00    -0.385 OA 
HETATM   24  O   UNL     3     -10.504  10.606  65.174  1.00  0.00    -0.280 OA 
HETATM   25  H   UNL     3      -9.857  13.178  64.674  1.00  0.00     0.000 HD 
ENDBRANCH  17  20
ENDBRANCH   7  17
TORSDOF 4
ENDMDL
MODEL      104
REMARK 921   NORMALIZED FREE ENERGY PREDICTED BY IDOCK:   -3.41 KCAL/MOL
REMARK 922        TOTAL FREE ENERGY PREDICTED BY IDOCK:   -5.39 KCAL/MOL
REMARK 923 INTER-LIGAND FREE ENERGY PREDICTED BY IDOCK:   -5.23 KCAL/MOL
REMARK 924 INTRA-LIGAND FREE ENERGY PREDICTED BY IDOCK:   -0.16 KCAL/MOL
REMARK 927      BINDING AFFINITY PREDICTED BY RF-SCORE:    0.00 PKD
ROOT
HETATM    1 CA   UNL     1      -7.572  11.810  69.837  1.00  0.00    -0.333 Ca 
HETATM    2  O   UNL     2      -8.867  14.243  69.296  1.00  0.00    -0.375 OA 
HETATM    3  O   UNL     3      -7.789   7.041  69.476  1.00  0.00    -0.114 OA 
HETATM    4  C   UNL     2      -9.679  13.968  68.107  1.00  0.00    -0.220 C  
HETATM    5  H   UNL     2      -8.776  15.188  69.299  1.00  0.00     0.000 HD 
HETATM    6  H   UNL     3      -7.225   6.335  69.181  1.00  0.00     0.000 HD 
HETATM    7  C   UNL     3      -8.192   7.877  68.399  1.00  0.00    -0.124 C  
ENDROOT
BRANCH   4   8
HETATM    8  C   UNL     2      -9.824  12.459  68.102  1.00  0.00    -0.213 C  
HETATM    9  H   UNL     2      -8.622  10.980  67.686  1.00  0.00     0.000 HD 
HETATM   10  O   UNL     2      -8.531  11.925  67.689  1.00  0.00    -0.142 OA 
BRANCH   8  11
HETATM   11  C   UNL     2     -11.009  11.879  67.364  1.00  0.00    -0.263 C  
HETATM   12  O   UNL     2     -12.305  12.375  65.433  1.00  0.00    -0.596 OA 
HETATM   13  H   UNL     2     -12.886  11.585  67.795  1.00  0.00     0.000 HD 
HETATM   14  O   UNL     2     -10.126  13.107  65.571  1.00  0.00    -0.289 OA 
HETATM   15  O   UNL     2     -12.142  11.951  68.259  1.00  0.00    -0.485 OA 
HETATM   16  C   UNL     2     -11.203  12.553  65.992  1.00  0.00    -0.315 C  
ENDBRANCH   8  11
ENDBRANCH   4   8
BRANCH   7  17
HETATM   17  C   UNL     3      -9.104   9.018  68.877  1.00  0.00    -0.140 C  
HETATM   18  O   UNL     3      -8.543   9.623  70.103  1.00  0.00    -0.193 OA 
HETATM   19  H   UNL     3      -9.107  10.328  70.399  1.00  0.00     0.000 HD 
BRANCH  17  20
HETATM   20  C   UNL     3     -10.597   8.689  69.011  1.00  0.00    -0.160 C  
HETATM   21  C   UNL     3     -10.710   7.515  70.018  1.00  0.00    -0.240 C  
HETATM   22  O   UNL     3     -11.124   8.407  67.683  1.00  0.00    -0.478 OA 
HETATM   23  O   UNL     3     -10.111   7.791  71.121  1.00  0.00    -0.187 OA 
HETATM   24  O   UNL     3     -11.223   6.443  69.638  1.00  0.00    -0.358 OA 
HETATM   25  H   UNL     3     -12.049   8.203  67.766  1.00  0.00     0.000 HD 
ENDBRANCH  17  20
ENDBRANCH   7  17
TORSDOF 4
ENDMDL
MODEL      105
REMARK 921   NORMALIZED FREE ENERGY PREDICTED BY IDOCK:   -3.40 KCAL/MOL
REMARK 922        TOTAL FREE ENERGY PREDICTED BY IDOCK:   -5.38 KCAL/MOL
REMARK 923 INTER-LIGAND FREE ENERGY PREDICTED BY IDOCK:   -5.19 KCAL/MOL
REMARK 924 INTRA-LIGAND FREE ENERGY PREDICTED BY IDOCK:   -0.19 KCAL/MOL
REMARK 927      BINDING AFFINITY PREDICTED BY RF-SCORE:    0.00 PKD
ROOT
HETATM    1 CA   UNL     1     -10.480  13.882  70.156  1.00  0.00    -0.425 Ca 
HETATM    2  O   UNL     2     -11.914  15.646  68.508  1.00  0.00    -0.501 OA 
HETATM    3  O   UNL     3      -7.375  10.240  70.307  1.00  0.00    -0.243 OA 
HETATM    4  C   UNL     2     -11.088  15.775  67.304  1.00  0.00    -0.211 C  
HETATM    5  H   UNL     2     -12.465  16.419  68.492  1.00  0.00     0.000 HD 
HETATM    6  H   UNL     3      -6.571  10.025  70.764  1.00  0.00     0.000 HD 
HETATM    7  C   UNL     3      -7.193  11.322  69.403  1.00  0.00    -0.063 C  
ENDROOT
BRANCH   4   8
HETATM    8  C   UNL     2     -10.209  14.541  67.329  1.00  0.00    -0.255 C  
HETATM    9  H   UNL     2      -8.523  14.056  66.473  1.00  0.00     0.000 HD 
HETATM   10  O   UNL     2      -9.074  14.830  66.458  1.00  0.00    -0.265 OA 
BRANCH   8  11
HETATM   11  C   UNL     2     -10.875  13.208  67.072  1.00  0.00    -0.264 C  
HETATM   12  O   UNL     2     -12.430  12.277  65.532  1.00  0.00    -0.597 OA 
HETATM   13  H   UNL     2     -12.116  12.080  68.063  1.00  0.00     0.000 HD 
HETATM   14  O   UNL     2     -11.150  14.088  64.915  1.00  0.00    -0.340 OA 
HETATM   15  O   UNL     2     -11.698  12.917  68.224  1.00  0.00    -0.312 OA 
HETATM   16  C   UNL     2     -11.606  13.196  65.715  1.00  0.00    -0.347 C  
ENDBRANCH   8  11
ENDBRANCH   4   8
BRANCH   7  17
HETATM   17  C   UNL     3      -8.495  11.669  68.663  1.00  0.00    -0.094 C  
HETATM   18  O   UNL     3      -9.650  11.120  69.404  1.00  0.00    -0.416 OA 
HETATM   19  H   UNL     3     -10.455  11.335  68.947  1.00  0.00     0.000 HD 
BRANCH  17  20
HETATM   20  C   UNL     3      -8.541  11.333  67.166  1.00  0.00    -0.147 C  
HETATM   21  C   UNL     3      -8.169   9.834  67.030  1.00  0.00    -0.117 C  
HETATM   22  O   UNL     3      -7.652  12.249  66.465  1.00  0.00    -0.374 OA 
HETATM   23  O   UNL     3      -8.916   9.101  67.777  1.00  0.00    -0.127 OA 
HETATM   24  O   UNL     3      -7.167   9.521  66.356  1.00  0.00    -0.087 OA 
HETATM   25  H   UNL     3      -7.680  12.041  65.538  1.00  0.00     0.000 HD 
ENDBRANCH  17  20
ENDBRANCH   7  17
TORSDOF 4
ENDMDL
MODEL      106
REMARK 921   NORMALIZED FREE ENERGY PREDICTED BY IDOCK:   -3.39 KCAL/MOL
REMARK 922        TOTAL FREE ENERGY PREDICTED BY IDOCK:   -5.36 KCAL/MOL
REMARK 923 INTER-LIGAND FREE ENERGY PREDICTED BY IDOCK:   -5.39 KCAL/MOL
REMARK 924 INTRA-LIGAND FREE ENERGY PREDICTED BY IDOCK:    0.02 KCAL/MOL
REMARK 927      BINDING AFFINITY PREDICTED BY RF-SCORE:    0.00 PKD
ROOT
HETATM    1 CA   UNL     1     -11.063  13.514  71.107  1.00  0.00    -0.452 Ca 
HETATM    2  O   UNL     2     -12.795  15.576  70.312  1.00  0.00    -0.609 OA 
HETATM    3  O   UNL     3      -8.651   9.614  69.727  1.00  0.00    -0.163 OA 
HETATM    4  C   UNL     2     -12.507  15.767  68.888  1.00  0.00     0.432 C  
HETATM    5  H   UNL     2     -13.202  16.393  70.576  1.00  0.00     0.000 HD 
HETATM    6  H   UNL     3      -7.766   9.277  69.799  1.00  0.00     0.000 HD 
HETATM    7  C   UNL     3      -8.707  10.771  68.903  1.00  0.00    -0.152 C  
ENDROOT
BRANCH   4   8
HETATM    8  C   UNL     2     -11.857  14.464  68.467  1.00  0.00    -0.334 C  
HETATM    9  H   UNL     2     -11.801  12.667  69.224  1.00  0.00     0.000 HD 
HETATM   10  O   UNL     2     -12.208  13.484  69.489  1.00  0.00    -0.304 OA 
BRANCH   8  11
HETATM   11  C   UNL     2     -10.388  14.505  68.112  1.00  0.00    -0.232 C  
HETATM   12  O   UNL     2      -8.427  15.644  68.826  1.00  0.00    -0.164 OA 
HETATM   13  H   UNL     2      -9.371  15.020  66.532  1.00  0.00     0.000 HD 
HETATM   14  O   UNL     2     -10.181  15.354  70.288  1.00  0.00    -0.274 OA 
HETATM   15  O   UNL     2     -10.294  14.996  66.755  1.00  0.00    -0.262 OA 
HETATM   16  C   UNL     2      -9.576  15.290  69.160  1.00  0.00    -0.243 C  
ENDBRANCH   8  11
ENDBRANCH   4   8
BRANCH   7  17
HETATM   17  C   UNL     3     -10.139  11.317  68.786  1.00  0.00    -0.194 C  
HETATM   18  O   UNL     3     -10.754  11.392  70.127  1.00  0.00    -0.353 OA 
HETATM   19  H   UNL     3     -11.639  11.729  70.055  1.00  0.00     0.000 HD 
BRANCH  17  20
HETATM   20  C   UNL     3     -11.049  10.631  67.757  1.00  0.00    -0.321 C  
HETATM   21  C   UNL     3     -11.010  11.497  66.473  1.00  0.00    -0.293 C  
HETATM   22  O   UNL     3     -12.371  10.475  68.349  1.00  0.00    -0.700 OA 
HETATM   23  O   UNL     3      -9.802  11.696  66.084  1.00  0.00    -0.210 OA 
HETATM   24  O   UNL     3     -12.074  11.989  66.046  1.00  0.00    -0.561 OA 
HETATM   25  H   UNL     3     -12.934  10.050  67.713  1.00  0.00     0.000 HD 
ENDBRANCH  17  20
ENDBRANCH   7  17
TORSDOF 4
ENDMDL
MODEL      107
REMARK 921   NORMALIZED FREE ENERGY PREDICTED BY IDOCK:   -3.37 KCAL/MOL
REMARK 922        TOTAL FREE ENERGY PREDICTED BY IDOCK:   -5.34 KCAL/MOL
REMARK 923 INTER-LIGAND FREE ENERGY PREDICTED BY IDOCK:   -5.36 KCAL/MOL
REMARK 924 INTRA-LIGAND FREE ENERGY PREDICTED BY IDOCK:    0.02 KCAL/MOL
REMARK 927      BINDING AFFINITY PREDICTED BY RF-SCORE:    0.00 PKD
ROOT
HETATM    1 CA   UNL     1      -9.653   9.025  64.380  1.00  0.00    -0.398 Ca 
HETATM    2  O   UNL     2      -9.806  11.273  62.705  1.00  0.00    -0.581 OA 
HETATM    3  O   UNL     3      -9.319   7.464  68.895  1.00  0.00    -0.145 OA 
HETATM    4  C   UNL     2     -10.441  12.303  63.532  1.00  0.00    -0.424 C  
HETATM    5  H   UNL     2      -9.955  11.569  61.814  1.00  0.00     0.000 HD 
HETATM    6  H   UNL     3      -9.759   6.831  69.450  1.00  0.00     0.000 HD 
HETATM    7  C   UNL     3     -10.174   8.548  68.555  1.00  0.00    -0.198 C  
ENDROOT
BRANCH   4   8
HETATM    8  C   UNL     2     -10.204  11.831  64.952  1.00  0.00    -0.273 C  
HETATM    9  H   UNL     2     -10.691  10.226  65.950  1.00  0.00     0.000 HD 
HETATM   10  O   UNL     2     -10.840  10.522  65.059  1.00  0.00    -0.052 OA 
BRANCH   8  11
HETATM   11  C   UNL     2     -10.548  12.790  66.069  1.00  0.00    -0.268 C  
HETATM   12  O   UNL     2     -12.309  14.283  66.638  1.00  0.00    -0.446 OA 
HETATM   13  H   UNL     2      -9.759  14.432  66.760  1.00  0.00     0.000 HD 
HETATM   14  O   UNL     2     -12.733  12.474  65.278  1.00  0.00    -0.654 OA 
HETATM   15  O   UNL     2      -9.543  13.830  66.058  1.00  0.00    -0.258 OA 
HETATM   16  C   UNL     2     -12.006  13.276  65.965  1.00  0.00    -0.423 C  
ENDBRANCH   8  11
ENDBRANCH   4   8
BRANCH   7  17
HETATM   17  C   UNL     3      -9.462   9.572  67.656  1.00  0.00    -0.131 C  
HETATM   18  O   UNL     3      -8.699   8.866  66.605  1.00  0.00    -0.122 OA 
HETATM   19  H   UNL     3      -8.259   9.499  66.050  1.00  0.00     0.000 HD 
BRANCH  17  20
HETATM   20  C   UNL     3      -8.629  10.645  68.370  1.00  0.00    -0.134 C  
HETATM   21  C   UNL     3      -7.587   9.899  69.242  1.00  0.00    -0.101 C  
HETATM   22  O   UNL     3      -9.536  11.511  69.109  1.00  0.00    -0.414 OA 
HETATM   23  O   UNL     3      -6.911   9.060  68.541  1.00  0.00    -0.062 OA 
HETATM   24  O   UNL     3      -7.595  10.080  70.476  1.00  0.00    -0.276 OA 
HETATM   25  H   UNL     3      -9.021  12.176  69.552  1.00  0.00     0.000 HD 
ENDBRANCH  17  20
ENDBRANCH   7  17
TORSDOF 4
ENDMDL
MODEL      108
REMARK 921   NORMALIZED FREE ENERGY PREDICTED BY IDOCK:   -3.32 KCAL/MOL
REMARK 922        TOTAL FREE ENERGY PREDICTED BY IDOCK:   -5.28 KCAL/MOL
REMARK 923 INTER-LIGAND FREE ENERGY PREDICTED BY IDOCK:   -6.28 KCAL/MOL
REMARK 924 INTRA-LIGAND FREE ENERGY PREDICTED BY IDOCK:    1.00 KCAL/MOL
REMARK 927      BINDING AFFINITY PREDICTED BY RF-SCORE:    0.00 PKD
ROOT
HETATM    1 CA   UNL     1     -11.410   9.894  66.928  1.00  0.00    -0.219 Ca 
HETATM    2  O   UNL     2     -12.078  10.980  69.430  1.00  0.00    -0.333 OA 
HETATM    3  O   UNL     3     -10.286  10.840  62.371  1.00  0.00    -0.717 OA 
HETATM    4  C   UNL     2     -11.429  12.294  69.443  1.00  0.00    -0.277 C  
HETATM    5  H   UNL     2     -12.218  10.785  70.349  1.00  0.00     0.000 HD 
HETATM    6  H   UNL     3      -9.617  10.582  61.747  1.00  0.00     0.000 HD 
HETATM    7  C   UNL     3      -9.743  11.610  63.435  1.00  0.00    -0.348 C  
ENDROOT
BRANCH   4   8
HETATM    8  C   UNL     2     -11.204  12.607  67.977  1.00  0.00    -0.265 C  
HETATM    9  H   UNL     2     -10.087  11.831  66.578  1.00  0.00     0.000 HD 
HETATM   10  O   UNL     2     -10.228  11.635  67.497  1.00  0.00    -0.191 OA 
BRANCH   8  11
HETATM   11  C   UNL     2     -10.895  14.042  67.612  1.00  0.00    -0.262 C  
HETATM   12  O   UNL     2      -9.193  15.646  68.039  1.00  0.00    -0.183 OA 
HETATM   13  H   UNL     2     -11.746  15.759  67.956  1.00  0.00     0.000 HD 
HETATM   14  O   UNL     2      -8.702  13.399  68.142  1.00  0.00    -0.168 OA 
HETATM   15  O   UNL     2     -11.941  14.859  68.185  1.00  0.00    -0.304 OA 
HETATM   16  C   UNL     2      -9.458  14.427  68.013  1.00  0.00    -0.209 C  
ENDBRANCH   8  11
ENDBRANCH   4   8
BRANCH   7  17
HETATM   17  C   UNL     3     -10.825  12.028  64.444  1.00  0.00    -0.329 C  
HETATM   18  O   UNL     3     -11.201  10.867  65.278  1.00  0.00     0.053 OA 
HETATM   19  H   UNL     3     -11.870  11.125  65.902  1.00  0.00     0.000 HD 
BRANCH  17  20
HETATM   20  C   UNL     3     -12.046  12.762  63.871  1.00  0.00    -0.486 C  
HETATM   21  C   UNL     3     -12.118  14.137  64.583  1.00  0.00    -0.452 C  
HETATM   22  O   UNL     3     -13.216  11.916  64.057  1.00  0.00    -0.632 OA 
HETATM   23  O   UNL     3     -11.004  14.770  64.483  1.00  0.00    -0.327 OA 
HETATM   24  O   UNL     3     -13.135  14.419  65.247  1.00  0.00    -0.629 OA 
HETATM   25  H   UNL     3     -13.972  12.370  63.703  1.00  0.00     0.000 HD 
ENDBRANCH  17  20
ENDBRANCH   7  17
TORSDOF 4
ENDMDL
MODEL      109
REMARK 921   NORMALIZED FREE ENERGY PREDICTED BY IDOCK:   -3.32 KCAL/MOL
REMARK 922        TOTAL FREE ENERGY PREDICTED BY IDOCK:   -5.27 KCAL/MOL
REMARK 923 INTER-LIGAND FREE ENERGY PREDICTED BY IDOCK:   -5.29 KCAL/MOL
REMARK 924 INTRA-LIGAND FREE ENERGY PREDICTED BY IDOCK:    0.02 KCAL/MOL
REMARK 927      BINDING AFFINITY PREDICTED BY RF-SCORE:    0.00 PKD
ROOT
HETATM    1 CA   UNL     1     -12.431   6.845  69.454  1.00  0.00    -0.570 Ca 
HETATM    2  O   UNL     2     -11.514   8.561  71.479  1.00  0.00    -0.258 OA 
HETATM    3  O   UNL     3     -11.338   4.593  65.372  1.00  0.00    -0.960 OA 
HETATM    4  C   UNL     2     -10.067   8.334  71.523  1.00  0.00    -0.208 C  
HETATM    5  H   UNL     2     -11.714   8.935  72.328  1.00  0.00     0.000 HD 
HETATM    6  H   UNL     3     -11.405   3.715  65.018  1.00  0.00     0.000 HD 
HETATM    7  C   UNL     3     -10.408   4.659  66.445  1.00  0.00    -0.226 C  
ENDROOT
BRANCH   4   8
HETATM    8  C   UNL     2      -9.748   7.735  70.167  1.00  0.00    -0.183 C  
HETATM    9  H   UNL     2     -10.700   7.638  68.467  1.00  0.00     0.000 HD 
HETATM   10  O   UNL     2     -10.900   8.013  69.316  1.00  0.00    -0.177 OA 
BRANCH   8  11
HETATM   11  C   UNL     2      -9.274   6.299  70.136  1.00  0.00    -0.157 C  
HETATM   12  O   UNL     2      -9.710   4.269  71.294  1.00  0.00    -0.164 OA 
HETATM   13  H   UNL     2      -7.575   5.407  70.465  1.00  0.00     0.000 HD 
HETATM   14  O   UNL     2     -11.329   5.903  71.196  1.00  0.00    -0.262 OA 
HETATM   15  O   UNL     2      -7.872   6.309  70.485  1.00  0.00    -0.102 OA 
HETATM   16  C   UNL     2     -10.168   5.393  71.004  1.00  0.00    -0.229 C  
ENDBRANCH   8  11
ENDBRANCH   4   8
BRANCH   7  17
HETATM   17  C   UNL     3     -10.299   6.081  67.017  1.00  0.00    -0.240 C  
HETATM   18  O   UNL     3     -11.652   6.617  67.278  1.00  0.00    -0.747 OA 
HETATM   19  H   UNL     3     -11.585   7.496  67.632  1.00  0.00     0.000 HD 
BRANCH  17  20
HETATM   20  C   UNL     3      -9.415   7.065  66.238  1.00  0.00    -0.072 C  
HETATM   21  C   UNL     3      -8.023   7.055  66.919  1.00  0.00    -0.115 C  
HETATM   22  O   UNL     3     -10.079   8.361  66.223  1.00  0.00    -0.429 OA 
HETATM   23  O   UNL     3      -7.559   5.860  67.010  1.00  0.00    -0.096 OA 
HETATM   24  O   UNL     3      -7.578   8.119  67.395  1.00  0.00    -0.097 OA 
HETATM   25  H   UNL     3      -9.532   8.971  65.740  1.00  0.00     0.000 HD 
ENDBRANCH  17  20
ENDBRANCH   7  17
TORSDOF 4
ENDMDL
MODEL      110
REMARK 921   NORMALIZED FREE ENERGY PREDICTED BY IDOCK:   -3.32 KCAL/MOL
REMARK 922        TOTAL FREE ENERGY PREDICTED BY IDOCK:   -5.27 KCAL/MOL
REMARK 923 INTER-LIGAND FREE ENERGY PREDICTED BY IDOCK:   -4.15 KCAL/MOL
REMARK 924 INTRA-LIGAND FREE ENERGY PREDICTED BY IDOCK:   -1.12 KCAL/MOL
REMARK 927      BINDING AFFINITY PREDICTED BY RF-SCORE:    0.00 PKD
ROOT
HETATM    1 CA   UNL     1     -10.956   8.094  66.084  1.00  0.00    -0.351 Ca 
HETATM    2  O   UNL     2      -8.629   7.273  64.742  1.00  0.00    -0.352 OA 
HETATM    3  O   UNL     3     -12.741  10.135  70.031  1.00  0.00    -0.549 OA 
HETATM    4  C   UNL     2      -7.586   8.179  65.230  1.00  0.00    -0.095 C  
HETATM    5  H   UNL     2      -8.282   6.944  63.922  1.00  0.00     0.000 HD 
HETATM    6  H   UNL     3     -13.357  10.826  70.243  1.00  0.00     0.000 HD 
HETATM    7  C   UNL     3     -11.572  10.647  69.405  1.00  0.00    -0.280 C  
ENDROOT
BRANCH   4   8
HETATM    8  C   UNL     2      -8.141   8.706  66.539  1.00  0.00    -0.103 C  
HETATM    9  H   UNL     2      -9.420  10.103  67.008  1.00  0.00     0.000 HD 
HETATM   10  O   UNL     2      -9.072   9.773  66.188  1.00  0.00    -0.149 OA 
BRANCH   8  11
HETATM   11  C   UNL     2      -7.146   9.069  67.618  1.00  0.00    -0.076 C  
HETATM   12  O   UNL     2      -6.476   8.256  69.750  1.00  0.00    -0.035 OA 
HETATM   13  H   UNL     2      -6.905  10.594  68.806  1.00  0.00     0.000 HD 
HETATM   14  O   UNL     2      -7.411   6.816  68.217  1.00  0.00    -0.094 OA 
HETATM   15  O   UNL     2      -7.530  10.366  68.128  1.00  0.00    -0.087 OA 
HETATM   16  C   UNL     2      -7.026   7.951  68.672  1.00  0.00    -0.071 C  
ENDBRANCH   8  11
ENDBRANCH   4   8
BRANCH   7  17
HETATM   17  C   UNL     3     -10.575   9.529  69.061  1.00  0.00    -0.219 C  
HETATM   18  O   UNL     3     -11.224   8.538  68.177  1.00  0.00    -0.329 OA 
HETATM   19  H   UNL     3     -10.608   7.847  67.964  1.00  0.00     0.000 HD 
BRANCH  17  20
HETATM   20  C   UNL     3      -9.846   8.877  70.243  1.00  0.00    -0.183 C  
HETATM   21  C   UNL     3     -10.936   8.283  71.171  1.00  0.00    -0.245 C  
HETATM   22  O   UNL     3      -8.995   9.881  70.866  1.00  0.00    -0.330 OA 
HETATM   23  O   UNL     3     -11.726   7.505  70.521  1.00  0.00    -0.254 OA 
HETATM   24  O   UNL     3     -11.013   8.691  72.348  1.00  0.00    -0.353 OA 
HETATM   25  H   UNL     3      -8.543   9.478  71.598  1.00  0.00     0.000 HD 
ENDBRANCH  17  20
ENDBRANCH   7  17
TORSDOF 4
ENDMDL
MODEL      111
REMARK 921   NORMALIZED FREE ENERGY PREDICTED BY IDOCK:   -3.28 KCAL/MOL
REMARK 922        TOTAL FREE ENERGY PREDICTED BY IDOCK:   -5.23 KCAL/MOL
REMARK 923 INTER-LIGAND FREE ENERGY PREDICTED BY IDOCK:   -4.99 KCAL/MOL
REMARK 924 INTRA-LIGAND FREE ENERGY PREDICTED BY IDOCK:   -0.24 KCAL/MOL
REMARK 927      BINDING AFFINITY PREDICTED BY RF-SCORE:    0.00 PKD
ROOT
HETATM    1 CA   UNL     1      -7.698  10.974  70.560  1.00  0.00    -0.321 Ca 
HETATM    2  O   UNL     2      -8.326   8.742  72.144  1.00  0.00    -0.351 OA 
HETATM    3  O   UNL     3      -9.041  13.721  66.875  1.00  0.00    -0.239 OA 
HETATM    4  C   UNL     2      -9.789   8.659  72.096  1.00  0.00    -0.317 C  
HETATM    5  H   UNL     2      -8.094   8.255  72.926  1.00  0.00     0.000 HD 
HETATM    6  H   UNL     3      -9.147  14.648  66.696  1.00  0.00     0.000 HD 
HETATM    7  C   UNL     3      -9.989  13.259  67.829  1.00  0.00    -0.223 C  
ENDROOT
BRANCH   4   8
HETATM    8  C   UNL     2     -10.159   9.437  70.849  1.00  0.00    -0.296 C  
HETATM    9  H   UNL     2     -11.719  10.478  70.310  1.00  0.00     0.000 HD 
HETATM   10  O   UNL     2     -11.488   9.990  71.092  1.00  0.00    -0.357 OA 
BRANCH   8  11
HETATM   11  C   UNL     2     -10.005   8.733  69.520  1.00  0.00    -0.195 C  
HETATM   12  O   UNL     2     -10.488   6.602  68.581  1.00  0.00    -0.180 OA 
HETATM   13  H   UNL     2      -8.490   8.190  68.422  1.00  0.00     0.000 HD 
HETATM   14  O   UNL     2     -11.718   7.374  70.368  1.00  0.00    -0.237 OA 
HETATM   15  O   UNL     2      -8.587   8.632  69.257  1.00  0.00    -0.128 OA 
HETATM   16  C   UNL     2     -10.780   7.402  69.494  1.00  0.00    -0.224 C  
ENDBRANCH   8  11
ENDBRANCH   4   8
BRANCH   7  17
HETATM   17  C   UNL     3      -9.817  11.759  68.119  1.00  0.00    -0.190 C  
HETATM   18  O   UNL     3      -8.379  11.420  68.151  1.00  0.00    -0.135 OA 
HETATM   19  H   UNL     3      -8.273  10.493  68.330  1.00  0.00     0.000 HD 
BRANCH  17  20
HETATM   20  C   UNL     3     -10.630  10.796  67.242  1.00  0.00    -0.257 C  
HETATM   21  C   UNL     3     -10.296  11.139  65.768  1.00  0.00    -0.260 C  
HETATM   22  O   UNL     3     -12.036  10.932  67.598  1.00  0.00    -0.633 OA 
HETATM   23  O   UNL     3      -9.027  11.123  65.564  1.00  0.00    -0.200 OA 
HETATM   24  O   UNL     3     -11.219  11.499  65.009  1.00  0.00    -0.252 OA 
HETATM   25  H   UNL     3     -12.540  10.336  67.055  1.00  0.00     0.000 HD 
ENDBRANCH  17  20
ENDBRANCH   7  17
TORSDOF 4
ENDMDL
MODEL      112
REMARK 921   NORMALIZED FREE ENERGY PREDICTED BY IDOCK:   -3.27 KCAL/MOL
REMARK 922        TOTAL FREE ENERGY PREDICTED BY IDOCK:   -5.22 KCAL/MOL
REMARK 923 INTER-LIGAND FREE ENERGY PREDICTED BY IDOCK:   -4.43 KCAL/MOL
REMARK 924 INTRA-LIGAND FREE ENERGY PREDICTED BY IDOCK:   -0.79 KCAL/MOL
REMARK 927      BINDING AFFINITY PREDICTED BY RF-SCORE:    0.00 PKD
ROOT
HETATM    1 CA   UNL     1      -9.737   9.775  64.173  1.00  0.00    -0.253 Ca 
HETATM    2  O   UNL     2     -11.571  11.528  62.971  1.00  0.00    -0.848 OA 
HETATM    3  O   UNL     3      -6.633   9.140  67.764  1.00  0.00    -0.059 OA 
HETATM    4  C   UNL     2     -12.062  12.358  64.074  1.00  0.00    -0.475 C  
HETATM    5  H   UNL     2     -12.243  11.612  62.304  1.00  0.00     0.000 HD 
HETATM    6  H   UNL     3      -6.449   8.480  68.421  1.00  0.00     0.000 HD 
HETATM    7  C   UNL     3      -7.891   9.765  67.984  1.00  0.00    -0.086 C  
ENDROOT
BRANCH   4   8
HETATM    8  C   UNL     2     -10.990  12.225  65.138  1.00  0.00    -0.303 C  
HETATM    9  H   UNL     2     -10.226  10.719  66.116  1.00  0.00     0.000 HD 
HETATM   10  O   UNL     2     -10.898  10.803  65.450  1.00  0.00    -0.137 OA 
BRANCH   8  11
HETATM   11  C   UNL     2     -11.095  13.128  66.346  1.00  0.00    -0.289 C  
HETATM   12  O   UNL     2      -9.981  15.033  67.232  1.00  0.00    -0.231 OA 
HETATM   13  H   UNL     2     -10.893  12.879  68.268  1.00  0.00     0.000 HD 
HETATM   14  O   UNL     2      -9.933  14.627  64.966  1.00  0.00    -0.339 OA 
HETATM   15  O   UNL     2     -10.826  12.312  67.509  1.00  0.00    -0.221 OA 
HETATM   16  C   UNL     2     -10.208  14.378  66.194  1.00  0.00    -0.306 C  
ENDBRANCH   8  11
ENDBRANCH   4   8
BRANCH   7  17
HETATM   17  C   UNL     3      -8.188  10.834  66.920  1.00  0.00    -0.130 C  
HETATM   18  O   UNL     3      -7.997  10.261  65.571  1.00  0.00    -0.141 OA 
HETATM   19  H   UNL     3      -8.181  10.922  64.914  1.00  0.00     0.000 HD 
BRANCH  17  20
HETATM   20  C   UNL     3      -7.479  12.185  67.093  1.00  0.00    -0.129 C  
HETATM   21  C   UNL     3      -5.960  11.887  67.185  1.00  0.00    -0.152 C  
HETATM   22  O   UNL     3      -8.043  12.851  68.258  1.00  0.00    -0.143 OA 
HETATM   23  O   UNL     3      -5.563  11.186  66.184  1.00  0.00    -0.136 OA 
HETATM   24  O   UNL     3      -5.343  12.222  68.216  1.00  0.00    -0.051 OA 
HETATM   25  H   UNL     3      -7.604  13.687  68.365  1.00  0.00     0.000 HD 
ENDBRANCH  17  20
ENDBRANCH   7  17
TORSDOF 4
ENDMDL
MODEL      113
REMARK 921   NORMALIZED FREE ENERGY PREDICTED BY IDOCK:   -3.26 KCAL/MOL
REMARK 922        TOTAL FREE ENERGY PREDICTED BY IDOCK:   -5.20 KCAL/MOL
REMARK 923 INTER-LIGAND FREE ENERGY PREDICTED BY IDOCK:   -5.96 KCAL/MOL
REMARK 924 INTRA-LIGAND FREE ENERGY PREDICTED BY IDOCK:    0.76 KCAL/MOL
REMARK 927      BINDING AFFINITY PREDICTED BY RF-SCORE:    0.00 PKD
ROOT
HETATM    1 CA   UNL     1     -12.582  14.471  68.166  1.00  0.00    -0.488 Ca 
HETATM    2  O   UNL     2     -11.861  13.435  70.675  1.00  0.00    -0.509 OA 
HETATM    3  O   UNL     3     -12.285  13.918  63.419  1.00  0.00    -1.003 OA 
HETATM    4  C   UNL     2     -11.717  11.995  70.448  1.00  0.00    -0.084 C  
HETATM    5  H   UNL     2     -11.995  13.509  71.612  1.00  0.00     0.000 HD 
HETATM    6  H   UNL     3     -12.878  13.915  62.676  1.00  0.00     0.000 HD 
HETATM    7  C   UNL     3     -12.508  12.805  64.274  1.00  0.00    -0.382 C  
ENDROOT
BRANCH   4   8
HETATM    8  C   UNL     2     -11.503  11.878  68.952  1.00  0.00    -0.301 C  
HETATM    9  H   UNL     2     -12.366  10.856  67.532  1.00  0.00     0.000 HD 
HETATM   10  O   UNL     2     -12.500  10.928  68.470  1.00  0.00    -0.375 OA 
BRANCH   8  11
HETATM   11  C   UNL     2     -10.095  11.610  68.471  1.00  0.00    -0.206 C  
HETATM   12  O   UNL     2      -8.269  10.200  69.046  1.00  0.00    -0.112 OA 
HETATM   13  H   UNL     2      -8.456  12.659  68.368  1.00  0.00     0.000 HD 
HETATM   14  O   UNL     2     -10.418   9.563  69.570  1.00  0.00    -0.201 OA 
HETATM   15  O   UNL     2      -9.341  12.827  68.671  1.00  0.00    -0.116 OA 
HETATM   16  C   UNL     2      -9.505  10.349  69.130  1.00  0.00    -0.208 C  
ENDBRANCH   8  11
ENDBRANCH   4   8
BRANCH   7  17
HETATM   17  C   UNL     3     -11.549  12.810  65.475  1.00  0.00    -0.362 C  
HETATM   18  O   UNL     3     -12.042  13.752  66.502  1.00  0.00    -0.414 OA 
HETATM   19  H   UNL     3     -11.449  13.755  67.244  1.00  0.00     0.000 HD 
BRANCH  17  20
HETATM   20  C   UNL     3     -10.060  13.008  65.159  1.00  0.00    -0.221 C  
HETATM   21  C   UNL     3      -9.428  11.596  65.063  1.00  0.00    -0.108 C  
HETATM   22  O   UNL     3      -9.486  13.867  66.185  1.00  0.00    -0.422 OA 
HETATM   23  O   UNL     3     -10.068  10.856  64.230  1.00  0.00    -0.298 OA 
HETATM   24  O   UNL     3      -8.504  11.296  65.846  1.00  0.00    -0.150 OA 
HETATM   25  H   UNL     3      -8.564  13.990  65.990  1.00  0.00     0.000 HD 
ENDBRANCH  17  20
ENDBRANCH   7  17
TORSDOF 4
ENDMDL
MODEL      114
REMARK 921   NORMALIZED FREE ENERGY PREDICTED BY IDOCK:   -3.25 KCAL/MOL
REMARK 922        TOTAL FREE ENERGY PREDICTED BY IDOCK:   -5.19 KCAL/MOL
REMARK 923 INTER-LIGAND FREE ENERGY PREDICTED BY IDOCK:   -4.03 KCAL/MOL
REMARK 924 INTRA-LIGAND FREE ENERGY PREDICTED BY IDOCK:   -1.15 KCAL/MOL
REMARK 927      BINDING AFFINITY PREDICTED BY RF-SCORE:    0.00 PKD
ROOT
HETATM    1 CA   UNL     1      -8.005   5.350  69.467  1.00  0.00    -0.075 Ca 
HETATM    2  O   UNL     2      -6.324   5.869  67.279  1.00  0.00    -0.038 OA 
HETATM    3  O   UNL     3     -11.928   6.702  71.858  1.00  0.00    -0.316 OA 
HETATM    4  C   UNL     2      -7.199   6.499  66.287  1.00  0.00    -0.072 C  
HETATM    5  H   UNL     2      -5.594   5.543  66.767  1.00  0.00     0.000 HD 
HETATM    6  H   UNL     3     -12.713   6.293  72.202  1.00  0.00     0.000 HD 
HETATM    7  C   UNL     3     -11.906   6.682  70.436  1.00  0.00    -0.346 C  
ENDROOT
BRANCH   4   8
HETATM    8  C   UNL     2      -8.365   7.019  67.104  1.00  0.00    -0.121 C  
HETATM    9  H   UNL     2      -9.811   6.170  68.101  1.00  0.00     0.000 HD 
HETATM   10  O   UNL     2      -9.081   5.844  67.589  1.00  0.00    -0.109 OA 
BRANCH   8  11
HETATM   11  C   UNL     2      -9.244   8.072  66.467  1.00  0.00    -0.188 C  
HETATM   12  O   UNL     2      -9.718  10.385  66.747  1.00  0.00    -0.170 OA 
HETATM   13  H   UNL     2     -11.167   8.329  66.286  1.00  0.00     0.000 HD 
HETATM   14  O   UNL     2      -7.688   9.540  67.429  1.00  0.00    -0.095 OA 
HETATM   15  O   UNL     2     -10.615   7.668  66.686  1.00  0.00    -0.274 OA 
HETATM   16  C   UNL     2      -8.882   9.485  66.964  1.00  0.00    -0.127 C  
ENDBRANCH   8  11
ENDBRANCH   4   8
BRANCH   7  17
HETATM   17  C   UNL     3     -10.636   7.345  69.879  1.00  0.00    -0.236 C  
HETATM   18  O   UNL     3      -9.441   6.701  70.464  1.00  0.00    -0.165 OA 
HETATM   19  H   UNL     3      -8.656   7.110  70.120  1.00  0.00     0.000 HD 
BRANCH  17  20
HETATM   20  C   UNL     3     -10.575   8.877  69.953  1.00  0.00    -0.221 C  
HETATM   21  C   UNL     3     -10.849   9.267  71.428  1.00  0.00    -0.364 C  
HETATM   22  O   UNL     3     -11.526   9.418  68.992  1.00  0.00    -0.438 OA 
HETATM   23  O   UNL     3     -10.052   8.651  72.226  1.00  0.00    -0.311 OA 
HETATM   24  O   UNL     3     -11.831   9.991  71.688  1.00  0.00    -0.365 OA 
HETATM   25  H   UNL     3     -11.489  10.367  69.037  1.00  0.00     0.000 HD 
ENDBRANCH  17  20
ENDBRANCH   7  17
TORSDOF 4
ENDMDL
MODEL      115
REMARK 921   NORMALIZED FREE ENERGY PREDICTED BY IDOCK:   -3.24 KCAL/MOL
REMARK 922        TOTAL FREE ENERGY PREDICTED BY IDOCK:   -5.18 KCAL/MOL
REMARK 923 INTER-LIGAND FREE ENERGY PREDICTED BY IDOCK:   -5.08 KCAL/MOL
REMARK 924 INTRA-LIGAND FREE ENERGY PREDICTED BY IDOCK:   -0.09 KCAL/MOL
REMARK 927      BINDING AFFINITY PREDICTED BY RF-SCORE:    0.00 PKD
ROOT
HETATM    1 CA   UNL     1     -11.771   8.697  67.558  1.00  0.00    -0.445 Ca 
HETATM    2  O   UNL     2      -9.542   8.523  65.859  1.00  0.00    -0.399 OA 
HETATM    3  O   UNL     3     -13.290   8.878  72.095  1.00  0.00    -0.378 OA 
HETATM    4  C   UNL     2      -8.452   9.139  66.621  1.00  0.00    -0.123 C  
HETATM    5  H   UNL     2      -9.248   8.571  64.958  1.00  0.00     0.000 HD 
HETATM    6  H   UNL     3     -13.877   9.413  72.616  1.00  0.00     0.000 HD 
HETATM    7  C   UNL     3     -12.145   9.608  71.676  1.00  0.00    -0.402 C  
ENDROOT
BRANCH   4   8
HETATM    8  C   UNL     2      -8.922   9.063  68.060  1.00  0.00    -0.132 C  
HETATM    9  H   UNL     2     -10.286   8.023  68.991  1.00  0.00     0.000 HD 
HETATM   10  O   UNL     2      -9.992   8.071  68.090  1.00  0.00    -0.172 OA 
BRANCH   8  11
HETATM   11  C   UNL     2      -9.254  10.366  68.752  1.00  0.00    -0.172 C  
HETATM   12  O   UNL     2     -10.178  12.483  68.185  1.00  0.00    -0.217 OA 
HETATM   13  H   UNL     2      -8.215  11.747  69.650  1.00  0.00     0.000 HD 
HETATM   14  O   UNL     2     -10.711  10.626  66.932  1.00  0.00    -0.257 OA 
HETATM   15  O   UNL     2      -8.006  10.929  69.215  1.00  0.00    -0.138 OA 
HETATM   16  C   UNL     2     -10.100  11.283  67.848  1.00  0.00    -0.178 C  
ENDBRANCH   8  11
ENDBRANCH   4   8
BRANCH   7  17
HETATM   17  C   UNL     3     -11.195   8.741  70.834  1.00  0.00    -0.270 C  
HETATM   18  O   UNL     3     -11.981   7.850  69.956  1.00  0.00    -0.350 OA 
HETATM   19  H   UNL     3     -11.394   7.314  69.435  1.00  0.00     0.000 HD 
BRANCH  17  20
HETATM   20  C   UNL     3     -10.094   7.994  71.599  1.00  0.00    -0.184 C  
HETATM   21  C   UNL     3     -10.800   7.141  72.684  1.00  0.00    -0.279 C  
HETATM   22  O   UNL     3      -9.147   8.974  72.112  1.00  0.00    -0.372 OA 
HETATM   23  O   UNL     3     -11.709   6.394  72.169  1.00  0.00    -0.303 OA 
HETATM   24  O   UNL     3     -10.524   7.345  73.884  1.00  0.00    -0.314 OA 
HETATM   25  H   UNL     3      -8.466   8.512  72.586  1.00  0.00     0.000 HD 
ENDBRANCH  17  20
ENDBRANCH   7  17
TORSDOF 4
ENDMDL
MODEL      116
REMARK 921   NORMALIZED FREE ENERGY PREDICTED BY IDOCK:   -3.22 KCAL/MOL
REMARK 922        TOTAL FREE ENERGY PREDICTED BY IDOCK:   -5.15 KCAL/MOL
REMARK 923 INTER-LIGAND FREE ENERGY PREDICTED BY IDOCK:   -4.03 KCAL/MOL
REMARK 924 INTRA-LIGAND FREE ENERGY PREDICTED BY IDOCK:   -1.13 KCAL/MOL
REMARK 927      BINDING AFFINITY PREDICTED BY RF-SCORE:    0.00 PKD
ROOT
HETATM    1 CA   UNL     1      -7.699   7.812  66.950  1.00  0.00    -0.085 Ca 
HETATM    2  O   UNL     2      -7.177  10.014  65.287  1.00  0.00    -0.124 OA 
HETATM    3  O   UNL     3     -10.468   6.047  70.435  1.00  0.00    -0.213 OA 
HETATM    4  C   UNL     2      -8.476  10.677  65.140  1.00  0.00    -0.144 C  
HETATM    5  H   UNL     2      -6.676  10.322  64.541  1.00  0.00     0.000 HD 
HETATM    6  H   UNL     3     -10.960   5.252  70.602  1.00  0.00     0.000 HD 
HETATM    7  C   UNL     3     -11.026   6.794  69.362  1.00  0.00    -0.276 C  
ENDROOT
BRANCH   4   8
HETATM    8  C   UNL     2      -9.276  10.185  66.330  1.00  0.00    -0.157 C  
HETATM    9  H   UNL     2     -10.232   8.533  66.735  1.00  0.00     0.000 HD 
HETATM   10  O   UNL     2      -9.731   8.841  65.989  1.00  0.00    -0.254 OA 
BRANCH   8  11
HETATM   11  C   UNL     2     -10.357  11.097  66.865  1.00  0.00    -0.231 C  
HETATM   12  O   UNL     2     -10.726  12.474  68.768  1.00  0.00    -0.228 OA 
HETATM   13  H   UNL     2     -12.197  10.848  67.452  1.00  0.00     0.000 HD 
HETATM   14  O   UNL     2      -8.576  12.014  68.085  1.00  0.00    -0.160 OA 
HETATM   15  O   UNL     2     -11.519  10.275  67.116  1.00  0.00    -0.181 OA 
HETATM   16  C   UNL     2      -9.855  11.921  68.066  1.00  0.00    -0.190 C  
ENDBRANCH   8  11
ENDBRANCH   4   8
BRANCH   7  17
HETATM   17  C   UNL     3     -10.231   8.081  69.091  1.00  0.00    -0.217 C  
HETATM   18  O   UNL     3      -8.806   7.750  68.881  1.00  0.00    -0.135 OA 
HETATM   19  H   UNL     3      -8.314   8.545  68.714  1.00  0.00     0.000 HD 
BRANCH  17  20
HETATM   20  C   UNL     3     -10.429   9.230  70.090  1.00  0.00    -0.230 C  
HETATM   21  C   UNL     3     -10.048   8.680  71.488  1.00  0.00    -0.274 C  
HETATM   22  O   UNL     3     -11.800   9.706  69.972  1.00  0.00    -0.446 OA 
HETATM   23  O   UNL     3      -8.872   8.161  71.479  1.00  0.00    -0.132 OA 
HETATM   24  O   UNL     3     -10.911   8.678  72.389  1.00  0.00    -0.353 OA 
HETATM   25  H   UNL     3     -11.923  10.417  70.591  1.00  0.00     0.000 HD 
ENDBRANCH  17  20
ENDBRANCH   7  17
TORSDOF 4
ENDMDL
MODEL      117
REMARK 921   NORMALIZED FREE ENERGY PREDICTED BY IDOCK:   -3.21 KCAL/MOL
REMARK 922        TOTAL FREE ENERGY PREDICTED BY IDOCK:   -5.14 KCAL/MOL
REMARK 923 INTER-LIGAND FREE ENERGY PREDICTED BY IDOCK:   -4.99 KCAL/MOL
REMARK 924 INTRA-LIGAND FREE ENERGY PREDICTED BY IDOCK:   -0.15 KCAL/MOL
REMARK 927      BINDING AFFINITY PREDICTED BY RF-SCORE:    0.00 PKD
ROOT
HETATM    1 CA   UNL     1     -11.081  11.093  65.073  1.00  0.00    -0.283 Ca 
HETATM    2  O   UNL     2     -13.021  13.071  64.617  1.00  0.00    -0.720 OA 
HETATM    3  O   UNL     3      -7.143   9.896  67.521  1.00  0.00    -0.086 OA 
HETATM    4  C   UNL     2     -13.098  13.808  65.881  1.00  0.00     0.039 C  
HETATM    5  H   UNL     2     -13.846  13.265  64.188  1.00  0.00     0.000 HD 
HETATM    6  H   UNL     3      -6.838   9.160  68.037  1.00  0.00     0.000 HD 
HETATM    7  C   UNL     3      -8.224  10.569  68.154  1.00  0.00    -0.114 C  
ENDROOT
BRANCH   4   8
HETATM    8  C   UNL     2     -11.781  13.498  66.566  1.00  0.00    -0.371 C  
HETATM    9  H   UNL     2     -11.156  13.589  68.412  1.00  0.00     0.000 HD 
HETATM   10  O   UNL     2     -11.980  13.783  67.983  1.00  0.00    -0.361 OA 
BRANCH   8  11
HETATM   11  C   UNL     2     -10.530  14.106  65.972  1.00  0.00    -0.304 C  
HETATM   12  O   UNL     2      -9.731  16.260  65.358  1.00  0.00    -0.473 OA 
HETATM   13  H   UNL     2      -9.606  13.952  64.265  1.00  0.00     0.000 HD 
HETATM   14  O   UNL     2     -11.345  16.057  66.988  1.00  0.00    -0.059 OA 
HETATM   15  O   UNL     2     -10.392  13.570  64.637  1.00  0.00    -0.408 OA 
HETATM   16  C   UNL     2     -10.550  15.644  66.071  1.00  0.00    -0.328 C  
ENDBRANCH   8  11
ENDBRANCH   4   8
BRANCH   7  17
HETATM   17  C   UNL     3      -8.719  11.761  67.319  1.00  0.00    -0.163 C  
HETATM   18  O   UNL     3      -8.357  11.559  65.900  1.00  0.00    -0.363 OA 
HETATM   19  H   UNL     3      -8.662  12.295  65.384  1.00  0.00     0.000 HD 
BRANCH  17  20
HETATM   20  C   UNL     3      -8.342  13.157  67.831  1.00  0.00    -0.170 C  
HETATM   21  C   UNL     3      -6.806  13.158  68.046  1.00  0.00    -0.118 C  
HETATM   22  O   UNL     3      -9.126  13.433  69.027  1.00  0.00    -0.366 OA 
HETATM   23  O   UNL     3      -6.189  12.781  66.983  1.00  0.00    -0.252 OA 
HETATM   24  O   UNL     3      -6.358  13.383  69.188  1.00  0.00    -0.091 OA 
HETATM   25  H   UNL     3      -8.892  14.297  69.344  1.00  0.00     0.000 HD 
ENDBRANCH  17  20
ENDBRANCH   7  17
TORSDOF 4
ENDMDL
MODEL      118
REMARK 921   NORMALIZED FREE ENERGY PREDICTED BY IDOCK:   -3.21 KCAL/MOL
REMARK 922        TOTAL FREE ENERGY PREDICTED BY IDOCK:   -5.14 KCAL/MOL
REMARK 923 INTER-LIGAND FREE ENERGY PREDICTED BY IDOCK:   -4.58 KCAL/MOL
REMARK 924 INTRA-LIGAND FREE ENERGY PREDICTED BY IDOCK:   -0.55 KCAL/MOL
REMARK 927      BINDING AFFINITY PREDICTED BY RF-SCORE:    0.00 PKD
ROOT
HETATM    1 CA   UNL     1      -7.215   8.186  70.032  1.00  0.00    -0.048 Ca 
HETATM    2  O   UNL     2      -7.542   7.878  72.804  1.00  0.00    -0.097 OA 
HETATM    3  O   UNL     3      -9.379   8.155  65.761  1.00  0.00    -0.388 OA 
HETATM    4  C   UNL     2      -8.929   8.279  73.056  1.00  0.00    -0.241 C  
HETATM    5  H   UNL     2      -7.120   7.967  73.650  1.00  0.00     0.000 HD 
HETATM    6  H   UNL     3      -9.419   8.713  64.993  1.00  0.00     0.000 HD 
HETATM    7  C   UNL     3      -9.991   8.767  66.888  1.00  0.00    -0.257 C  
ENDROOT
BRANCH   4   8
HETATM    8  C   UNL     2      -9.603   8.136  71.706  1.00  0.00    -0.188 C  
HETATM    9  H   UNL     2      -9.299   8.921  69.946  1.00  0.00     0.000 HD 
HETATM   10  O   UNL     2      -8.876   9.011  70.791  1.00  0.00    -0.194 OA 
BRANCH   8  11
HETATM   11  C   UNL     2     -11.107   8.289  71.661  1.00  0.00    -0.265 C  
HETATM   12  O   UNL     2     -13.008   6.938  71.197  1.00  0.00    -0.336 OA 
HETATM   13  H   UNL     2     -12.349   9.332  70.582  1.00  0.00     0.000 HD 
HETATM   14  O   UNL     2     -11.062   5.961  71.945  1.00  0.00    -0.257 OA 
HETATM   15  O   UNL     2     -11.404   9.236  70.610  1.00  0.00    -0.255 OA 
HETATM   16  C   UNL     2     -11.808   6.922  71.541  1.00  0.00    -0.324 C  
ENDBRANCH   8  11
ENDBRANCH   4   8
BRANCH   7  17
HETATM   17  C   UNL     3      -9.925   7.864  68.130  1.00  0.00    -0.180 C  
HETATM   18  O   UNL     3      -8.519   7.511  68.416  1.00  0.00    -0.124 OA 
HETATM   19  H   UNL     3      -8.478   6.953  69.183  1.00  0.00     0.000 HD 
BRANCH  17  20
HETATM   20  C   UNL     3     -10.852   6.640  68.134  1.00  0.00    -0.263 C  
HETATM   21  C   UNL     3      -9.959   5.400  68.398  1.00  0.00    -0.161 C  
HETATM   22  O   UNL     3     -11.578   6.613  66.872  1.00  0.00    -0.726 OA 
HETATM   23  O   UNL     3      -9.254   5.554  69.462  1.00  0.00    -0.117 OA 
HETATM   24  O   UNL     3      -9.919   4.494  67.542  1.00  0.00    -0.163 OA 
HETATM   25  H   UNL     3     -12.152   5.855  66.874  1.00  0.00     0.000 HD 
ENDBRANCH  17  20
ENDBRANCH   7  17
TORSDOF 4
ENDMDL
MODEL      119
REMARK 921   NORMALIZED FREE ENERGY PREDICTED BY IDOCK:   -3.19 KCAL/MOL
REMARK 922        TOTAL FREE ENERGY PREDICTED BY IDOCK:   -5.11 KCAL/MOL
REMARK 923 INTER-LIGAND FREE ENERGY PREDICTED BY IDOCK:   -4.87 KCAL/MOL
REMARK 924 INTRA-LIGAND FREE ENERGY PREDICTED BY IDOCK:   -0.24 KCAL/MOL
REMARK 927      BINDING AFFINITY PREDICTED BY RF-SCORE:    0.00 PKD
ROOT
HETATM    1 CA   UNL     1     -11.647   7.603  66.784  1.00  0.00    -0.406 Ca 
HETATM    2  O   UNL     2     -11.354   5.026  65.709  1.00  0.00    -0.818 OA 
HETATM    3  O   UNL     3     -10.408  10.586  70.320  1.00  0.00    -0.434 OA 
HETATM    4  C   UNL     2     -10.023   4.597  66.145  1.00  0.00    -0.247 C  
HETATM    5  H   UNL     2     -11.541   4.471  64.961  1.00  0.00     0.000 HD 
HETATM    6  H   UNL     3     -10.083  11.474  70.404  1.00  0.00     0.000 HD 
HETATM    7  C   UNL     3      -9.448   9.731  69.711  1.00  0.00    -0.228 C  
ENDROOT
BRANCH   4   8
HETATM    8  C   UNL     2      -9.724   5.482  67.339  1.00  0.00    -0.135 C  
HETATM    9  H   UNL     2      -9.266   7.367  67.552  1.00  0.00     0.000 HD 
HETATM   10  O   UNL     2      -9.453   6.812  66.804  1.00  0.00    -0.152 OA 
BRANCH   8  11
HETATM   11  C   UNL     2      -8.701   4.984  68.335  1.00  0.00    -0.101 C  
HETATM   12  O   UNL     2      -6.505   4.073  68.307  1.00  0.00    -0.036 OA 
HETATM   13  H   UNL     2      -8.632   3.517  69.614  1.00  0.00     0.000 HD 
HETATM   14  O   UNL     2      -7.206   5.429  66.583  1.00  0.00    -0.071 OA 
HETATM   15  O   UNL     2      -9.274   3.829  68.988  1.00  0.00    -0.129 OA 
HETATM   16  C   UNL     2      -7.331   4.757  67.668  1.00  0.00    -0.074 C  
ENDBRANCH   8  11
ENDBRANCH   4   8
BRANCH   7  17
HETATM   17  C   UNL     3      -9.973   8.293  69.575  1.00  0.00    -0.187 C  
HETATM   18  O   UNL     3     -11.252   8.298  68.835  1.00  0.00    -0.381 OA 
HETATM   19  H   UNL     3     -11.577   7.409  68.751  1.00  0.00     0.000 HD 
BRANCH  17  20
HETATM   20  C   UNL     3     -10.042   7.467  70.867  1.00  0.00    -0.188 C  
HETATM   21  C   UNL     3     -11.432   6.779  70.887  1.00  0.00    -0.334 C  
HETATM   22  O   UNL     3      -9.784   8.355  71.991  1.00  0.00    -0.226 OA 
HETATM   23  O   UNL     3     -11.637   6.117  69.805  1.00  0.00    -0.405 OA 
HETATM   24  O   UNL     3     -12.211   7.024  71.829  1.00  0.00    -0.318 OA 
HETATM   25  H   UNL     3      -9.827   7.844  72.792  1.00  0.00     0.000 HD 
ENDBRANCH  17  20
ENDBRANCH   7  17
TORSDOF 4
ENDMDL
MODEL      120
REMARK 921   NORMALIZED FREE ENERGY PREDICTED BY IDOCK:   -3.17 KCAL/MOL
REMARK 922        TOTAL FREE ENERGY PREDICTED BY IDOCK:   -5.09 KCAL/MOL
REMARK 923 INTER-LIGAND FREE ENERGY PREDICTED BY IDOCK:   -4.33 KCAL/MOL
REMARK 924 INTRA-LIGAND FREE ENERGY PREDICTED BY IDOCK:   -0.76 KCAL/MOL
REMARK 927      BINDING AFFINITY PREDICTED BY RF-SCORE:    0.00 PKD
ROOT
HETATM    1 CA   UNL     1     -11.899   9.351  67.931  1.00  0.00    -0.530 Ca 
HETATM    2  O   UNL     2     -11.677   6.954  69.377  1.00  0.00    -0.585 OA 
HETATM    3  O   UNL     3      -9.626  12.544  65.180  1.00  0.00    -0.462 OA 
HETATM    4  C   UNL     2     -10.621   6.208  68.688  1.00  0.00    -0.270 C  
HETATM    5  H   UNL     2     -12.158   6.287  69.852  1.00  0.00     0.000 HD 
HETATM    6  H   UNL     3      -9.773  12.983  64.351  1.00  0.00     0.000 HD 
HETATM    7  C   UNL     3      -9.421  11.147  65.005  1.00  0.00    -0.227 C  
ENDROOT
BRANCH   4   8
HETATM    8  C   UNL     2      -9.854   7.273  67.930  1.00  0.00    -0.144 C  
HETATM    9  H   UNL     2     -10.270   8.426  66.412  1.00  0.00     0.000 HD 
HETATM   10  O   UNL     2     -10.751   7.758  66.887  1.00  0.00    -0.345 OA 
BRANCH   8  11
HETATM   11  C   UNL     2      -8.464   6.918  67.449  1.00  0.00    -0.121 C  
HETATM   12  O   UNL     2      -6.223   7.592  67.869  1.00  0.00    -0.045 OA 
HETATM   13  H   UNL     2      -7.531   7.032  65.744  1.00  0.00     0.000 HD 
HETATM   14  O   UNL     2      -7.827   7.870  69.497  1.00  0.00    -0.105 OA 
HETATM   15  O   UNL     2      -8.404   7.255  66.045  1.00  0.00    -0.126 OA 
HETATM   16  C   UNL     2      -7.381   7.564  68.334  1.00  0.00    -0.099 C  
ENDBRANCH   8  11
ENDBRANCH   4   8
BRANCH   7  17
HETATM   17  C   UNL     3      -9.183  10.436  66.346  1.00  0.00    -0.161 C  
HETATM   18  O   UNL     3     -10.328  10.678  67.249  1.00  0.00    -0.198 OA 
HETATM   19  H   UNL     3     -10.181  10.238  68.077  1.00  0.00     0.000 HD 
BRANCH  17  20
HETATM   20  C   UNL     3      -7.831  10.695  67.026  1.00  0.00    -0.117 C  
HETATM   21  C   UNL     3      -8.133  11.411  68.368  1.00  0.00    -0.145 C  
HETATM   22  O   UNL     3      -6.994  11.451  66.105  1.00  0.00    -0.359 OA 
HETATM   23  O   UNL     3      -8.977  10.744  69.070  1.00  0.00    -0.169 OA 
HETATM   24  O   UNL     3      -7.659  12.548  68.563  1.00  0.00    -0.123 OA 
HETATM   25  H   UNL     3      -6.158  11.612  66.526  1.00  0.00     0.000 HD 
ENDBRANCH  17  20
ENDBRANCH   7  17
TORSDOF 4
ENDMDL
MODEL      121
REMARK 921   NORMALIZED FREE ENERGY PREDICTED BY IDOCK:   -3.15 KCAL/MOL
REMARK 922        TOTAL FREE ENERGY PREDICTED BY IDOCK:   -5.07 KCAL/MOL
REMARK 923 INTER-LIGAND FREE ENERGY PREDICTED BY IDOCK:   -5.59 KCAL/MOL
REMARK 924 INTRA-LIGAND FREE ENERGY PREDICTED BY IDOCK:    0.52 KCAL/MOL
REMARK 927      BINDING AFFINITY PREDICTED BY RF-SCORE:    0.00 PKD
ROOT
HETATM    1 CA   UNL     1     -12.249  10.083  68.943  1.00  0.00    -0.480 Ca 
HETATM    2  O   UNL     2     -10.446   9.486  71.010  1.00  0.00    -0.300 OA 
HETATM    3  O   UNL     3     -12.914  12.424  64.818  1.00  0.00    -0.786 OA 
HETATM    4  C   UNL     2      -9.126   9.565  70.378  1.00  0.00    -0.246 C  
HETATM    5  H   UNL     2     -10.299   8.953  71.782  1.00  0.00     0.000 HD 
HETATM    6  H   UNL     3     -13.251  12.232  63.952  1.00  0.00     0.000 HD 
HETATM    7  C   UNL     3     -11.703  11.725  65.078  1.00  0.00    -0.105 C  
ENDROOT
BRANCH   4   8
HETATM    8  C   UNL     2      -9.359  10.415  69.146  1.00  0.00    -0.199 C  
HETATM    9  H   UNL     2     -10.726  11.706  68.625  1.00  0.00     0.000 HD 
HETATM   10  O   UNL     2     -10.580  11.173  69.397  1.00  0.00    -0.208 OA 
BRANCH   8  11
HETATM   11  C   UNL     2      -9.317   9.719  67.804  1.00  0.00    -0.134 C  
HETATM   12  O   UNL     2      -9.753   7.555  66.920  1.00  0.00    -0.180 OA 
HETATM   13  H   UNL     2      -7.911   9.285  66.526  1.00  0.00     0.000 HD 
HETATM   14  O   UNL     2     -10.809   8.241  68.848  1.00  0.00    -0.116 OA 
HETATM   15  O   UNL     2      -7.938   9.722  67.369  1.00  0.00    -0.102 OA 
HETATM   16  C   UNL     2      -9.989   8.334  67.866  1.00  0.00    -0.183 C  
ENDBRANCH   8  11
ENDBRANCH   4   8
BRANCH   7  17
HETATM   17  C   UNL     3     -11.157  12.036  66.481  1.00  0.00    -0.314 C  
HETATM   18  O   UNL     3     -12.261  12.000  67.464  1.00  0.00    -0.490 OA 
HETATM   19  H   UNL     3     -11.923  12.193  68.330  1.00  0.00     0.000 HD 
BRANCH  17  20
HETATM   20  C   UNL     3     -10.291  13.297  66.612  1.00  0.00    -0.274 C  
HETATM   21  C   UNL     3     -11.262  14.493  66.785  1.00  0.00    -0.334 C  
HETATM   22  O   UNL     3      -9.423  13.378  65.446  1.00  0.00    -0.489 OA 
HETATM   23  O   UNL     3     -12.080  14.290  67.754  1.00  0.00    -0.363 OA 
HETATM   24  O   UNL     3     -11.239  15.413  65.943  1.00  0.00    -0.290 OA 
HETATM   25  H   UNL     3      -8.886  14.158  65.527  1.00  0.00     0.000 HD 
ENDBRANCH  17  20
ENDBRANCH   7  17
TORSDOF 4
ENDMDL
MODEL      122
REMARK 921   NORMALIZED FREE ENERGY PREDICTED BY IDOCK:   -3.14 KCAL/MOL
REMARK 922        TOTAL FREE ENERGY PREDICTED BY IDOCK:   -5.05 KCAL/MOL
REMARK 923 INTER-LIGAND FREE ENERGY PREDICTED BY IDOCK:   -4.07 KCAL/MOL
REMARK 924 INTRA-LIGAND FREE ENERGY PREDICTED BY IDOCK:   -0.98 KCAL/MOL
REMARK 927      BINDING AFFINITY PREDICTED BY RF-SCORE:    0.00 PKD
ROOT
HETATM    1 CA   UNL     1     -10.665  11.895  69.872  1.00  0.00    -0.380 Ca 
HETATM    2  O   UNL     2     -10.158  12.770  67.252  1.00  0.00    -0.222 OA 
HETATM    3  O   UNL     3     -10.422   8.227  72.940  1.00  0.00    -0.314 OA 
HETATM    4  C   UNL     2      -9.031  11.948  66.803  1.00  0.00    -0.196 C  
HETATM    5  H   UNL     2     -10.134  13.526  66.677  1.00  0.00     0.000 HD 
HETATM    6  H   UNL     3     -10.105   8.073  73.822  1.00  0.00     0.000 HD 
HETATM    7  C   UNL     3      -9.356   8.502  72.040  1.00  0.00    -0.283 C  
ENDROOT
BRANCH   4   8
HETATM    8  C   UNL     2      -9.068  10.742  67.721  1.00  0.00    -0.151 C  
HETATM    9  H   UNL     2      -8.555  10.432  69.578  1.00  0.00     0.000 HD 
HETATM   10  O   UNL     2      -8.532  11.188  69.003  1.00  0.00    -0.131 OA 
BRANCH   8  11
HETATM   11  C   UNL     2      -8.467   9.455  67.202  1.00  0.00    -0.128 C  
HETATM   12  O   UNL     2      -9.224   7.348  66.400  1.00  0.00    -0.163 OA 
HETATM   13  H   UNL     2      -7.328   8.068  67.959  1.00  0.00     0.000 HD 
HETATM   14  O   UNL     2     -10.587   9.196  66.232  1.00  0.00    -0.101 OA 
HETATM   15  O   UNL     2      -7.706   8.876  68.285  1.00  0.00    -0.094 OA 
HETATM   16  C   UNL     2      -9.543   8.541  66.584  1.00  0.00    -0.227 C  
ENDBRANCH   8  11
ENDBRANCH   4   8
BRANCH   7  17
HETATM   17  C   UNL     3      -9.867   8.751  70.613  1.00  0.00    -0.194 C  
HETATM   18  O   UNL     3     -10.952   9.755  70.641  1.00  0.00    -0.282 OA 
HETATM   19  H   UNL     3     -11.268   9.909  69.758  1.00  0.00     0.000 HD 
BRANCH  17  20
HETATM   20  C   UNL     3     -10.236   7.507  69.792  1.00  0.00    -0.211 C  
HETATM   21  C   UNL     3     -11.253   6.697  70.636  1.00  0.00    -0.317 C  
HETATM   22  O   UNL     3      -9.008   6.796  69.466  1.00  0.00    -0.139 OA 
HETATM   23  O   UNL     3     -12.247   7.429  70.994  1.00  0.00    -0.315 OA 
HETATM   24  O   UNL     3     -10.963   5.531  70.972  1.00  0.00    -0.222 OA 
HETATM   25  H   UNL     3      -9.236   6.025  68.958  1.00  0.00     0.000 HD 
ENDBRANCH  17  20
ENDBRANCH   7  17
TORSDOF 4
ENDMDL
MODEL      123
REMARK 921   NORMALIZED FREE ENERGY PREDICTED BY IDOCK:   -3.14 KCAL/MOL
REMARK 922        TOTAL FREE ENERGY PREDICTED BY IDOCK:   -5.05 KCAL/MOL
REMARK 923 INTER-LIGAND FREE ENERGY PREDICTED BY IDOCK:   -5.63 KCAL/MOL
REMARK 924 INTRA-LIGAND FREE ENERGY PREDICTED BY IDOCK:    0.59 KCAL/MOL
REMARK 927      BINDING AFFINITY PREDICTED BY RF-SCORE:    0.00 PKD
ROOT
HETATM    1 CA   UNL     1     -11.010  13.039  70.325  1.00  0.00    -0.459 Ca 
HETATM    2  O   UNL     2     -12.415  14.642  68.498  1.00  0.00    -0.587 OA 
HETATM    3  O   UNL     3      -8.606   8.949  70.977  1.00  0.00    -0.172 OA 
HETATM    4  C   UNL     2     -11.830  14.310  67.195  1.00  0.00    -0.425 C  
HETATM    5  H   UNL     2     -12.817  15.491  68.359  1.00  0.00     0.000 HD 
HETATM    6  H   UNL     3      -7.777   8.677  71.351  1.00  0.00     0.000 HD 
HETATM    7  C   UNL     3      -8.422   9.728  69.802  1.00  0.00    -0.193 C  
ENDROOT
BRANCH   4   8
HETATM    8  C   UNL     2     -11.188  12.955  67.416  1.00  0.00    -0.291 C  
HETATM    9  H   UNL     2      -9.372  12.361  67.810  1.00  0.00     0.000 HD 
HETATM   10  O   UNL     2      -9.774  13.210  67.672  1.00  0.00    -0.203 OA 
BRANCH   8  11
HETATM   11  C   UNL     2     -11.457  11.883  66.384  1.00  0.00    -0.304 C  
HETATM   12  O   UNL     2     -10.331  10.872  64.550  1.00  0.00    -0.325 OA 
HETATM   13  H   UNL     2     -12.732  11.670  64.927  1.00  0.00     0.000 HD 
HETATM   14  O   UNL     2      -9.116  11.822  66.259  1.00  0.00    -0.214 OA 
HETATM   15  O   UNL     2     -12.563  12.343  65.574  1.00  0.00    -0.616 OA 
HETATM   16  C   UNL     2     -10.178  11.512  65.610  1.00  0.00    -0.248 C  
ENDBRANCH   8  11
ENDBRANCH   4   8
BRANCH   7  17
HETATM   17  C   UNL     3      -9.765  10.168  69.196  1.00  0.00    -0.215 C  
HETATM   18  O   UNL     3     -10.592  10.816  70.236  1.00  0.00    -0.438 OA 
HETATM   19  H   UNL     3     -11.421  11.087  69.861  1.00  0.00     0.000 HD 
BRANCH  17  20
HETATM   20  C   UNL     3     -10.538   9.104  68.405  1.00  0.00    -0.172 C  
HETATM   21  C   UNL     3     -10.688   7.873  69.335  1.00  0.00    -0.168 C  
HETATM   22  O   UNL     3      -9.822   8.848  67.163  1.00  0.00    -0.175 OA 
HETATM   23  O   UNL     3     -11.211   8.203  70.461  1.00  0.00    -0.264 OA 
HETATM   24  O   UNL     3     -10.200   6.783  68.974  1.00  0.00    -0.164 OA 
HETATM   25  H   UNL     3     -10.301   8.190  66.673  1.00  0.00     0.000 HD 
ENDBRANCH  17  20
ENDBRANCH   7  17
TORSDOF 4
ENDMDL
MODEL      124
REMARK 921   NORMALIZED FREE ENERGY PREDICTED BY IDOCK:   -3.13 KCAL/MOL
REMARK 922        TOTAL FREE ENERGY PREDICTED BY IDOCK:   -5.05 KCAL/MOL
REMARK 923 INTER-LIGAND FREE ENERGY PREDICTED BY IDOCK:   -4.74 KCAL/MOL
REMARK 924 INTRA-LIGAND FREE ENERGY PREDICTED BY IDOCK:   -0.31 KCAL/MOL
REMARK 927      BINDING AFFINITY PREDICTED BY RF-SCORE:    0.00 PKD
ROOT
HETATM    1 CA   UNL     1     -10.046   6.277  68.047  1.00  0.00    -0.127 Ca 
HETATM    2  O   UNL     2      -9.523   5.035  70.511  1.00  0.00    -0.152 OA 
HETATM    3  O   UNL     3     -10.432  10.440  65.713  1.00  0.00    -0.210 OA 
HETATM    4  C   UNL     2      -8.639   5.969  71.211  1.00  0.00    -0.129 C  
HETATM    5  H   UNL     2      -9.368   4.204  70.944  1.00  0.00     0.000 HD 
HETATM    6  H   UNL     3     -10.103  10.824  64.909  1.00  0.00     0.000 HD 
HETATM    7  C   UNL     3      -9.391  10.222  66.656  1.00  0.00    -0.161 C  
ENDROOT
BRANCH   4   8
HETATM    8  C   UNL     2      -8.885   7.296  70.521  1.00  0.00    -0.153 C  
HETATM    9  H   UNL     2      -7.869   8.954  70.360  1.00  0.00     0.000 HD 
HETATM   10  O   UNL     2      -7.714   8.123  70.793  1.00  0.00    -0.074 OA 
BRANCH   8  11
HETATM   11  C   UNL     2     -10.210   7.977  70.779  1.00  0.00    -0.194 C  
HETATM   12  O   UNL     2     -11.619   8.460  72.633  1.00  0.00    -0.385 OA 
HETATM   13  H   UNL     2     -12.054   7.638  70.251  1.00  0.00     0.000 HD 
HETATM   14  O   UNL     2      -9.357   8.173  72.955  1.00  0.00    -0.238 OA 
HETATM   15  O   UNL     2     -11.222   7.209  70.089  1.00  0.00    -0.272 OA 
HETATM   16  C   UNL     2     -10.451   8.189  72.286  1.00  0.00    -0.302 C  
ENDBRANCH   8  11
ENDBRANCH   4   8
BRANCH   7  17
HETATM   17  C   UNL     3      -9.923   9.600  67.957  1.00  0.00    -0.160 C  
HETATM   18  O   UNL     3     -11.140   8.812  67.670  1.00  0.00    -0.480 OA 
HETATM   19  H   UNL     3     -11.469   8.428  68.474  1.00  0.00     0.000 HD 
BRANCH  17  20
HETATM   20  C   UNL     3     -10.106  10.554  69.145  1.00  0.00    -0.224 C  
HETATM   21  C   UNL     3     -10.966  11.741  68.641  1.00  0.00    -0.224 C  
HETATM   22  O   UNL     3      -8.787  10.923  69.641  1.00  0.00    -0.373 OA 
HETATM   23  O   UNL     3     -12.057  11.327  68.102  1.00  0.00    -0.635 OA 
HETATM   24  O   UNL     3     -10.490  12.893  68.688  1.00  0.00    -0.245 OA 
HETATM   25  H   UNL     3      -8.900  11.514  70.377  1.00  0.00     0.000 HD 
ENDBRANCH  17  20
ENDBRANCH   7  17
TORSDOF 4
ENDMDL
MODEL      125
REMARK 921   NORMALIZED FREE ENERGY PREDICTED BY IDOCK:   -3.11 KCAL/MOL
REMARK 922        TOTAL FREE ENERGY PREDICTED BY IDOCK:   -5.02 KCAL/MOL
REMARK 923 INTER-LIGAND FREE ENERGY PREDICTED BY IDOCK:   -3.84 KCAL/MOL
REMARK 924 INTRA-LIGAND FREE ENERGY PREDICTED BY IDOCK:   -1.18 KCAL/MOL
REMARK 927      BINDING AFFINITY PREDICTED BY RF-SCORE:    0.00 PKD
ROOT
HETATM    1 CA   UNL     1     -10.660   4.134  69.801  1.00  0.00    -0.210 Ca 
HETATM    2  O   UNL     2      -9.612   3.706  67.231  1.00  0.00    -0.209 OA 
HETATM    3  O   UNL     3     -11.263   7.280  73.360  1.00  0.00    -0.584 OA 
HETATM    4  C   UNL     2      -9.652   5.026  66.595  1.00  0.00    -0.158 C  
HETATM    5  H   UNL     2      -9.570   3.100  66.500  1.00  0.00     0.000 HD 
HETATM    6  H   UNL     3     -11.975   7.588  73.907  1.00  0.00     0.000 HD 
HETATM    7  C   UNL     3     -11.440   7.665  72.002  1.00  0.00    -0.283 C  
ENDROOT
BRANCH   4   8
HETATM    8  C   UNL     2      -9.719   5.993  67.760  1.00  0.00    -0.115 C  
HETATM    9  H   UNL     2     -11.115   6.502  69.025  1.00  0.00     0.000 HD 
HETATM   10  O   UNL     2     -11.073   5.896  68.295  1.00  0.00    -0.258 OA 
BRANCH   8  11
HETATM   11  C   UNL     2      -9.238   7.406  67.518  1.00  0.00    -0.130 C  
HETATM   12  O   UNL     2      -7.404   8.781  68.150  1.00  0.00    -0.085 OA 
HETATM   13  H   UNL     2      -9.922   9.180  67.941  1.00  0.00     0.000 HD 
HETATM   14  O   UNL     2      -7.161   6.492  68.114  1.00  0.00    -0.083 OA 
HETATM   15  O   UNL     2     -10.224   8.293  68.093  1.00  0.00    -0.197 OA 
HETATM   16  C   UNL     2      -7.795   7.603  68.021  1.00  0.00    -0.121 C  
ENDBRANCH   8  11
ENDBRANCH   4   8
BRANCH   7  17
HETATM   17  C   UNL     3     -10.287   7.167  71.116  1.00  0.00    -0.202 C  
HETATM   18  O   UNL     3     -10.148   5.702  71.258  1.00  0.00    -0.190 OA 
HETATM   19  H   UNL     3      -9.436   5.394  70.711  1.00  0.00     0.000 HD 
BRANCH  17  20
HETATM   20  C   UNL     3      -8.948   7.903  71.258  1.00  0.00    -0.135 C  
HETATM   21  C   UNL     3      -8.492   7.727  72.729  1.00  0.00    -0.146 C  
HETATM   22  O   UNL     3      -9.140   9.285  70.840  1.00  0.00    -0.241 OA 
HETATM   23  O   UNL     3      -8.469   6.485  73.062  1.00  0.00    -0.119 OA 
HETATM   24  O   UNL     3      -8.327   8.742  73.435  1.00  0.00    -0.374 OA 
HETATM   25  H   UNL     3      -8.312   9.742  70.928  1.00  0.00     0.000 HD 
ENDBRANCH  17  20
ENDBRANCH   7  17
TORSDOF 4
ENDMDL
MODEL      126
REMARK 921   NORMALIZED FREE ENERGY PREDICTED BY IDOCK:   -3.11 KCAL/MOL
REMARK 922        TOTAL FREE ENERGY PREDICTED BY IDOCK:   -5.02 KCAL/MOL
REMARK 923 INTER-LIGAND FREE ENERGY PREDICTED BY IDOCK:   -4.91 KCAL/MOL
REMARK 924 INTRA-LIGAND FREE ENERGY PREDICTED BY IDOCK:   -0.11 KCAL/MOL
REMARK 927      BINDING AFFINITY PREDICTED BY RF-SCORE:    0.00 PKD
ROOT
HETATM    1 CA   UNL     1      -8.172  11.590  69.969  1.00  0.00    -0.329 Ca 
HETATM    2  O   UNL     2      -6.739   9.527  68.713  1.00  0.00    -0.051 OA 
HETATM    3  O   UNL     3     -11.897  14.583  69.661  1.00  0.00    -0.281 OA 
HETATM    4  C   UNL     2      -7.734   8.842  67.885  1.00  0.00    -0.101 C  
HETATM    5  H   UNL     2      -6.048   8.885  68.822  1.00  0.00     0.000 HD 
HETATM    6  H   UNL     3     -12.626  14.852  70.208  1.00  0.00     0.000 HD 
HETATM    7  C   UNL     3     -12.014  13.223  69.262  1.00  0.00    -0.303 C  
ENDROOT
BRANCH   4   8
HETATM    8  C   UNL     2      -8.837   9.868  67.712  1.00  0.00    -0.129 C  
HETATM    9  H   UNL     2      -8.952  11.797  67.981  1.00  0.00     0.000 HD 
HETATM   10  O   UNL     2      -8.261  11.154  68.090  1.00  0.00    -0.119 OA 
BRANCH   8  11
HETATM   11  C   UNL     2     -10.173   9.565  68.351  1.00  0.00    -0.194 C  
HETATM   12  O   UNL     2     -10.995   8.499  70.311  1.00  0.00    -0.242 OA 
HETATM   13  H   UNL     2     -11.717   8.484  67.858  1.00  0.00     0.000 HD 
HETATM   14  O   UNL     2      -8.880   9.409  70.301  1.00  0.00    -0.199 OA 
HETATM   15  O   UNL     2     -10.877   8.673  67.457  1.00  0.00    -0.202 OA 
HETATM   16  C   UNL     2     -10.005   9.058  69.796  1.00  0.00    -0.196 C  
ENDBRANCH   8  11
ENDBRANCH   4   8
BRANCH   7  17
HETATM   17  C   UNL     3     -10.836  12.787  68.376  1.00  0.00    -0.249 C  
HETATM   18  O   UNL     3      -9.640  13.589  68.710  1.00  0.00    -0.391 OA 
HETATM   19  H   UNL     3      -8.912  13.320  68.162  1.00  0.00     0.000 HD 
BRANCH  17  20
HETATM   20  C   UNL     3     -11.103  12.727  66.866  1.00  0.00    -0.270 C  
HETATM   21  C   UNL     3     -11.659  14.113  66.452  1.00  0.00    -0.369 C  
HETATM   22  O   UNL     3     -11.997  11.607  66.605  1.00  0.00    -0.503 OA 
HETATM   23  O   UNL     3     -10.875  15.059  66.829  1.00  0.00    -0.307 OA 
HETATM   24  O   UNL     3     -12.796  14.179  65.942  1.00  0.00    -0.471 OA 
HETATM   25  H   UNL     3     -12.163  11.570  65.670  1.00  0.00     0.000 HD 
ENDBRANCH  17  20
ENDBRANCH   7  17
TORSDOF 4
ENDMDL
MODEL      127
REMARK 921   NORMALIZED FREE ENERGY PREDICTED BY IDOCK:   -3.09 KCAL/MOL
REMARK 922        TOTAL FREE ENERGY PREDICTED BY IDOCK:   -4.99 KCAL/MOL
REMARK 923 INTER-LIGAND FREE ENERGY PREDICTED BY IDOCK:   -4.28 KCAL/MOL
REMARK 924 INTRA-LIGAND FREE ENERGY PREDICTED BY IDOCK:   -0.71 KCAL/MOL
REMARK 927      BINDING AFFINITY PREDICTED BY RF-SCORE:    0.00 PKD
ROOT
HETATM    1 CA   UNL     1     -10.707   7.286  65.953  1.00  0.00    -0.462 Ca 
HETATM    2  O   UNL     2     -11.136   6.003  68.413  1.00  0.00    -0.314 OA 
HETATM    3  O   UNL     3      -8.493  10.880  63.692  1.00  0.00    -0.353 OA 
HETATM    4  C   UNL     2      -9.916   6.267  69.181  1.00  0.00    -0.150 C  
HETATM    5  H   UNL     2     -11.513   5.240  68.836  1.00  0.00     0.000 HD 
HETATM    6  H   UNL     3      -7.958  10.994  62.916  1.00  0.00     0.000 HD 
HETATM    7  C   UNL     3      -7.823  10.115  64.686  1.00  0.00    -0.144 C  
ENDROOT
BRANCH   4   8
HETATM    8  C   UNL     2      -9.314   7.484  68.507  1.00  0.00    -0.142 C  
HETATM    9  H   UNL     2      -8.592   7.834  66.729  1.00  0.00     0.000 HD 
HETATM   10  O   UNL     2      -8.969   7.071  67.151  1.00  0.00    -0.118 OA 
BRANCH   8  11
HETATM   11  C   UNL     2      -8.212   8.211  69.244  1.00  0.00    -0.119 C  
HETATM   12  O   UNL     2      -7.861  10.336  70.251  1.00  0.00    -0.156 OA 
HETATM   13  H   UNL     2      -6.421   8.820  68.779  1.00  0.00     0.000 HD 
HETATM   14  O   UNL     2      -9.997   9.499  70.053  1.00  0.00    -0.205 OA 
HETATM   15  O   UNL     2      -7.113   8.364  68.316  1.00  0.00    -0.081 OA 
HETATM   16  C   UNL     2      -8.726   9.515  69.883  1.00  0.00    -0.210 C  
ENDBRANCH   8  11
ENDBRANCH   4   8
BRANCH   7  17
HETATM   17  C   UNL     3      -8.689   9.931  65.942  1.00  0.00    -0.139 C  
HETATM   18  O   UNL     3      -9.983   9.321  65.569  1.00  0.00    -0.440 OA 
HETATM   19  H   UNL     3     -10.518   9.207  66.345  1.00  0.00     0.000 HD 
BRANCH  17  20
HETATM   20  C   UNL     3      -8.856  11.162  66.843  1.00  0.00    -0.157 C  
HETATM   21  C   UNL     3     -10.373  11.475  66.902  1.00  0.00    -0.223 C  
HETATM   22  O   UNL     3      -8.031  12.236  66.307  1.00  0.00    -0.357 OA 
HETATM   23  O   UNL     3     -11.046  10.441  67.261  1.00  0.00    -0.278 OA 
HETATM   24  O   UNL     3     -10.775  12.584  66.497  1.00  0.00    -0.236 OA 
HETATM   25  H   UNL     3      -8.134  12.998  66.864  1.00  0.00     0.000 HD 
ENDBRANCH  17  20
ENDBRANCH   7  17
TORSDOF 4
ENDMDL
MODEL      128
REMARK 921   NORMALIZED FREE ENERGY PREDICTED BY IDOCK:   -3.09 KCAL/MOL
REMARK 922        TOTAL FREE ENERGY PREDICTED BY IDOCK:   -4.99 KCAL/MOL
REMARK 923 INTER-LIGAND FREE ENERGY PREDICTED BY IDOCK:   -4.64 KCAL/MOL
REMARK 924 INTRA-LIGAND FREE ENERGY PREDICTED BY IDOCK:   -0.35 KCAL/MOL
REMARK 927      BINDING AFFINITY PREDICTED BY RF-SCORE:    0.00 PKD
ROOT
HETATM    1 CA   UNL     1      -8.443  14.374  69.757  1.00  0.00    -0.329 Ca 
HETATM    2  O   UNL     2     -10.813  15.875  69.879  1.00  0.00    -0.277 OA 
HETATM    3  O   UNL     3      -6.214  10.648  67.738  1.00  0.00    -0.054 OA 
HETATM    4  C   UNL     2     -11.411  15.724  68.550  1.00  0.00    -0.374 C  
HETATM    5  H   UNL     2     -11.215  16.663  70.224  1.00  0.00     0.000 HD 
HETATM    6  H   UNL     3      -5.380  10.476  67.317  1.00  0.00     0.000 HD 
HETATM    7  C   UNL     3      -7.022  11.526  66.965  1.00  0.00    -0.145 C  
ENDROOT
BRANCH   4   8
HETATM    8  C   UNL     2     -10.768  14.467  67.999  1.00  0.00    -0.241 C  
HETATM    9  H   UNL     2      -9.421  14.116  66.631  1.00  0.00     0.000 HD 
HETATM   10  O   UNL     2      -9.824  14.904  66.976  1.00  0.00    -0.231 OA 
BRANCH   8  11
HETATM   11  C   UNL     2     -11.689  13.348  67.567  1.00  0.00    -0.366 C  
HETATM   12  O   UNL     2     -12.273  11.160  68.292  1.00  0.00    -0.613 OA 
HETATM   13  H   UNL     2     -11.811  12.197  66.000  1.00  0.00     0.000 HD 
HETATM   14  O   UNL     2     -11.475  12.696  69.810  1.00  0.00    -0.226 OA 
HETATM   15  O   UNL     2     -11.232  12.899  66.271  1.00  0.00    -0.284 OA 
HETATM   16  C   UNL     2     -11.793  12.255  68.649  1.00  0.00    -0.305 C  
ENDBRANCH   8  11
ENDBRANCH   4   8
BRANCH   7  17
HETATM   17  C   UNL     3      -8.371  11.804  67.646  1.00  0.00    -0.145 C  
HETATM   18  O   UNL     3      -8.142  12.354  68.998  1.00  0.00    -0.342 OA 
HETATM   19  H   UNL     3      -8.976  12.526  69.419  1.00  0.00     0.000 HD 
BRANCH  17  20
HETATM   20  C   UNL     3      -9.388  10.653  67.642  1.00  0.00    -0.146 C  
HETATM   21  C   UNL     3      -8.695   9.439  68.312  1.00  0.00    -0.124 C  
HETATM   22  O   UNL     3      -9.820  10.430  66.270  1.00  0.00    -0.199 OA 
HETATM   23  O   UNL     3      -8.228   9.750  69.468  1.00  0.00    -0.114 OA 
HETATM   24  O   UNL     3      -8.555   8.388  67.655  1.00  0.00    -0.128 OA 
HETATM   25  H   UNL     3     -10.449   9.718  66.267  1.00  0.00     0.000 HD 
ENDBRANCH  17  20
ENDBRANCH   7  17
TORSDOF 4
ENDMDL
MODEL      129
REMARK 921   NORMALIZED FREE ENERGY PREDICTED BY IDOCK:   -3.09 KCAL/MOL
REMARK 922        TOTAL FREE ENERGY PREDICTED BY IDOCK:   -4.99 KCAL/MOL
REMARK 923 INTER-LIGAND FREE ENERGY PREDICTED BY IDOCK:   -4.31 KCAL/MOL
REMARK 924 INTRA-LIGAND FREE ENERGY PREDICTED BY IDOCK:   -0.68 KCAL/MOL
REMARK 927      BINDING AFFINITY PREDICTED BY RF-SCORE:    0.00 PKD
ROOT
HETATM    1 CA   UNL     1      -8.267  10.274  70.868  1.00  0.00    -0.218 Ca 
HETATM    2  O   UNL     2      -8.048   8.750  73.216  1.00  0.00    -0.407 OA 
HETATM    3  O   UNL     3     -10.091  10.499  66.446  1.00  0.00    -0.213 OA 
HETATM    4  C   UNL     2      -9.276   7.952  73.250  1.00  0.00    -0.282 C  
HETATM    5  H   UNL     2      -7.751   8.753  74.118  1.00  0.00     0.000 HD 
HETATM    6  H   UNL     3     -10.581  11.121  65.923  1.00  0.00     0.000 HD 
HETATM    7  C   UNL     3     -10.862  10.004  67.534  1.00  0.00    -0.265 C  
ENDROOT
BRANCH   4   8
HETATM    8  C   UNL     2      -9.751   7.948  71.810  1.00  0.00    -0.170 C  
HETATM    9  H   UNL     2     -10.637   9.258  70.668  1.00  0.00     0.000 HD 
HETATM   10  O   UNL     2     -10.340   9.261  71.570  1.00  0.00    -0.336 OA 
BRANCH   8  11
HETATM   11  C   UNL     2     -10.607   6.783  71.365  1.00  0.00    -0.221 C  
HETATM   12  O   UNL     2     -10.466   4.969  69.834  1.00  0.00    -0.280 OA 
HETATM   13  H   UNL     2     -12.325   6.609  70.463  1.00  0.00     0.000 HD 
HETATM   14  O   UNL     2      -8.542   5.895  70.695  1.00  0.00    -0.129 OA 
HETATM   15  O   UNL     2     -11.787   7.340  70.743  1.00  0.00    -0.309 OA 
HETATM   16  C   UNL     2      -9.805   5.794  70.498  1.00  0.00    -0.186 C  
ENDBRANCH   8  11
ENDBRANCH   4   8
BRANCH   7  17
HETATM   17  C   UNL     3     -10.069   8.996  68.381  1.00  0.00    -0.191 C  
HETATM   18  O   UNL     3      -8.823   9.626  68.866  1.00  0.00    -0.128 OA 
HETATM   19  H   UNL     3      -8.333   9.004  69.390  1.00  0.00     0.000 HD 
BRANCH  17  20
HETATM   20  C   UNL     3      -9.827   7.617  67.752  1.00  0.00    -0.158 C  
HETATM   21  C   UNL     3      -8.321   7.547  67.388  1.00  0.00    -0.112 C  
HETATM   22  O   UNL     3     -10.736   7.463  66.625  1.00  0.00    -0.498 OA 
HETATM   23  O   UNL     3      -7.585   7.820  68.405  1.00  0.00    -0.104 OA 
HETATM   24  O   UNL     3      -7.998   7.373  66.196  1.00  0.00    -0.102 OA 
HETATM   25  H   UNL     3     -10.586   6.609  66.236  1.00  0.00     0.000 HD 
ENDBRANCH  17  20
ENDBRANCH   7  17
TORSDOF 4
ENDMDL
MODEL      130
REMARK 921   NORMALIZED FREE ENERGY PREDICTED BY IDOCK:   -3.08 KCAL/MOL
REMARK 922        TOTAL FREE ENERGY PREDICTED BY IDOCK:   -4.98 KCAL/MOL
REMARK 923 INTER-LIGAND FREE ENERGY PREDICTED BY IDOCK:   -5.22 KCAL/MOL
REMARK 924 INTRA-LIGAND FREE ENERGY PREDICTED BY IDOCK:    0.24 KCAL/MOL
REMARK 927      BINDING AFFINITY PREDICTED BY RF-SCORE:    0.00 PKD
ROOT
HETATM    1 CA   UNL     1      -8.451  13.682  69.657  1.00  0.00    -0.326 Ca 
HETATM    2  O   UNL     2     -11.058  14.713  69.825  1.00  0.00    -0.261 OA 
HETATM    3  O   UNL     3      -5.573  10.516  67.508  1.00  0.00    -0.044 OA 
HETATM    4  C   UNL     2     -11.620  14.506  68.487  1.00  0.00    -0.313 C  
HETATM    5  H   UNL     2     -11.599  15.398  70.198  1.00  0.00     0.000 HD 
HETATM    6  H   UNL     3      -4.723  10.518  67.085  1.00  0.00     0.000 HD 
HETATM    7  C   UNL     3      -6.531  11.258  66.765  1.00  0.00    -0.136 C  
ENDROOT
BRANCH   4   8
HETATM    8  C   UNL     2     -10.756  13.412  67.892  1.00  0.00    -0.247 C  
HETATM    9  H   UNL     2      -8.991  13.375  67.060  1.00  0.00     0.000 HD 
HETATM   10  O   UNL     2      -9.532  14.061  67.433  1.00  0.00    -0.213 OA 
BRANCH   8  11
HETATM   11  C   UNL     2     -11.400  12.494  66.877  1.00  0.00    -0.326 C  
HETATM   12  O   UNL     2     -13.012  12.639  65.135  1.00  0.00    -0.754 OA 
HETATM   13  H   UNL     2     -12.553  10.928  66.979  1.00  0.00     0.000 HD 
HETATM   14  O   UNL     2     -11.818  14.509  65.750  1.00  0.00    -0.362 OA 
HETATM   15  O   UNL     2     -12.149  11.504  67.617  1.00  0.00    -0.623 OA 
HETATM   16  C   UNL     2     -12.204  13.289  65.830  1.00  0.00    -0.456 C  
ENDBRANCH   8  11
ENDBRANCH   4   8
BRANCH   7  17
HETATM   17  C   UNL     3      -7.908  11.255  67.449  1.00  0.00    -0.128 C  
HETATM   18  O   UNL     3      -7.817  11.941  68.754  1.00  0.00    -0.219 OA 
HETATM   19  H   UNL     3      -8.667  11.939  69.177  1.00  0.00     0.000 HD 
BRANCH  17  20
HETATM   20  C   UNL     3      -8.619   9.898  67.545  1.00  0.00    -0.122 C  
HETATM   21  C   UNL     3      -9.056   9.516  66.107  1.00  0.00    -0.166 C  
HETATM   22  O   UNL     3      -9.709  10.020  68.502  1.00  0.00    -0.150 OA 
HETATM   23  O   UNL     3      -8.061   9.554  65.295  1.00  0.00    -0.116 OA 
HETATM   24  O   UNL     3     -10.269   9.347  65.871  1.00  0.00    -0.259 OA 
HETATM   25  H   UNL     3     -10.150   9.180  68.562  1.00  0.00     0.000 HD 
ENDBRANCH  17  20
ENDBRANCH   7  17
TORSDOF 4
ENDMDL
MODEL      131
REMARK 921   NORMALIZED FREE ENERGY PREDICTED BY IDOCK:   -3.08 KCAL/MOL
REMARK 922        TOTAL FREE ENERGY PREDICTED BY IDOCK:   -4.98 KCAL/MOL
REMARK 923 INTER-LIGAND FREE ENERGY PREDICTED BY IDOCK:   -5.02 KCAL/MOL
REMARK 924 INTRA-LIGAND FREE ENERGY PREDICTED BY IDOCK:    0.04 KCAL/MOL
REMARK 927      BINDING AFFINITY PREDICTED BY RF-SCORE:    0.00 PKD
ROOT
HETATM    1 CA   UNL     1     -12.381   6.528  68.507  1.00  0.00    -0.487 Ca 
HETATM    2  O   UNL     2     -10.479   4.750  67.453  1.00  0.00    -0.085 OA 
HETATM    3  O   UNL     3     -13.335   9.735  71.932  1.00  0.00    -0.403 OA 
HETATM    4  C   UNL     2      -9.188   5.334  67.826  1.00  0.00    -0.112 C  
HETATM    5  H   UNL     2     -10.272   4.179  66.724  1.00  0.00     0.000 HD 
HETATM    6  H   UNL     3     -13.682  10.618  71.987  1.00  0.00     0.000 HD 
HETATM    7  C   UNL     3     -12.069   9.707  71.286  1.00  0.00    -0.371 C  
ENDROOT
BRANCH   4   8
HETATM    8  C   UNL     2      -9.519   6.246  68.990  1.00  0.00    -0.128 C  
HETATM    9  H   UNL     2     -10.983   6.330  70.276  1.00  0.00     0.000 HD 
HETATM   10  O   UNL     2     -10.776   5.758  69.547  1.00  0.00    -0.291 OA 
BRANCH   8  11
HETATM   11  C   UNL     2      -9.479   7.737  68.737  1.00  0.00    -0.149 C  
HETATM   12  O   UNL     2      -9.863   9.233  66.930  1.00  0.00    -0.182 OA 
HETATM   13  H   UNL     2      -8.086   9.097  68.764  1.00  0.00     0.000 HD 
HETATM   14  O   UNL     2     -10.903   7.179  66.957  1.00  0.00    -0.351 OA 
HETATM   15  O   UNL     2      -8.110   8.161  68.923  1.00  0.00    -0.113 OA 
HETATM   16  C   UNL     2     -10.106   8.093  67.375  1.00  0.00    -0.233 C  
ENDBRANCH   8  11
ENDBRANCH   4   8
BRANCH   7  17
HETATM   17  C   UNL     3     -11.507   8.279  71.197  1.00  0.00    -0.273 C  
HETATM   18  O   UNL     3     -12.532   7.376  70.633  1.00  0.00    -0.552 OA 
HETATM   19  H   UNL     3     -12.185   6.493  70.578  1.00  0.00     0.000 HD 
BRANCH  17  20
HETATM   20  C   UNL     3     -10.865   7.718  72.473  1.00  0.00    -0.328 C  
HETATM   21  C   UNL     3      -9.331   7.868  72.308  1.00  0.00    -0.180 C  
HETATM   22  O   UNL     3     -11.329   6.349  72.654  1.00  0.00    -0.285 OA 
HETATM   23  O   UNL     3      -9.011   9.080  72.024  1.00  0.00    -0.374 OA 
HETATM   24  O   UNL     3      -8.619   6.844  72.337  1.00  0.00    -0.122 OA 
HETATM   25  H   UNL     3     -10.931   6.001  73.444  1.00  0.00     0.000 HD 
ENDBRANCH  17  20
ENDBRANCH   7  17
TORSDOF 4
ENDMDL
MODEL      132
REMARK 921   NORMALIZED FREE ENERGY PREDICTED BY IDOCK:   -3.03 KCAL/MOL
REMARK 922        TOTAL FREE ENERGY PREDICTED BY IDOCK:   -4.92 KCAL/MOL
REMARK 923 INTER-LIGAND FREE ENERGY PREDICTED BY IDOCK:   -3.77 KCAL/MOL
REMARK 924 INTRA-LIGAND FREE ENERGY PREDICTED BY IDOCK:   -1.15 KCAL/MOL
REMARK 927      BINDING AFFINITY PREDICTED BY RF-SCORE:    0.00 PKD
ROOT
HETATM    1 CA   UNL     1     -11.774   3.333  73.138  1.00  0.00    -0.172 Ca 
HETATM    2  O   UNL     2      -9.824   1.875  74.538  1.00  0.00    -0.085 OA 
HETATM    3  O   UNL     3     -12.632   7.089  70.295  1.00  0.00    -0.603 OA 
HETATM    4  C   UNL     2      -8.591   2.090  73.776  1.00  0.00    -0.062 C  
HETATM    5  H   UNL     2      -9.654   1.083  75.032  1.00  0.00     0.000 HD 
HETATM    6  H   UNL     3     -13.092   7.261  69.482  1.00  0.00     0.000 HD 
HETATM    7  C   UNL     3     -11.496   6.259  70.090  1.00  0.00    -0.382 C  
ENDROOT
BRANCH   4   8
HETATM    8  C   UNL     2      -8.863   3.355  72.986  1.00  0.00    -0.085 C  
HETATM    9  H   UNL     2     -10.064   3.808  71.517  1.00  0.00     0.000 HD 
HETATM   10  O   UNL     2      -9.894   3.015  72.012  1.00  0.00    -0.156 OA 
BRANCH   8  11
HETATM   11  C   UNL     2      -7.669   4.083  72.410  1.00  0.00    -0.080 C  
HETATM   12  O   UNL     2      -6.530   6.145  72.735  1.00  0.00    -0.061 OA 
HETATM   13  H   UNL     2      -7.222   4.817  70.662  1.00  0.00     0.000 HD 
HETATM   14  O   UNL     2      -7.732   5.214  74.464  1.00  0.00    -0.088 OA 
HETATM   15  O   UNL     2      -7.972   4.360  71.023  1.00  0.00    -0.069 OA 
HETATM   16  C   UNL     2      -7.291   5.309  73.264  1.00  0.00    -0.091 C  
ENDBRANCH   8  11
ENDBRANCH   4   8
BRANCH   7  17
HETATM   17  C   UNL     3     -10.750   5.981  71.405  1.00  0.00    -0.259 C  
HETATM   18  O   UNL     3     -11.708   5.521  72.433  1.00  0.00    -0.236 OA 
HETATM   19  H   UNL     3     -11.247   5.350  73.245  1.00  0.00     0.000 HD 
BRANCH  17  20
HETATM   20  C   UNL     3      -9.829   7.098  71.916  1.00  0.00    -0.159 C  
HETATM   21  C   UNL     3     -10.700   8.372  72.055  1.00  0.00    -0.317 C  
HETATM   22  O   UNL     3      -8.708   7.221  70.995  1.00  0.00    -0.137 OA 
HETATM   23  O   UNL     3     -11.738   8.148  72.779  1.00  0.00    -0.403 OA 
HETATM   24  O   UNL     3     -10.397   9.384  71.391  1.00  0.00    -0.324 OA 
HETATM   25  H   UNL     3      -8.137   7.912  71.311  1.00  0.00     0.000 HD 
ENDBRANCH  17  20
ENDBRANCH   7  17
TORSDOF 4
ENDMDL
MODEL      133
REMARK 921   NORMALIZED FREE ENERGY PREDICTED BY IDOCK:   -3.03 KCAL/MOL
REMARK 922        TOTAL FREE ENERGY PREDICTED BY IDOCK:   -4.92 KCAL/MOL
REMARK 923 INTER-LIGAND FREE ENERGY PREDICTED BY IDOCK:   -6.07 KCAL/MOL
REMARK 924 INTRA-LIGAND FREE ENERGY PREDICTED BY IDOCK:    1.16 KCAL/MOL
REMARK 927      BINDING AFFINITY PREDICTED BY RF-SCORE:    0.00 PKD
ROOT
HETATM    1 CA   UNL     1     -10.453  11.753  70.236  1.00  0.00    -0.415 Ca 
HETATM    2  O   UNL     2      -9.847   9.605  68.532  1.00  0.00    -0.151 OA 
HETATM    3  O   UNL     3     -11.443  16.430  70.517  1.00  0.00    -0.495 OA 
HETATM    4  C   UNL     2     -10.484   9.956  67.260  1.00  0.00    -0.258 C  
HETATM    5  H   UNL     2      -9.734   8.664  68.481  1.00  0.00     0.000 HD 
HETATM    6  H   UNL     3     -12.096  16.984  70.928  1.00  0.00     0.000 HD 
HETATM    7  C   UNL     3     -12.008  15.621  69.494  1.00  0.00    -0.345 C  
ENDROOT
BRANCH   4   8
HETATM    8  C   UNL     2     -10.666  11.459  67.343  1.00  0.00    -0.232 C  
HETATM    9  H   UNL     2     -12.207  12.629  67.594  1.00  0.00     0.000 HD 
HETATM   10  O   UNL     2     -12.093  11.688  67.542  1.00  0.00    -0.611 OA 
BRANCH   8  11
HETATM   11  C   UNL     2     -10.042  12.294  66.248  1.00  0.00    -0.234 C  
HETATM   12  O   UNL     2     -10.694  13.275  64.183  1.00  0.00    -0.405 OA 
HETATM   13  H   UNL     2      -8.607  12.019  64.960  1.00  0.00     0.000 HD 
HETATM   14  O   UNL     2     -12.275  12.860  65.805  1.00  0.00    -0.444 OA 
HETATM   15  O   UNL     2      -8.999  11.494  65.647  1.00  0.00    -0.176 OA 
HETATM   16  C   UNL     2     -11.107  12.834  65.275  1.00  0.00    -0.287 C  
ENDBRANCH   8  11
ENDBRANCH   4   8
BRANCH   7  17
HETATM   17  C   UNL     3     -10.951  14.726  68.828  1.00  0.00    -0.259 C  
HETATM   18  O   UNL     3     -10.937  13.401  69.483  1.00  0.00    -0.442 OA 
HETATM   19  H   UNL     3     -10.284  12.848  69.071  1.00  0.00     0.000 HD 
BRANCH  17  20
HETATM   20  C   UNL     3      -9.546  15.324  68.678  1.00  0.00    -0.206 C  
HETATM   21  C   UNL     3      -9.441  15.871  67.231  1.00  0.00    -0.212 C  
HETATM   22  O   UNL     3      -8.572  14.295  69.013  1.00  0.00    -0.333 OA 
HETATM   23  O   UNL     3     -10.408  16.676  66.968  1.00  0.00    -0.296 OA 
HETATM   24  O   UNL     3      -8.565  15.408  66.474  1.00  0.00    -0.273 OA 
HETATM   25  H   UNL     3      -7.702  14.665  68.920  1.00  0.00     0.000 HD 
ENDBRANCH  17  20
ENDBRANCH   7  17
TORSDOF 4
ENDMDL
MODEL      134
REMARK 921   NORMALIZED FREE ENERGY PREDICTED BY IDOCK:   -3.01 KCAL/MOL
REMARK 922        TOTAL FREE ENERGY PREDICTED BY IDOCK:   -4.89 KCAL/MOL
REMARK 923 INTER-LIGAND FREE ENERGY PREDICTED BY IDOCK:   -3.87 KCAL/MOL
REMARK 924 INTRA-LIGAND FREE ENERGY PREDICTED BY IDOCK:   -1.02 KCAL/MOL
REMARK 927      BINDING AFFINITY PREDICTED BY RF-SCORE:    0.00 PKD
ROOT
HETATM    1 CA   UNL     1     -10.809   7.291  74.257  1.00  0.00    -0.370 Ca 
HETATM    2  O   UNL     2     -13.012   8.471  72.977  1.00  0.00    -0.719 OA 
HETATM    3  O   UNL     3      -6.583   5.116  73.670  1.00  0.00    -0.067 OA 
HETATM    4  C   UNL     2     -12.471   8.983  71.715  1.00  0.00    -0.368 C  
HETATM    5  H   UNL     2     -13.807   8.973  73.107  1.00  0.00     0.000 HD 
HETATM    6  H   UNL     3      -5.701   5.198  74.012  1.00  0.00     0.000 HD 
HETATM    7  C   UNL     3      -6.946   6.240  72.878  1.00  0.00    -0.079 C  
ENDROOT
BRANCH   4   8
HETATM    8  C   UNL     2     -11.201   8.182  71.508  1.00  0.00    -0.259 C  
HETATM    9  H   UNL     2      -9.486   8.089  72.435  1.00  0.00     0.000 HD 
HETATM   10  O   UNL     2     -10.282   8.592  72.564  1.00  0.00    -0.310 OA 
BRANCH   8  11
HETATM   11  C   UNL     2     -10.601   8.177  70.120  1.00  0.00    -0.237 C  
HETATM   12  O   UNL     2     -10.123   6.600  68.406  1.00  0.00    -0.144 OA 
HETATM   13  H   UNL     2      -8.847   8.590  69.381  1.00  0.00     0.000 HD 
HETATM   14  O   UNL     2     -11.803   6.172  69.922  1.00  0.00    -0.236 OA 
HETATM   15  O   UNL     2      -9.223   8.593  70.253  1.00  0.00    -0.155 OA 
HETATM   16  C   UNL     2     -10.821   6.824  69.416  1.00  0.00    -0.271 C  
ENDBRANCH   8  11
ENDBRANCH   4   8
BRANCH   7  17
HETATM   17  C   UNL     3      -8.373   6.108  72.324  1.00  0.00    -0.113 C  
HETATM   18  O   UNL     3      -9.327   5.938  73.440  1.00  0.00    -0.135 OA 
HETATM   19  H   UNL     3     -10.209   5.857  73.098  1.00  0.00     0.000 HD 
BRANCH  17  20
HETATM   20  C   UNL     3      -8.580   5.073  71.209  1.00  0.00    -0.125 C  
HETATM   21  C   UNL     3      -8.302   3.681  71.831  1.00  0.00    -0.078 C  
HETATM   22  O   UNL     3      -7.716   5.427  70.092  1.00  0.00    -0.074 OA 
HETATM   23  O   UNL     3      -9.011   3.494  72.887  1.00  0.00    -0.094 OA 
HETATM   24  O   UNL     3      -7.388   2.980  71.354  1.00  0.00    -0.035 OA 
HETATM   25  H   UNL     3      -7.843   4.786  69.402  1.00  0.00     0.000 HD 
ENDBRANCH  17  20
ENDBRANCH   7  17
TORSDOF 4
ENDMDL
MODEL      135
REMARK 921   NORMALIZED FREE ENERGY PREDICTED BY IDOCK:   -3.01 KCAL/MOL
REMARK 922        TOTAL FREE ENERGY PREDICTED BY IDOCK:   -4.89 KCAL/MOL
REMARK 923 INTER-LIGAND FREE ENERGY PREDICTED BY IDOCK:   -4.17 KCAL/MOL
REMARK 924 INTRA-LIGAND FREE ENERGY PREDICTED BY IDOCK:   -0.72 KCAL/MOL
REMARK 927      BINDING AFFINITY PREDICTED BY RF-SCORE:    0.00 PKD
ROOT
HETATM    1 CA   UNL     1      -7.862   9.586  71.517  1.00  0.00    -0.124 Ca 
HETATM    2  O   UNL     2      -6.971   9.933  68.877  1.00  0.00    -0.060 OA 
HETATM    3  O   UNL     3     -10.831   7.193  74.414  1.00  0.00    -0.351 OA 
HETATM    4  C   UNL     2      -7.179   8.627  68.246  1.00  0.00    -0.086 C  
HETATM    5  H   UNL     2      -6.322  10.354  68.326  1.00  0.00     0.000 HD 
HETATM    6  H   UNL     3     -10.776   6.721  75.236  1.00  0.00     0.000 HD 
HETATM    7  C   UNL     3     -10.124   6.527  73.376  1.00  0.00    -0.218 C  
ENDROOT
BRANCH   4   8
HETATM    8  C   UNL     2      -8.214   7.955  69.126  1.00  0.00    -0.132 C  
HETATM    9  H   UNL     2      -8.203   7.259  70.948  1.00  0.00     0.000 HD 
HETATM   10  O   UNL     2      -7.554   7.680  70.397  1.00  0.00    -0.084 OA 
BRANCH   8  11
HETATM   11  C   UNL     2      -8.966   6.781  68.540  1.00  0.00    -0.121 C  
HETATM   12  O   UNL     2     -11.171   6.282  67.803  1.00  0.00    -0.325 OA 
HETATM   13  H   UNL     2      -9.433   4.998  69.171  1.00  0.00     0.000 HD 
HETATM   14  O   UNL     2     -10.419   8.459  67.783  1.00  0.00    -0.236 OA 
HETATM   15  O   UNL     2      -8.962   5.736  69.539  1.00  0.00    -0.122 OA 
HETATM   16  C   UNL     2     -10.356   7.201  68.026  1.00  0.00    -0.194 C  
ENDBRANCH   8  11
ENDBRANCH   4   8
BRANCH   7  17
HETATM   17  C   UNL     3     -10.212   7.292  72.046  1.00  0.00    -0.190 C  
HETATM   18  O   UNL     3      -9.645   8.646  72.212  1.00  0.00    -0.293 OA 
HETATM   19  H   UNL     3      -9.700   9.119  71.390  1.00  0.00     0.000 HD 
BRANCH  17  20
HETATM   20  C   UNL     3     -11.584   7.308  71.357  1.00  0.00    -0.276 C  
HETATM   21  C   UNL     3     -12.061   8.783  71.338  1.00  0.00    -0.307 C  
HETATM   22  O   UNL     3     -12.463   6.391  72.070  1.00  0.00    -0.443 OA 
HETATM   23  O   UNL     3     -11.176   9.549  70.808  1.00  0.00    -0.265 OA 
HETATM   24  O   UNL     3     -13.126   9.079  71.916  1.00  0.00    -0.344 OA 
HETATM   25  H   UNL     3     -13.313   6.400  71.644  1.00  0.00     0.000 HD 
ENDBRANCH  17  20
ENDBRANCH   7  17
TORSDOF 4
ENDMDL
MODEL      136
REMARK 921   NORMALIZED FREE ENERGY PREDICTED BY IDOCK:   -3.00 KCAL/MOL
REMARK 922        TOTAL FREE ENERGY PREDICTED BY IDOCK:   -4.88 KCAL/MOL
REMARK 923 INTER-LIGAND FREE ENERGY PREDICTED BY IDOCK:   -5.01 KCAL/MOL
REMARK 924 INTRA-LIGAND FREE ENERGY PREDICTED BY IDOCK:    0.13 KCAL/MOL
REMARK 927      BINDING AFFINITY PREDICTED BY RF-SCORE:    0.00 PKD
ROOT
HETATM    1 CA   UNL     1      -8.494  12.566  69.248  1.00  0.00    -0.325 Ca 
HETATM    2  O   UNL     2      -6.608  10.890  68.016  1.00  0.00    -0.061 OA 
HETATM    3  O   UNL     3     -12.325  15.365  68.604  1.00  0.00    -0.564 OA 
HETATM    4  C   UNL     2      -7.308  10.347  66.849  1.00  0.00    -0.106 C  
HETATM    5  H   UNL     2      -5.901  10.275  68.167  1.00  0.00     0.000 HD 
HETATM    6  H   UNL     3     -13.184  15.476  68.994  1.00  0.00     0.000 HD 
HETATM    7  C   UNL     3     -12.209  14.117  67.935  1.00  0.00    -0.155 C  
ENDROOT
BRANCH   4   8
HETATM    8  C   UNL     2      -8.437  11.330  66.608  1.00  0.00    -0.168 C  
HETATM    9  H   UNL     2      -8.784  13.165  67.171  1.00  0.00     0.000 HD 
HETATM   10  O   UNL     2      -8.077  12.549  67.323  1.00  0.00    -0.171 OA 
BRANCH   8  11
HETATM   11  C   UNL     2      -9.846  10.844  66.863  1.00  0.00    -0.189 C  
HETATM   12  O   UNL     2     -10.967   9.378  68.363  1.00  0.00    -0.149 OA 
HETATM   13  H   UNL     2     -11.146   9.807  65.848  1.00  0.00     0.000 HD 
HETATM   14  O   UNL     2      -8.989  10.373  68.995  1.00  0.00    -0.161 OA 
HETATM   15  O   UNL     2     -10.261  10.112  65.688  1.00  0.00    -0.275 OA 
HETATM   16  C   UNL     2      -9.944  10.074  68.194  1.00  0.00    -0.153 C  
ENDBRANCH   8  11
ENDBRANCH   4   8
BRANCH   7  17
HETATM   17  C   UNL     3     -10.818  13.938  67.304  1.00  0.00    -0.286 C  
HETATM   18  O   UNL     3      -9.780  14.392  68.252  1.00  0.00    -0.209 OA 
HETATM   19  H   UNL     3      -8.921  14.282  67.862  1.00  0.00     0.000 HD 
BRANCH  17  20
HETATM   20  C   UNL     3     -10.627  14.521  65.896  1.00  0.00    -0.309 C  
HETATM   21  C   UNL     3     -11.225  13.495  64.899  1.00  0.00    -0.342 C  
HETATM   22  O   UNL     3      -9.211  14.803  65.707  1.00  0.00    -0.513 OA 
HETATM   23  O   UNL     3     -12.437  13.201  65.208  1.00  0.00    -0.457 OA 
HETATM   24  O   UNL     3     -10.481  12.994  64.033  1.00  0.00    -0.418 OA 
HETATM   25  H   UNL     3      -9.093  15.164  64.836  1.00  0.00     0.000 HD 
ENDBRANCH  17  20
ENDBRANCH   7  17
TORSDOF 4
ENDMDL
MODEL      137
REMARK 921   NORMALIZED FREE ENERGY PREDICTED BY IDOCK:   -3.00 KCAL/MOL
REMARK 922        TOTAL FREE ENERGY PREDICTED BY IDOCK:   -4.88 KCAL/MOL
REMARK 923 INTER-LIGAND FREE ENERGY PREDICTED BY IDOCK:   -5.14 KCAL/MOL
REMARK 924 INTRA-LIGAND FREE ENERGY PREDICTED BY IDOCK:    0.26 KCAL/MOL
REMARK 927      BINDING AFFINITY PREDICTED BY RF-SCORE:    0.00 PKD
ROOT
HETATM    1 CA   UNL     1      -8.907  12.639  69.574  1.00  0.00    -0.323 Ca 
HETATM    2  O   UNL     2      -7.746  11.100  67.531  1.00  0.00    -0.109 OA 
HETATM    3  O   UNL     3     -11.407  16.584  70.628  1.00  0.00    -0.520 OA 
HETATM    4  C   UNL     2      -8.568  11.380  66.351  1.00  0.00    -0.174 C  
HETATM    5  H   UNL     2      -7.322  10.275  67.326  1.00  0.00     0.000 HD 
HETATM    6  H   UNL     3     -12.173  16.810  71.141  1.00  0.00     0.000 HD 
HETATM    7  C   UNL     3     -11.744  15.780  69.505  1.00  0.00    -0.360 C  
ENDROOT
BRANCH   4   8
HETATM    8  C   UNL     2      -9.244  12.697  66.678  1.00  0.00    -0.218 C  
HETATM    9  H   UNL     2      -8.804  14.197  67.845  1.00  0.00     0.000 HD 
HETATM   10  O   UNL     2      -8.380  13.372  67.641  1.00  0.00    -0.153 OA 
BRANCH   8  11
HETATM   11  C   UNL     2     -10.704  12.649  67.069  1.00  0.00    -0.245 C  
HETATM   12  O   UNL     2     -12.206  11.128  68.111  1.00  0.00    -0.612 OA 
HETATM   13  H   UNL     2     -12.389  12.687  66.092  1.00  0.00     0.000 HD 
HETATM   14  O   UNL     2      -9.952  11.004  68.562  1.00  0.00    -0.178 OA 
HETATM   15  O   UNL     2     -11.472  12.717  65.846  1.00  0.00    -0.326 OA 
HETATM   16  C   UNL     2     -11.005  11.439  67.975  1.00  0.00    -0.237 C  
ENDBRANCH   8  11
ENDBRANCH   4   8
BRANCH   7  17
HETATM   17  C   UNL     3     -10.504  15.415  68.674  1.00  0.00    -0.237 C  
HETATM   18  O   UNL     3      -9.302  15.448  69.534  1.00  0.00    -0.265 OA 
HETATM   19  H   UNL     3      -8.535  15.222  69.021  1.00  0.00     0.000 HD 
BRANCH  17  20
HETATM   20  C   UNL     3     -10.311  16.185  67.361  1.00  0.00    -0.294 C  
HETATM   21  C   UNL     3     -10.131  17.678  67.737  1.00  0.00    -0.338 C  
HETATM   22  O   UNL     3     -11.448  15.905  66.496  1.00  0.00     0.092 OA 
HETATM   23  O   UNL     3      -9.191  17.829  68.601  1.00  0.00    -0.283 OA 
HETATM   24  O   UNL     3     -10.944  18.513  67.293  1.00  0.00    -0.365 OA 
HETATM   25  H   UNL     3     -11.329  16.382  65.682  1.00  0.00     0.000 HD 
ENDBRANCH  17  20
ENDBRANCH   7  17
TORSDOF 4
ENDMDL
MODEL      138
REMARK 921   NORMALIZED FREE ENERGY PREDICTED BY IDOCK:   -3.00 KCAL/MOL
REMARK 922        TOTAL FREE ENERGY PREDICTED BY IDOCK:   -4.88 KCAL/MOL
REMARK 923 INTER-LIGAND FREE ENERGY PREDICTED BY IDOCK:   -5.37 KCAL/MOL
REMARK 924 INTRA-LIGAND FREE ENERGY PREDICTED BY IDOCK:    0.49 KCAL/MOL
REMARK 927      BINDING AFFINITY PREDICTED BY RF-SCORE:    0.00 PKD
ROOT
HETATM    1 CA   UNL     1      -8.592  11.719  64.191  1.00  0.00    -0.381 Ca 
HETATM    2  O   UNL     2      -7.978   9.181  65.223  1.00  0.00    -0.104 OA 
HETATM    3  O   UNL     3     -10.534  16.001  65.098  1.00  0.00    -0.516 OA 
HETATM    4  C   UNL     2      -7.801   9.403  66.660  1.00  0.00    -0.104 C  
HETATM    5  H   UNL     2      -7.518   8.366  65.058  1.00  0.00     0.000 HD 
HETATM    6  H   UNL     3     -10.297  16.914  64.988  1.00  0.00     0.000 HD 
HETATM    7  C   UNL     3      -9.704  15.354  66.055  1.00  0.00    -0.338 C  
ENDROOT
BRANCH   4   8
HETATM    8  C   UNL     2      -8.534  10.703  66.924  1.00  0.00    -0.127 C  
HETATM    9  H   UNL     2      -8.044  12.588  66.805  1.00  0.00     0.000 HD 
HETATM   10  O   UNL     2      -7.584  11.774  66.640  1.00  0.00    -0.108 OA 
BRANCH   8  11
HETATM   11  C   UNL     2      -9.257  10.837  68.246  1.00  0.00    -0.157 C  
HETATM   12  O   UNL     2     -11.458  10.542  69.095  1.00  0.00    -0.257 OA 
HETATM   13  H   UNL     2      -9.650  12.316  69.451  1.00  0.00     0.000 HD 
HETATM   14  O   UNL     2     -10.782   9.372  67.231  1.00  0.00    -0.267 OA 
HETATM   15  O   UNL     2      -9.196  12.232  68.621  1.00  0.00    -0.126 OA 
HETATM   16  C   UNL     2     -10.670  10.229  68.179  1.00  0.00    -0.246 C  
ENDBRANCH   8  11
ENDBRANCH   4   8
BRANCH   7  17
HETATM   17  C   UNL     3     -10.088  13.876  66.233  1.00  0.00    -0.300 C  
HETATM   18  O   UNL     3      -9.588  13.090  65.087  1.00  0.00    -0.493 OA 
HETATM   19  H   UNL     3      -9.825  12.177  65.197  1.00  0.00     0.000 HD 
BRANCH  17  20
HETATM   20  C   UNL     3     -11.563  13.587  66.548  1.00  0.00    -0.359 C  
HETATM   21  C   UNL     3     -11.855  14.199  67.941  1.00  0.00    -0.370 C  
HETATM   22  O   UNL     3     -11.776  12.150  66.455  1.00  0.00    -0.489 OA 
HETATM   23  O   UNL     3     -11.522  15.440  67.982  1.00  0.00    -0.338 OA 
HETATM   24  O   UNL     3     -12.236  13.448  68.861  1.00  0.00    -0.294 OA 
HETATM   25  H   UNL     3     -12.689  11.970  66.649  1.00  0.00     0.000 HD 
ENDBRANCH  17  20
ENDBRANCH   7  17
TORSDOF 4
ENDMDL
MODEL      139
REMARK 921   NORMALIZED FREE ENERGY PREDICTED BY IDOCK:   -2.99 KCAL/MOL
REMARK 922        TOTAL FREE ENERGY PREDICTED BY IDOCK:   -4.87 KCAL/MOL
REMARK 923 INTER-LIGAND FREE ENERGY PREDICTED BY IDOCK:   -3.69 KCAL/MOL
REMARK 924 INTRA-LIGAND FREE ENERGY PREDICTED BY IDOCK:   -1.18 KCAL/MOL
REMARK 927      BINDING AFFINITY PREDICTED BY RF-SCORE:    0.00 PKD
ROOT
HETATM    1 CA   UNL     1     -11.990   7.543  67.461  1.00  0.00    -0.278 Ca 
HETATM    2  O   UNL     2     -11.883   8.546  70.082  1.00  0.00    -0.458 OA 
HETATM    3  O   UNL     3      -9.884   4.737  64.203  1.00  0.00    -0.357 OA 
HETATM    4  C   UNL     2     -11.182   7.507  70.842  1.00  0.00    -0.269 C  
HETATM    5  H   UNL     2     -12.352   9.038  70.745  1.00  0.00     0.000 HD 
HETATM    6  H   UNL     3     -10.140   4.044  63.607  1.00  0.00     0.000 HD 
HETATM    7  C   UNL     3      -9.994   4.330  65.561  1.00  0.00    -0.225 C  
ENDROOT
BRANCH   4   8
HETATM    8  C   UNL     2     -10.433   6.720  69.785  1.00  0.00    -0.210 C  
HETATM    9  H   UNL     2     -10.973   5.494  68.367  1.00  0.00     0.000 HD 
HETATM   10  O   UNL     2     -11.443   5.986  69.030  1.00  0.00    -0.275 OA 
BRANCH   8  11
HETATM   11  C   UNL     2      -9.259   5.885  70.243  1.00  0.00    -0.154 C  
HETATM   12  O   UNL     2      -6.892   5.884  70.014  1.00  0.00    -0.053 OA 
HETATM   13  H   UNL     2      -8.675   4.052  69.935  1.00  0.00     0.000 HD 
HETATM   14  O   UNL     2      -8.062   7.858  69.827  1.00  0.00    -0.112 OA 
HETATM   15  O   UNL     2      -9.412   4.577  69.646  1.00  0.00    -0.138 OA 
HETATM   16  C   UNL     2      -7.920   6.591  69.959  1.00  0.00    -0.116 C  
ENDBRANCH   8  11
ENDBRANCH   4   8
BRANCH   7  17
HETATM   17  C   UNL     3      -9.579   5.452  66.526  1.00  0.00    -0.156 C  
HETATM   18  O   UNL     3     -10.326   6.685  66.206  1.00  0.00    -0.445 OA 
HETATM   19  H   UNL     3     -10.070   7.379  66.802  1.00  0.00     0.000 HD 
BRANCH  17  20
HETATM   20  C   UNL     3      -8.071   5.698  66.679  1.00  0.00    -0.105 C  
HETATM   21  C   UNL     3      -7.546   6.148  65.291  1.00  0.00    -0.089 C  
HETATM   22  O   UNL     3      -7.460   4.484  67.199  1.00  0.00    -0.079 OA 
HETATM   23  O   UNL     3      -8.220   7.146  64.841  1.00  0.00    -0.129 OA 
HETATM   24  O   UNL     3      -6.668   5.463  64.729  1.00  0.00    -0.045 OA 
HETATM   25  H   UNL     3      -6.527   4.636  67.294  1.00  0.00     0.000 HD 
ENDBRANCH  17  20
ENDBRANCH   7  17
TORSDOF 4
ENDMDL
MODEL      140
REMARK 921   NORMALIZED FREE ENERGY PREDICTED BY IDOCK:   -2.98 KCAL/MOL
REMARK 922        TOTAL FREE ENERGY PREDICTED BY IDOCK:   -4.86 KCAL/MOL
REMARK 923 INTER-LIGAND FREE ENERGY PREDICTED BY IDOCK:   -3.71 KCAL/MOL
REMARK 924 INTRA-LIGAND FREE ENERGY PREDICTED BY IDOCK:   -1.15 KCAL/MOL
REMARK 927      BINDING AFFINITY PREDICTED BY RF-SCORE:    0.00 PKD
ROOT
HETATM    1 CA   UNL     1      -5.959  10.598  65.931  1.00  0.00    -0.060 Ca 
HETATM    2  O   UNL     2      -5.336   8.134  67.124  1.00  0.00    -0.034 OA 
HETATM    3  O   UNL     3      -9.166  14.138  65.594  1.00  0.00    -0.487 OA 
HETATM    4  C   UNL     2      -6.035   8.163  68.411  1.00  0.00    -0.041 C  
HETATM    5  H   UNL     2      -4.658   7.480  67.246  1.00  0.00     0.000 HD 
HETATM    6  H   UNL     3      -9.168  15.086  65.638  1.00  0.00     0.000 HD 
HETATM    7  C   UNL     3      -8.849  13.553  66.850  1.00  0.00    -0.182 C  
ENDROOT
BRANCH   4   8
HETATM    8  C   UNL     2      -7.116   9.208  68.218  1.00  0.00    -0.077 C  
HETATM    9  H   UNL     2      -7.123  11.157  68.130  1.00  0.00     0.000 HD 
HETATM   10  O   UNL     2      -6.445  10.503  68.251  1.00  0.00    -0.055 OA 
BRANCH   8  11
HETATM   11  C   UNL     2      -8.341   9.111  69.100  1.00  0.00    -0.123 C  
HETATM   12  O   UNL     2     -10.664   8.668  68.857  1.00  0.00    -0.187 OA 
HETATM   13  H   UNL     2      -9.322  10.359  70.228  1.00  0.00     0.000 HD 
HETATM   14  O   UNL     2      -9.171   7.837  67.314  1.00  0.00    -0.133 OA 
HETATM   15  O   UNL     2      -8.554  10.421  69.673  1.00  0.00    -0.145 OA 
HETATM   16  C   UNL     2      -9.540   8.518  68.336  1.00  0.00    -0.147 C  
ENDBRANCH   8  11
ENDBRANCH   4   8
BRANCH   7  17
HETATM   17  C   UNL     3      -8.846  12.017  66.778  1.00  0.00    -0.198 C  
HETATM   18  O   UNL     3      -8.006  11.574  65.646  1.00  0.00    -0.349 OA 
HETATM   19  H   UNL     3      -8.004  10.626  65.601  1.00  0.00     0.000 HD 
BRANCH  17  20
HETATM   20  C   UNL     3     -10.218  11.330  66.798  1.00  0.00    -0.226 C  
HETATM   21  C   UNL     3     -11.010  11.871  65.579  1.00  0.00    -0.297 C  
HETATM   22  O   UNL     3     -10.838  11.585  68.091  1.00  0.00    -0.193 OA 
HETATM   23  O   UNL     3     -10.342  11.725  64.491  1.00  0.00    -0.263 OA 
HETATM   24  O   UNL     3     -12.086  12.470  65.778  1.00  0.00    -0.511 OA 
HETATM   25  H   UNL     3     -11.688  11.160  68.103  1.00  0.00     0.000 HD 
ENDBRANCH  17  20
ENDBRANCH   7  17
TORSDOF 4
ENDMDL
MODEL      141
REMARK 921   NORMALIZED FREE ENERGY PREDICTED BY IDOCK:   -2.97 KCAL/MOL
REMARK 922        TOTAL FREE ENERGY PREDICTED BY IDOCK:   -4.85 KCAL/MOL
REMARK 923 INTER-LIGAND FREE ENERGY PREDICTED BY IDOCK:   -4.67 KCAL/MOL
REMARK 924 INTRA-LIGAND FREE ENERGY PREDICTED BY IDOCK:   -0.18 KCAL/MOL
REMARK 927      BINDING AFFINITY PREDICTED BY RF-SCORE:    0.00 PKD
ROOT
HETATM    1 CA   UNL     1      -7.707  11.271  70.432  1.00  0.00    -0.329 Ca 
HETATM    2  O   UNL     2      -8.297  13.529  68.870  1.00  0.00    -0.347 OA 
HETATM    3  O   UNL     3      -8.875   6.739  71.444  1.00  0.00    -0.131 OA 
HETATM    4  C   UNL     2      -8.878  12.983  67.641  1.00  0.00    -0.191 C  
HETATM    5  H   UNL     2      -8.005  14.398  68.620  1.00  0.00     0.000 HD 
HETATM    6  H   UNL     3      -8.430   5.905  71.533  1.00  0.00     0.000 HD 
HETATM    7  C   UNL     3      -8.849   7.208  70.101  1.00  0.00    -0.145 C  
ENDROOT
BRANCH   4   8
HETATM    8  C   UNL     2      -9.344  11.596  68.041  1.00  0.00    -0.178 C  
HETATM    9  H   UNL     2      -8.432   9.967  68.606  1.00  0.00     0.000 HD 
HETATM   10  O   UNL     2      -8.139  10.835  68.355  1.00  0.00    -0.114 OA 
BRANCH   8  11
HETATM   11  C   UNL     2     -10.307  10.893  67.111  1.00  0.00    -0.220 C  
HETATM   12  O   UNL     2     -10.599  10.584  64.771  1.00  0.00    -0.253 OA 
HETATM   13  H   UNL     2     -12.202  11.079  66.701  1.00  0.00     0.000 HD 
HETATM   14  O   UNL     2      -8.501  11.012  65.619  1.00  0.00    -0.170 OA 
HETATM   15  O   UNL     2     -11.597  11.521  67.285  1.00  0.00    -0.506 OA 
HETATM   16  C   UNL     2      -9.774  10.863  65.666  1.00  0.00    -0.232 C  
ENDBRANCH   8  11
ENDBRANCH   4   8
BRANCH   7  17
HETATM   17  C   UNL     3      -9.571   8.557  69.957  1.00  0.00    -0.169 C  
HETATM   18  O   UNL     3      -9.100   9.488  71.003  1.00  0.00    -0.268 OA 
HETATM   19  H   UNL     3      -9.545  10.322  70.914  1.00  0.00     0.000 HD 
BRANCH  17  20
HETATM   20  C   UNL     3     -11.102   8.506  69.859  1.00  0.00    -0.112 C  
HETATM   21  C   UNL     3     -11.649   9.639  70.765  1.00  0.00    -0.321 C  
HETATM   22  O   UNL     3     -11.538   7.166  70.226  1.00  0.00    -0.419 OA 
HETATM   23  O   UNL     3     -11.120  10.770  70.463  1.00  0.00    -0.233 OA 
HETATM   24  O   UNL     3     -12.397   9.340  71.717  1.00  0.00    -0.332 OA 
HETATM   25  H   UNL     3     -12.486   7.134  70.165  1.00  0.00     0.000 HD 
ENDBRANCH  17  20
ENDBRANCH   7  17
TORSDOF 4
ENDMDL
MODEL      142
REMARK 921   NORMALIZED FREE ENERGY PREDICTED BY IDOCK:   -2.96 KCAL/MOL
REMARK 922        TOTAL FREE ENERGY PREDICTED BY IDOCK:   -4.83 KCAL/MOL
REMARK 923 INTER-LIGAND FREE ENERGY PREDICTED BY IDOCK:   -4.84 KCAL/MOL
REMARK 924 INTRA-LIGAND FREE ENERGY PREDICTED BY IDOCK:    0.00 KCAL/MOL
REMARK 927      BINDING AFFINITY PREDICTED BY RF-SCORE:    0.00 PKD
ROOT
HETATM    1 CA   UNL     1     -12.394   6.667  68.314  1.00  0.00    -0.412 Ca 
HETATM    2  O   UNL     2     -10.575   5.905  66.315  1.00  0.00    -0.458 OA 
HETATM    3  O   UNL     3     -12.914   8.478  72.716  1.00  0.00    -0.628 OA 
HETATM    4  C   UNL     2      -9.410   6.767  66.533  1.00  0.00    -0.161 C  
HETATM    5  H   UNL     2     -10.486   5.623  65.413  1.00  0.00     0.000 HD 
HETATM    6  H   UNL     3     -13.423   9.161  73.136  1.00  0.00     0.000 HD 
HETATM    7  C   UNL     3     -11.959   9.015  71.810  1.00  0.00    -0.368 C  
ENDROOT
BRANCH   4   8
HETATM    8  C   UNL     2      -9.550   7.217  67.974  1.00  0.00    -0.134 C  
HETATM    9  H   UNL     2     -10.594   8.601  68.868  1.00  0.00     0.000 HD 
HETATM   10  O   UNL     2     -10.506   8.319  67.966  1.00  0.00    -0.215 OA 
BRANCH   8  11
HETATM   11  C   UNL     2      -8.278   7.493  68.742  1.00  0.00    -0.129 C  
HETATM   12  O   UNL     2      -6.117   8.392  68.320  1.00  0.00    -0.044 OA 
HETATM   13  H   UNL     2      -6.965   6.390  69.666  1.00  0.00     0.000 HD 
HETATM   14  O   UNL     2      -7.897   9.014  66.997  1.00  0.00    -0.097 OA 
HETATM   15  O   UNL     2      -7.764   6.216  69.183  1.00  0.00    -0.096 OA 
HETATM   16  C   UNL     2      -7.299   8.354  67.920  1.00  0.00    -0.096 C  
ENDBRANCH   8  11
ENDBRANCH   4   8
BRANCH   7  17
HETATM   17  C   UNL     3     -11.135   7.909  71.131  1.00  0.00    -0.255 C  
HETATM   18  O   UNL     3     -12.029   7.034  70.345  1.00  0.00    -0.523 OA 
HETATM   19  H   UNL     3     -11.520   6.351  69.926  1.00  0.00     0.000 HD 
BRANCH  17  20
HETATM   20  C   UNL     3     -10.179   7.117  72.035  1.00  0.00    -0.190 C  
HETATM   21  C   UNL     3     -10.456   5.614  71.775  1.00  0.00    -0.228 C  
HETATM   22  O   UNL     3     -10.389   7.548  73.410  1.00  0.00    -0.333 OA 
HETATM   23  O   UNL     3     -10.377   5.338  70.522  1.00  0.00    -0.252 OA 
HETATM   24  O   UNL     3     -10.830   4.898  72.725  1.00  0.00    -0.216 OA 
HETATM   25  H   UNL     3      -9.797   7.058  73.969  1.00  0.00     0.000 HD 
ENDBRANCH  17  20
ENDBRANCH   7  17
TORSDOF 4
ENDMDL
MODEL      143
REMARK 921   NORMALIZED FREE ENERGY PREDICTED BY IDOCK:   -2.96 KCAL/MOL
REMARK 922        TOTAL FREE ENERGY PREDICTED BY IDOCK:   -4.83 KCAL/MOL
REMARK 923 INTER-LIGAND FREE ENERGY PREDICTED BY IDOCK:   -4.88 KCAL/MOL
REMARK 924 INTRA-LIGAND FREE ENERGY PREDICTED BY IDOCK:    0.05 KCAL/MOL
REMARK 927      BINDING AFFINITY PREDICTED BY RF-SCORE:    0.00 PKD
ROOT
HETATM    1 CA   UNL     1     -10.871   7.851  66.108  1.00  0.00    -0.444 Ca 
HETATM    2  O   UNL     2     -11.067   5.099  65.584  1.00  0.00    -0.763 OA 
HETATM    3  O   UNL     3     -10.156  11.207  69.447  1.00  0.00    -0.411 OA 
HETATM    4  C   UNL     2     -10.227   4.471  66.608  1.00  0.00    -0.162 C  
HETATM    5  H   UNL     2     -11.128   4.441  64.902  1.00  0.00     0.000 HD 
HETATM    6  H   UNL     3      -9.612  11.978  69.559  1.00  0.00     0.000 HD 
HETATM    7  C   UNL     3      -9.380  10.015  69.427  1.00  0.00    -0.223 C  
ENDROOT
BRANCH   4   8
HETATM    8  C   UNL     2     -10.130   5.521  67.697  1.00  0.00    -0.178 C  
HETATM    9  H   UNL     2     -11.130   7.144  68.113  1.00  0.00     0.000 HD 
HETATM   10  O   UNL     2     -11.191   6.486  67.431  1.00  0.00    -0.359 OA 
BRANCH   8  11
HETATM   11  C   UNL     2      -8.771   6.135  67.950  1.00  0.00    -0.113 C  
HETATM   12  O   UNL     2      -6.882   6.830  66.684  1.00  0.00    -0.058 OA 
HETATM   13  H   UNL     2      -7.162   5.568  68.891  1.00  0.00     0.000 HD 
HETATM   14  O   UNL     2      -8.964   6.778  65.702  1.00  0.00    -0.085 OA 
HETATM   15  O   UNL     2      -8.016   5.182  68.732  1.00  0.00    -0.081 OA 
HETATM   16  C   UNL     2      -8.106   6.591  66.637  1.00  0.00    -0.110 C  
ENDBRANCH   8  11
ENDBRANCH   4   8
BRANCH   7  17
HETATM   17  C   UNL     3     -10.260   8.768  69.246  1.00  0.00    -0.210 C  
HETATM   18  O   UNL     3     -11.262   9.014  68.188  1.00  0.00    -0.469 OA 
HETATM   19  H   UNL     3     -11.805   8.244  68.076  1.00  0.00     0.000 HD 
BRANCH  17  20
HETATM   20  C   UNL     3     -10.882   8.180  70.521  1.00  0.00    -0.240 C  
HETATM   21  C   UNL     3      -9.833   7.216  71.130  1.00  0.00    -0.179 C  
HETATM   22  O   UNL     3     -12.150   7.559  70.166  1.00  0.00    -0.481 OA 
HETATM   23  O   UNL     3      -8.703   7.804  71.296  1.00  0.00    -0.127 OA 
HETATM   24  O   UNL     3     -10.131   6.012  71.269  1.00  0.00    -0.184 OA 
HETATM   25  H   UNL     3     -12.536   7.195  70.954  1.00  0.00     0.000 HD 
ENDBRANCH  17  20
ENDBRANCH   7  17
TORSDOF 4
ENDMDL
MODEL      144
REMARK 921   NORMALIZED FREE ENERGY PREDICTED BY IDOCK:   -2.95 KCAL/MOL
REMARK 922        TOTAL FREE ENERGY PREDICTED BY IDOCK:   -4.81 KCAL/MOL
REMARK 923 INTER-LIGAND FREE ENERGY PREDICTED BY IDOCK:   -3.89 KCAL/MOL
REMARK 924 INTRA-LIGAND FREE ENERGY PREDICTED BY IDOCK:   -0.92 KCAL/MOL
REMARK 927      BINDING AFFINITY PREDICTED BY RF-SCORE:    0.00 PKD
ROOT
HETATM    1 CA   UNL     1      -6.782  10.356  66.387  1.00  0.00    -0.071 Ca 
HETATM    2  O   UNL     2      -8.051   7.851  66.424  1.00  0.00    -0.102 OA 
HETATM    3  O   UNL     3      -7.030  14.943  67.741  1.00  0.00    -0.141 OA 
HETATM    4  C   UNL     2      -8.847   7.863  67.654  1.00  0.00    -0.128 C  
HETATM    5  H   UNL     2      -7.953   6.929  66.222  1.00  0.00     0.000 HD 
HETATM    6  H   UNL     3      -6.468  15.577  68.170  1.00  0.00     0.000 HD 
HETATM    7  C   UNL     3      -7.411  13.896  68.625  1.00  0.00    -0.122 C  
ENDROOT
BRANCH   4   8
HETATM    8  C   UNL     2      -9.004   9.335  67.976  1.00  0.00    -0.128 C  
HETATM    9  H   UNL     2      -7.816  10.700  68.707  1.00  0.00     0.000 HD 
HETATM   10  O   UNL     2      -7.718   9.777  68.505  1.00  0.00    -0.080 OA 
BRANCH   8  11
HETATM   11  C   UNL     2     -10.199   9.740  68.810  1.00  0.00    -0.194 C  
HETATM   12  O   UNL     2     -12.146  11.085  68.572  1.00  0.00    -0.573 OA 
HETATM   13  H   UNL     2     -10.446  10.754  70.454  1.00  0.00     0.000 HD 
HETATM   14  O   UNL     2     -11.156  10.162  66.710  1.00  0.00    -0.059 OA 
HETATM   15  O   UNL     2      -9.695  10.501  69.931  1.00  0.00    -0.086 OA 
HETATM   16  C   UNL     2     -11.268  10.448  67.955  1.00  0.00    -0.263 C  
ENDBRANCH   8  11
ENDBRANCH   4   8
BRANCH   7  17
HETATM   17  C   UNL     3      -8.321  12.870  67.930  1.00  0.00    -0.170 C  
HETATM   18  O   UNL     3      -7.751  12.508  66.615  1.00  0.00    -0.382 OA 
HETATM   19  H   UNL     3      -8.314  11.875  66.186  1.00  0.00     0.000 HD 
BRANCH  17  20
HETATM   20  C   UNL     3      -9.813  13.225  67.849  1.00  0.00    -0.234 C  
HETATM   21  C   UNL     3      -9.917  14.553  67.057  1.00  0.00    -0.255 C  
HETATM   22  O   UNL     3     -10.344  13.278  69.204  1.00  0.00    -0.430 OA 
HETATM   23  O   UNL     3      -9.314  14.466  65.925  1.00  0.00    -0.208 OA 
HETATM   24  O   UNL     3     -10.427  15.547  67.612  1.00  0.00    -0.267 OA 
HETATM   25  H   UNL     3     -11.267  13.498  69.154  1.00  0.00     0.000 HD 
ENDBRANCH  17  20
ENDBRANCH   7  17
TORSDOF 4
ENDMDL
MODEL      145
REMARK 921   NORMALIZED FREE ENERGY PREDICTED BY IDOCK:   -2.92 KCAL/MOL
REMARK 922        TOTAL FREE ENERGY PREDICTED BY IDOCK:   -4.79 KCAL/MOL
REMARK 923 INTER-LIGAND FREE ENERGY PREDICTED BY IDOCK:   -4.82 KCAL/MOL
REMARK 924 INTRA-LIGAND FREE ENERGY PREDICTED BY IDOCK:    0.04 KCAL/MOL
REMARK 927      BINDING AFFINITY PREDICTED BY RF-SCORE:    0.00 PKD
ROOT
HETATM    1 CA   UNL     1     -10.949   3.697  72.317  1.00  0.00    -0.149 Ca 
HETATM    2  O   UNL     2      -8.192   3.191  72.485  1.00  0.00    -0.069 OA 
HETATM    3  O   UNL     3     -14.344   7.050  71.915  1.00  0.00    -0.537 OA 
HETATM    4  C   UNL     2      -7.572   4.303  71.760  1.00  0.00    -0.070 C  
HETATM    5  H   UNL     2      -7.526   2.514  72.481  1.00  0.00     0.000 HD 
HETATM    6  H   UNL     3     -15.112   7.207  71.378  1.00  0.00     0.000 HD 
HETATM    7  C   UNL     3     -13.146   7.124  71.153  1.00  0.00    -0.228 C  
ENDROOT
BRANCH   4   8
HETATM    8  C   UNL     2      -8.635   5.383  71.765  1.00  0.00    -0.131 C  
HETATM    9  H   UNL     2     -10.218   5.727  72.853  1.00  0.00     0.000 HD 
HETATM   10  O   UNL     2      -9.551   5.050  72.851  1.00  0.00    -0.142 OA 
BRANCH   8  11
HETATM   11  C   UNL     2      -9.309   5.699  70.448  1.00  0.00    -0.160 C  
HETATM   12  O   UNL     2      -9.974   4.543  68.480  1.00  0.00    -0.126 OA 
HETATM   13  H   UNL     2      -8.862   6.806  68.909  1.00  0.00     0.000 HD 
HETATM   14  O   UNL     2      -9.785   3.403  70.471  1.00  0.00    -0.177 OA 
HETATM   15  O   UNL     2      -8.439   6.607  69.735  1.00  0.00    -0.129 OA 
HETATM   16  C   UNL     2      -9.693   4.415  69.689  1.00  0.00    -0.219 C  
ENDBRANCH   8  11
ENDBRANCH   4   8
BRANCH   7  17
HETATM   17  C   UNL     3     -11.904   6.870  72.022  1.00  0.00    -0.310 C  
HETATM   18  O   UNL     3     -12.127   5.683  72.874  1.00  0.00    -0.550 OA 
HETATM   19  H   UNL     3     -11.359   5.526  73.411  1.00  0.00     0.000 HD 
BRANCH  17  20
HETATM   20  C   UNL     3     -11.366   8.071  72.813  1.00  0.00    -0.374 C  
HETATM   21  C   UNL     3     -10.356   8.801  71.892  1.00  0.00    -0.344 C  
HETATM   22  O   UNL     3     -10.808   7.579  74.065  1.00  0.00    -0.511 OA 
HETATM   23  O   UNL     3     -10.886   9.088  70.757  1.00  0.00    -0.220 OA 
HETATM   24  O   UNL     3      -9.171   8.913  72.267  1.00  0.00    -0.376 OA 
HETATM   25  H   UNL     3     -10.475   8.322  74.555  1.00  0.00     0.000 HD 
ENDBRANCH  17  20
ENDBRANCH   7  17
TORSDOF 4
ENDMDL
MODEL      146
REMARK 921   NORMALIZED FREE ENERGY PREDICTED BY IDOCK:   -2.91 KCAL/MOL
REMARK 922        TOTAL FREE ENERGY PREDICTED BY IDOCK:   -4.77 KCAL/MOL
REMARK 923 INTER-LIGAND FREE ENERGY PREDICTED BY IDOCK:   -5.47 KCAL/MOL
REMARK 924 INTRA-LIGAND FREE ENERGY PREDICTED BY IDOCK:    0.69 KCAL/MOL
REMARK 927      BINDING AFFINITY PREDICTED BY RF-SCORE:    0.00 PKD
ROOT
HETATM    1 CA   UNL     1     -10.582   5.605  74.034  1.00  0.00    -0.181 Ca 
HETATM    2  O   UNL     2      -8.146   4.465  73.226  1.00  0.00    -0.093 OA 
HETATM    3  O   UNL     3     -13.917   8.908  73.088  1.00  0.00    -1.118 OA 
HETATM    4  C   UNL     2      -8.115   4.660  71.774  1.00  0.00    -0.103 C  
HETATM    5  H   UNL     2      -7.535   3.754  73.375  1.00  0.00     0.000 HD 
HETATM    6  H   UNL     3     -14.863   8.945  73.013  1.00  0.00     0.000 HD 
HETATM    7  C   UNL     3     -13.337   8.133  72.047  1.00  0.00    -0.282 C  
ENDROOT
BRANCH   4   8
HETATM    8  C   UNL     2      -9.092   5.795  71.535  1.00  0.00    -0.140 C  
HETATM    9  H   UNL     2      -9.856   7.190  72.664  1.00  0.00     0.000 HD 
HETATM   10  O   UNL     2      -9.244   6.479  72.814  1.00  0.00    -0.138 OA 
BRANCH   8  11
HETATM   11  C   UNL     2     -10.393   5.456  70.844  1.00  0.00    -0.242 C  
HETATM   12  O   UNL     2     -11.864   6.447  69.260  1.00  0.00    -0.146 OA 
HETATM   13  H   UNL     2     -12.224   5.154  71.436  1.00  0.00     0.000 HD 
HETATM   14  O   UNL     2      -9.637   7.030  69.278  1.00  0.00    -0.154 OA 
HETATM   15  O   UNL     2     -11.407   5.367  71.871  1.00  0.00    -0.137 OA 
HETATM   16  C   UNL     2     -10.695   6.441  69.698  1.00  0.00    -0.282 C  
ENDBRANCH   8  11
ENDBRANCH   4   8
BRANCH   7  17
HETATM   17  C   UNL     3     -11.806   8.073  72.169  1.00  0.00    -0.349 C  
HETATM   18  O   UNL     3     -11.432   7.589  73.514  1.00  0.00    -0.608 OA 
HETATM   19  H   UNL     3     -10.486   7.552  73.590  1.00  0.00     0.000 HD 
BRANCH  17  20
HETATM   20  C   UNL     3     -11.039   9.339  71.764  1.00  0.00    -0.327 C  
HETATM   21  C   UNL     3     -11.759   9.923  70.521  1.00  0.00    -0.295 C  
HETATM   22  O   UNL     3      -9.644   8.979  71.548  1.00  0.00    -0.282 OA 
HETATM   23  O   UNL     3     -13.012  10.095  70.749  1.00  0.00    -0.358 OA 
HETATM   24  O   UNL     3     -11.122  10.040  69.455  1.00  0.00    -0.233 OA 
HETATM   25  H   UNL     3      -9.169   9.763  71.297  1.00  0.00     0.000 HD 
ENDBRANCH  17  20
ENDBRANCH   7  17
TORSDOF 4
ENDMDL
MODEL      147
REMARK 921   NORMALIZED FREE ENERGY PREDICTED BY IDOCK:   -2.88 KCAL/MOL
REMARK 922        TOTAL FREE ENERGY PREDICTED BY IDOCK:   -4.74 KCAL/MOL
REMARK 923 INTER-LIGAND FREE ENERGY PREDICTED BY IDOCK:   -5.09 KCAL/MOL
REMARK 924 INTRA-LIGAND FREE ENERGY PREDICTED BY IDOCK:    0.35 KCAL/MOL
REMARK 927      BINDING AFFINITY PREDICTED BY RF-SCORE:    0.00 PKD
ROOT
HETATM    1 CA   UNL     1     -10.045   8.138  65.252  1.00  0.00    -0.393 Ca 
HETATM    2  O   UNL     2     -11.098   5.768  66.329  1.00  0.00    -0.733 OA 
HETATM    3  O   UNL     3      -8.918  12.715  66.096  1.00  0.00    -0.426 OA 
HETATM    4  C   UNL     2     -10.786   5.845  67.758  1.00  0.00    -0.265 C  
HETATM    5  H   UNL     2     -11.241   4.842  66.174  1.00  0.00     0.000 HD 
HETATM    6  H   UNL     3      -8.172  13.287  65.963  1.00  0.00     0.000 HD 
HETATM    7  C   UNL     3      -8.639  11.702  67.054  1.00  0.00    -0.169 C  
ENDROOT
BRANCH   4   8
HETATM    8  C   UNL     2     -10.558   7.323  68.005  1.00  0.00    -0.189 C  
HETATM    9  H   UNL     2     -10.968   8.947  67.004  1.00  0.00     0.000 HD 
HETATM   10  O   UNL     2     -11.111   8.021  66.849  1.00  0.00     0.012 OA 
BRANCH   8  11
HETATM   11  C   UNL     2      -9.160   7.755  68.389  1.00  0.00    -0.131 C  
HETATM   12  O   UNL     2      -6.919   7.195  67.827  1.00  0.00    -0.071 OA 
HETATM   13  H   UNL     2      -8.112   7.708  70.030  1.00  0.00     0.000 HD 
HETATM   14  O   UNL     2      -8.610   6.818  66.311  1.00  0.00    -0.127 OA 
HETATM   15  O   UNL     2      -8.989   7.436  69.789  1.00  0.00    -0.141 OA 
HETATM   16  C   UNL     2      -8.105   7.159  67.439  1.00  0.00    -0.112 C  
ENDBRANCH   8  11
ENDBRANCH   4   8
BRANCH   7  17
HETATM   17  C   UNL     3      -9.846  10.775  67.270  1.00  0.00    -0.179 C  
HETATM   18  O   UNL     3     -10.332  10.279  65.965  1.00  0.00    -0.237 OA 
HETATM   19  H   UNL     3     -11.078   9.706  66.098  1.00  0.00     0.000 HD 
BRANCH  17  20
HETATM   20  C   UNL     3     -10.978  11.322  68.151  1.00  0.00    -0.231 C  
HETATM   21  C   UNL     3     -11.628  12.495  67.372  1.00  0.00    -0.370 C  
HETATM   22  O   UNL     3     -10.416  11.685  69.444  1.00  0.00    -0.431 OA 
HETATM   23  O   UNL     3     -11.983  12.128  66.193  1.00  0.00    -0.593 OA 
HETATM   24  O   UNL     3     -11.624  13.632  67.883  1.00  0.00    -0.301 OA 
HETATM   25  H   UNL     3     -11.116  12.023  69.990  1.00  0.00     0.000 HD 
ENDBRANCH  17  20
ENDBRANCH   7  17
TORSDOF 4
ENDMDL
MODEL      148
REMARK 921   NORMALIZED FREE ENERGY PREDICTED BY IDOCK:   -2.86 KCAL/MOL
REMARK 922        TOTAL FREE ENERGY PREDICTED BY IDOCK:   -4.71 KCAL/MOL
REMARK 923 INTER-LIGAND FREE ENERGY PREDICTED BY IDOCK:   -4.12 KCAL/MOL
REMARK 924 INTRA-LIGAND FREE ENERGY PREDICTED BY IDOCK:   -0.59 KCAL/MOL
REMARK 927      BINDING AFFINITY PREDICTED BY RF-SCORE:    0.00 PKD
ROOT
HETATM    1 CA   UNL     1      -7.830   8.880  65.796  1.00  0.00    -0.086 Ca 
HETATM    2  O   UNL     2      -7.366  11.627  66.150  1.00  0.00    -0.367 OA 
HETATM    3  O   UNL     3     -10.566   5.137  66.994  1.00  0.00    -0.223 OA 
HETATM    4  C   UNL     2      -8.684  12.182  66.472  1.00  0.00    -0.114 C  
HETATM    5  H   UNL     2      -6.870  12.376  65.843  1.00  0.00     0.000 HD 
HETATM    6  H   UNL     3     -11.034   4.442  66.547  1.00  0.00     0.000 HD 
HETATM    7  C   UNL     3     -11.140   6.411  66.729  1.00  0.00    -0.170 C  
ENDROOT
BRANCH   4   8
HETATM    8  C   UNL     2      -9.476  10.986  66.961  1.00  0.00    -0.173 C  
HETATM    9  H   UNL     2     -10.431   9.534  66.075  1.00  0.00     0.000 HD 
HETATM   10  O   UNL     2      -9.935  10.283  65.768  1.00  0.00    -0.242 OA 
BRANCH   8  11
HETATM   11  C   UNL     2     -10.551  11.241  67.994  1.00  0.00    -0.195 C  
HETATM   12  O   UNL     2     -10.981  10.702  70.269  1.00  0.00    -0.273 OA 
HETATM   13  H   UNL     2     -12.432  10.763  68.164  1.00  0.00     0.000 HD 
HETATM   14  O   UNL     2      -8.812  10.774  69.498  1.00  0.00    -0.040 OA 
HETATM   15  O   UNL     2     -11.756  10.602  67.516  1.00  0.00    -0.445 OA 
HETATM   16  C   UNL     2     -10.090  10.820  69.403  1.00  0.00    -0.139 C  
ENDBRANCH   8  11
ENDBRANCH   4   8
BRANCH   7  17
HETATM   17  C   UNL     3     -10.383   7.537  67.452  1.00  0.00    -0.276 C  
HETATM   18  O   UNL     3      -8.971   7.547  67.014  1.00  0.00    -0.123 OA 
HETATM   19  H   UNL     3      -8.503   8.243  67.461  1.00  0.00     0.000 HD 
BRANCH  17  20
HETATM   20  C   UNL     3     -10.527   7.586  68.979  1.00  0.00    -0.208 C  
HETATM   21  C   UNL     3      -9.177   7.108  69.574  1.00  0.00    -0.149 C  
HETATM   22  O   UNL     3     -11.680   6.779  69.355  1.00  0.00    -0.619 OA 
HETATM   23  O   UNL     3      -8.195   7.785  69.097  1.00  0.00    -0.126 OA 
HETATM   24  O   UNL     3      -9.166   6.099  70.307  1.00  0.00    -0.154 OA 
HETATM   25  H   UNL     3     -11.769   6.809  70.301  1.00  0.00     0.000 HD 
ENDBRANCH  17  20
ENDBRANCH   7  17
TORSDOF 4
ENDMDL
MODEL      149
REMARK 921   NORMALIZED FREE ENERGY PREDICTED BY IDOCK:   -2.85 KCAL/MOL
REMARK 922        TOTAL FREE ENERGY PREDICTED BY IDOCK:   -4.70 KCAL/MOL
REMARK 923 INTER-LIGAND FREE ENERGY PREDICTED BY IDOCK:   -4.45 KCAL/MOL
REMARK 924 INTRA-LIGAND FREE ENERGY PREDICTED BY IDOCK:   -0.25 KCAL/MOL
REMARK 927      BINDING AFFINITY PREDICTED BY RF-SCORE:    0.00 PKD
ROOT
HETATM    1 CA   UNL     1     -10.576   7.994  66.900  1.00  0.00    -0.205 Ca 
HETATM    2  O   UNL     2      -8.805   6.482  68.470  1.00  0.00    -0.122 OA 
HETATM    3  O   UNL     3     -12.285  12.365  65.951  1.00  0.00    -0.629 OA 
HETATM    4  C   UNL     2      -7.725   7.415  68.804  1.00  0.00    -0.119 C  
HETATM    5  H   UNL     2      -8.414   5.625  68.592  1.00  0.00     0.000 HD 
HETATM    6  H   UNL     3     -12.435  12.906  65.185  1.00  0.00     0.000 HD 
HETATM    7  C   UNL     3     -10.898  12.154  66.182  1.00  0.00    -0.282 C  
ENDROOT
BRANCH   4   8
HETATM    8  C   UNL     2      -8.348   8.783  68.608  1.00  0.00    -0.128 C  
HETATM    9  H   UNL     2      -7.629  10.576  68.335  1.00  0.00     0.000 HD 
HETATM   10  O   UNL     2      -7.239   9.719  68.458  1.00  0.00    -0.069 OA 
BRANCH   8  11
HETATM   11  C   UNL     2      -9.405   9.213  69.600  1.00  0.00    -0.172 C  
HETATM   12  O   UNL     2      -9.733   9.188  71.955  1.00  0.00    -0.283 OA 
HETATM   13  H   UNL     2     -11.248   8.692  69.955  1.00  0.00     0.000 HD 
HETATM   14  O   UNL     2      -7.597   9.192  71.095  1.00  0.00    -0.191 OA 
HETATM   15  O   UNL     2     -10.584   8.421  69.332  1.00  0.00    -0.224 OA 
HETATM   16  C   UNL     2      -8.878   9.150  71.047  1.00  0.00    -0.202 C  
ENDBRANCH   8  11
ENDBRANCH   4   8
BRANCH   7  17
HETATM   17  C   UNL     3     -10.656  11.278  67.422  1.00  0.00    -0.224 C  
HETATM   18  O   UNL     3     -11.842  10.433  67.674  1.00  0.00    -0.549 OA 
HETATM   19  H   UNL     3     -11.692   9.892  68.440  1.00  0.00     0.000 HD 
BRANCH  17  20
HETATM   20  C   UNL     3     -10.169  12.002  68.685  1.00  0.00    -0.177 C  
HETATM   21  C   UNL     3     -11.126  13.199  68.915  1.00  0.00    -0.266 C  
HETATM   22  O   UNL     3      -8.771  12.365  68.493  1.00  0.00    -0.298 OA 
HETATM   23  O   UNL     3     -12.352  12.814  68.945  1.00  0.00    -0.073 OA 
HETATM   24  O   UNL     3     -10.655  14.355  68.917  1.00  0.00    -0.239 OA 
HETATM   25  H   UNL     3      -8.469  12.813  69.275  1.00  0.00     0.000 HD 
ENDBRANCH  17  20
ENDBRANCH   7  17
TORSDOF 4
ENDMDL
MODEL      150
REMARK 921   NORMALIZED FREE ENERGY PREDICTED BY IDOCK:   -2.82 KCAL/MOL
REMARK 922        TOTAL FREE ENERGY PREDICTED BY IDOCK:   -4.66 KCAL/MOL
REMARK 923 INTER-LIGAND FREE ENERGY PREDICTED BY IDOCK:   -4.78 KCAL/MOL
REMARK 924 INTRA-LIGAND FREE ENERGY PREDICTED BY IDOCK:    0.12 KCAL/MOL
REMARK 927      BINDING AFFINITY PREDICTED BY RF-SCORE:    0.00 PKD
ROOT
HETATM    1 CA   UNL     1     -10.036   8.108  65.276  1.00  0.00    -0.418 Ca 
HETATM    2  O   UNL     2     -11.070   5.623  66.077  1.00  0.00    -0.721 OA 
HETATM    3  O   UNL     3      -8.728  12.494  66.683  1.00  0.00    -0.329 OA 
HETATM    4  C   UNL     2     -10.652   5.486  67.475  1.00  0.00    -0.177 C  
HETATM    5  H   UNL     2     -11.248   4.732  65.802  1.00  0.00     0.000 HD 
HETATM    6  H   UNL     3      -7.979  13.068  66.578  1.00  0.00     0.000 HD 
HETATM    7  C   UNL     3      -8.407  11.348  67.461  1.00  0.00    -0.137 C  
ENDROOT
BRANCH   4   8
HETATM    8  C   UNL     2     -10.367   6.909  67.914  1.00  0.00    -0.195 C  
HETATM    9  H   UNL     2     -10.792   8.667  67.182  1.00  0.00     0.000 HD 
HETATM   10  O   UNL     2     -10.970   7.776  66.907  1.00  0.00    -0.217 OA 
BRANCH   8  11
HETATM   11  C   UNL     2      -8.937   7.254  68.265  1.00  0.00    -0.125 C  
HETATM   12  O   UNL     2      -6.751   6.737  67.486  1.00  0.00    -0.065 OA 
HETATM   13  H   UNL     2      -7.793   6.949  69.812  1.00  0.00     0.000 HD 
HETATM   14  O   UNL     2      -8.542   6.616  66.043  1.00  0.00    -0.139 OA 
HETATM   15  O   UNL     2      -8.691   6.732  69.591  1.00  0.00    -0.135 OA 
HETATM   16  C   UNL     2      -7.959   6.780  67.174  1.00  0.00    -0.116 C  
ENDBRANCH   8  11
ENDBRANCH   4   8
BRANCH   7  17
HETATM   17  C   UNL     3      -9.620  10.419  67.632  1.00  0.00    -0.149 C  
HETATM   18  O   UNL     3     -10.183  10.088  66.307  1.00  0.00    -0.241 OA 
HETATM   19  H   UNL     3     -10.933   9.514  66.412  1.00  0.00     0.000 HD 
BRANCH  17  20
HETATM   20  C   UNL     3     -10.692  10.873  68.632  1.00  0.00    -0.203 C  
HETATM   21  C   UNL     3     -10.543   9.979  69.889  1.00  0.00    -0.282 C  
HETATM   22  O   UNL     3     -11.990  10.794  67.977  1.00  0.00    -0.780 OA 
HETATM   23  O   UNL     3      -9.338  10.002  70.335  1.00  0.00    -0.108 OA 
HETATM   24  O   UNL     3     -11.508   9.273  70.244  1.00  0.00    -0.243 OA 
HETATM   25  H   UNL     3     -12.655  11.075  68.595  1.00  0.00     0.000 HD 
ENDBRANCH  17  20
ENDBRANCH   7  17
TORSDOF 4
ENDMDL
MODEL      151
REMARK 921   NORMALIZED FREE ENERGY PREDICTED BY IDOCK:   -2.80 KCAL/MOL
REMARK 922        TOTAL FREE ENERGY PREDICTED BY IDOCK:   -4.64 KCAL/MOL
REMARK 923 INTER-LIGAND FREE ENERGY PREDICTED BY IDOCK:   -4.59 KCAL/MOL
REMARK 924 INTRA-LIGAND FREE ENERGY PREDICTED BY IDOCK:   -0.05 KCAL/MOL
REMARK 927      BINDING AFFINITY PREDICTED BY RF-SCORE:    0.00 PKD
ROOT
HETATM    1 CA   UNL     1      -7.482  17.763  65.125  1.00  0.00    -0.161 Ca 
HETATM    2  O   UNL     2      -5.464  19.207  66.440  1.00  0.00    -0.156 OA 
HETATM    3  O   UNL     3     -11.168  14.749  65.631  1.00  0.00    -0.332 OA 
HETATM    4  C   UNL     2      -6.008  19.462  67.777  1.00  0.00    -0.200 C  
HETATM    5  H   UNL     2      -4.789  19.867  66.337  1.00  0.00     0.000 HD 
HETATM    6  H   UNL     3     -12.070  14.692  65.340  1.00  0.00     0.000 HD 
HETATM    7  C   UNL     3     -10.975  15.829  66.535  1.00  0.00    -0.165 C  
ENDROOT
BRANCH   4   8
HETATM    8  C   UNL     2      -7.086  18.409  67.941  1.00  0.00    -0.224 C  
HETATM    9  H   UNL     2      -7.525  16.756  67.002  1.00  0.00     0.000 HD 
HETATM   10  O   UNL     2      -6.849  17.416  66.899  1.00  0.00    -0.161 OA 
BRANCH   8  11
HETATM   11  C   UNL     2      -8.516  18.889  68.040  1.00  0.00    -0.295 C  
HETATM   12  O   UNL     2      -9.858  20.641  67.154  1.00  0.00    -0.469 OA 
HETATM   13  H   UNL     2      -9.634  19.588  69.474  1.00  0.00     0.000 HD 
HETATM   14  O   UNL     2      -8.009  19.912  65.991  1.00  0.00    -0.338 OA 
HETATM   15  O   UNL     2      -8.735  19.287  69.412  1.00  0.00    -0.098 OA 
HETATM   16  C   UNL     2      -8.824  19.964  66.980  1.00  0.00    -0.335 C  
ENDBRANCH   8  11
ENDBRANCH   4   8
BRANCH   7  17
HETATM   17  C   UNL     3      -9.514  15.921  67.007  1.00  0.00    -0.222 C  
HETATM   18  O   UNL     3      -8.608  15.604  65.884  1.00  0.00    -0.332 OA 
HETATM   19  H   UNL     3      -7.706  15.661  66.175  1.00  0.00     0.000 HD 
BRANCH  17  20
HETATM   20  C   UNL     3      -9.160  15.150  68.286  1.00  0.00    -0.183 C  
HETATM   21  C   UNL     3      -9.701  13.708  68.107  1.00  0.00    -0.229 C  
HETATM   22  O   UNL     3      -9.713  15.873  69.423  1.00  0.00    -0.248 OA 
HETATM   23  O   UNL     3      -9.269  13.183  67.016  1.00  0.00    -0.218 OA 
HETATM   24  O   UNL     3     -10.547  13.277  68.916  1.00  0.00    -0.221 OA 
HETATM   25  H   UNL     3      -9.495  15.396  70.215  1.00  0.00     0.000 HD 
ENDBRANCH  17  20
ENDBRANCH   7  17
TORSDOF 4
ENDMDL
MODEL      152
REMARK 921   NORMALIZED FREE ENERGY PREDICTED BY IDOCK:   -2.79 KCAL/MOL
REMARK 922        TOTAL FREE ENERGY PREDICTED BY IDOCK:   -4.62 KCAL/MOL
REMARK 923 INTER-LIGAND FREE ENERGY PREDICTED BY IDOCK:   -5.12 KCAL/MOL
REMARK 924 INTRA-LIGAND FREE ENERGY PREDICTED BY IDOCK:    0.51 KCAL/MOL
REMARK 927      BINDING AFFINITY PREDICTED BY RF-SCORE:    0.00 PKD
ROOT
HETATM    1 CA   UNL     1     -11.402  15.627  64.323  1.00  0.00    -0.350 Ca 
HETATM    2  O   UNL     2     -12.543  13.093  63.917  1.00  0.00    -0.656 OA 
HETATM    3  O   UNL     3      -9.182  18.520  67.426  1.00  0.00    -0.275 OA 
HETATM    4  C   UNL     2     -11.814  12.213  64.833  1.00  0.00    -0.302 C  
HETATM    5  H   UNL     2     -12.908  12.501  63.270  1.00  0.00     0.000 HD 
HETATM    6  H   UNL     3      -8.409  19.073  67.437  1.00  0.00     0.000 HD 
HETATM    7  C   UNL     3      -8.841  17.143  67.335  1.00  0.00    -0.212 C  
ENDROOT
BRANCH   4   8
HETATM    8  C   UNL     2     -11.231  13.158  65.865  1.00  0.00    -0.289 C  
HETATM    9  H   UNL     2      -9.810  14.495  65.834  1.00  0.00     0.000 HD 
HETATM   10  O   UNL     2     -10.175  13.902  65.188  1.00  0.00    -0.359 OA 
BRANCH   8  11
HETATM   11  C   UNL     2     -10.829  12.568  67.198  1.00  0.00    -0.250 C  
HETATM   12  O   UNL     2      -9.218  11.034  68.038  1.00  0.00    -0.150 OA 
HETATM   13  H   UNL     2     -11.701  11.425  68.512  1.00  0.00     0.000 HD 
HETATM   14  O   UNL     2      -8.799  12.183  66.088  1.00  0.00    -0.112 OA 
HETATM   15  O   UNL     2     -11.954  11.795  67.675  1.00  0.00    -0.599 OA 
HETATM   16  C   UNL     2      -9.495  11.804  67.096  1.00  0.00    -0.175 C  
ENDBRANCH   8  11
ENDBRANCH   4   8
BRANCH   7  17
HETATM   17  C   UNL     3     -10.092  16.249  67.317  1.00  0.00    -0.264 C  
HETATM   18  O   UNL     3     -10.949  16.615  66.170  1.00  0.00    -0.084 OA 
HETATM   19  H   UNL     3     -11.721  16.062  66.158  1.00  0.00     0.000 HD 
BRANCH  17  20
HETATM   20  C   UNL     3     -10.878  16.147  68.631  1.00  0.00    -0.311 C  
HETATM   21  C   UNL     3     -10.044  15.255  69.587  1.00  0.00    -0.237 C  
HETATM   22  O   UNL     3     -12.209  15.641  68.329  1.00  0.00    -0.424 OA 
HETATM   23  O   UNL     3      -8.842  15.696  69.702  1.00  0.00    -0.252 OA 
HETATM   24  O   UNL     3     -10.548  14.198  70.016  1.00  0.00     0.179 OA 
HETATM   25  H   UNL     3     -12.696  15.578  69.143  1.00  0.00     0.000 HD 
ENDBRANCH  17  20
ENDBRANCH   7  17
TORSDOF 4
ENDMDL
MODEL      153
REMARK 921   NORMALIZED FREE ENERGY PREDICTED BY IDOCK:   -2.75 KCAL/MOL
REMARK 922        TOTAL FREE ENERGY PREDICTED BY IDOCK:   -4.58 KCAL/MOL
REMARK 923 INTER-LIGAND FREE ENERGY PREDICTED BY IDOCK:   -4.77 KCAL/MOL
REMARK 924 INTRA-LIGAND FREE ENERGY PREDICTED BY IDOCK:    0.19 KCAL/MOL
REMARK 927      BINDING AFFINITY PREDICTED BY RF-SCORE:    0.00 PKD
ROOT
HETATM    1 CA   UNL     1     -11.770  10.242  66.612  1.00  0.00    -0.051 Ca 
HETATM    2  O   UNL     2     -12.614  12.586  65.315  1.00  0.00    -0.645 OA 
HETATM    3  O   UNL     3      -8.925   8.388  69.988  1.00  0.00    -0.135 OA 
HETATM    4  C   UNL     2     -12.445  13.640  66.318  1.00  0.00    -0.366 C  
HETATM    5  H   UNL     2     -13.241  12.950  64.702  1.00  0.00     0.000 HD 
HETATM    6  H   UNL     3      -9.007   7.788  70.720  1.00  0.00     0.000 HD 
HETATM    7  C   UNL     3      -9.643   9.594  70.215  1.00  0.00    -0.254 C  
ENDROOT
BRANCH   4   8
HETATM    8  C   UNL     2     -11.445  13.058  67.298  1.00  0.00    -0.332 C  
HETATM    9  H   UNL     2     -11.500  11.593  68.585  1.00  0.00     0.000 HD 
HETATM   10  O   UNL     2     -12.127  11.958  67.972  1.00  0.00    -0.541 OA 
BRANCH   8  11
HETATM   11  C   UNL     2     -10.739  14.022  68.224  1.00  0.00    -0.254 C  
HETATM   12  O   UNL     2     -11.181  15.156  70.267  1.00  0.00    -0.250 OA 
HETATM   13  H   UNL     2     -10.084  15.849  68.064  1.00  0.00     0.000 HD 
HETATM   14  O   UNL     2     -12.266  13.181  69.793  1.00  0.00    -0.280 OA 
HETATM   15  O   UNL     2     -10.528  15.244  67.482  1.00  0.00    -0.256 OA 
HETATM   16  C   UNL     2     -11.495  14.178  69.558  1.00  0.00    -0.281 C  
ENDBRANCH   8  11
ENDBRANCH   4   8
BRANCH   7  17
HETATM   17  C   UNL     3      -9.510  10.566  69.031  1.00  0.00    -0.201 C  
HETATM   18  O   UNL     3      -9.876   9.875  67.777  1.00  0.00    -0.148 OA 
HETATM   19  H   UNL     3      -9.794  10.475  67.046  1.00  0.00     0.000 HD 
BRANCH  17  20
HETATM   20  C   UNL     3      -8.182  11.327  68.919  1.00  0.00    -0.079 C  
HETATM   21  C   UNL     3      -7.638  11.075  67.489  1.00  0.00    -0.106 C  
HETATM   22  O   UNL     3      -7.307  10.880  69.993  1.00  0.00    -0.369 OA 
HETATM   23  O   UNL     3      -8.516  11.374  66.599  1.00  0.00    -0.163 OA 
HETATM   24  O   UNL     3      -6.528  10.522  67.356  1.00  0.00    -0.060 OA 
HETATM   25  H   UNL     3      -6.484  11.352  69.924  1.00  0.00     0.000 HD 
ENDBRANCH  17  20
ENDBRANCH   7  17
TORSDOF 4
ENDMDL
MODEL      154
REMARK 921   NORMALIZED FREE ENERGY PREDICTED BY IDOCK:   -2.75 KCAL/MOL
REMARK 922        TOTAL FREE ENERGY PREDICTED BY IDOCK:   -4.57 KCAL/MOL
REMARK 923 INTER-LIGAND FREE ENERGY PREDICTED BY IDOCK:   -4.72 KCAL/MOL
REMARK 924 INTRA-LIGAND FREE ENERGY PREDICTED BY IDOCK:    0.16 KCAL/MOL
REMARK 927      BINDING AFFINITY PREDICTED BY RF-SCORE:    0.00 PKD
ROOT
HETATM    1 CA   UNL     1      -7.487  12.433  65.915  1.00  0.00    -0.314 Ca 
HETATM    2  O   UNL     2      -8.590  10.642  64.054  1.00  0.00    -0.249 OA 
HETATM    3  O   UNL     3      -8.387  15.912  69.079  1.00  0.00    -0.209 OA 
HETATM    4  C   UNL     2      -9.947  10.393  64.547  1.00  0.00    -0.331 C  
HETATM    5  H   UNL     2      -8.410   9.899  63.492  1.00  0.00     0.000 HD 
HETATM    6  H   UNL     3      -8.162  16.115  69.979  1.00  0.00     0.000 HD 
HETATM    7  C   UNL     3      -9.224  14.766  68.992  1.00  0.00    -0.145 C  
ENDROOT
BRANCH   4   8
HETATM    8  C   UNL     2     -10.235  11.579  65.446  1.00  0.00    -0.264 C  
HETATM    9  H   UNL     2      -9.430  13.342  65.669  1.00  0.00     0.000 HD 
HETATM   10  O   UNL     2      -9.249  12.599  65.106  1.00  0.00     0.295 OA 
BRANCH   8  11
HETATM   11  C   UNL     2     -10.376  11.310  66.928  1.00  0.00    -0.234 C  
HETATM   12  O   UNL     2      -9.551   9.756  68.528  1.00  0.00    -0.146 OA 
HETATM   13  H   UNL     2     -11.848  10.796  68.096  1.00  0.00     0.000 HD 
HETATM   14  O   UNL     2      -8.333  10.198  66.625  1.00  0.00    -0.121 OA 
HETATM   15  O   UNL     2     -11.760  10.965  67.165  1.00  0.00    -0.393 OA 
HETATM   16  C   UNL     2      -9.342  10.275  67.412  1.00  0.00    -0.145 C  
ENDBRANCH   8  11
ENDBRANCH   4   8
BRANCH   7  17
HETATM   17  C   UNL     3      -9.589  14.439  67.535  1.00  0.00    -0.215 C  
HETATM   18  O   UNL     3      -8.366  14.429  66.706  1.00  0.00    -0.396 OA 
HETATM   19  H   UNL     3      -8.591  14.227  65.805  1.00  0.00     0.000 HD 
BRANCH  17  20
HETATM   20  C   UNL     3     -10.718  15.271  66.911  1.00  0.00    -0.313 C  
HETATM   21  C   UNL     3     -12.012  14.424  67.016  1.00  0.00    -0.395 C  
HETATM   22  O   UNL     3     -10.328  15.624  65.553  1.00  0.00    -0.342 OA 
HETATM   23  O   UNL     3     -12.220  14.043  68.226  1.00  0.00    -0.328 OA 
HETATM   24  O   UNL     3     -12.612  14.108  65.969  1.00  0.00    -0.478 OA 
HETATM   25  H   UNL     3     -11.026  16.139  65.166  1.00  0.00     0.000 HD 
ENDBRANCH  17  20
ENDBRANCH   7  17
TORSDOF 4
ENDMDL
MODEL      155
REMARK 921   NORMALIZED FREE ENERGY PREDICTED BY IDOCK:   -2.72 KCAL/MOL
REMARK 922        TOTAL FREE ENERGY PREDICTED BY IDOCK:   -4.53 KCAL/MOL
REMARK 923 INTER-LIGAND FREE ENERGY PREDICTED BY IDOCK:   -3.99 KCAL/MOL
REMARK 924 INTRA-LIGAND FREE ENERGY PREDICTED BY IDOCK:   -0.54 KCAL/MOL
REMARK 927      BINDING AFFINITY PREDICTED BY RF-SCORE:    0.00 PKD
ROOT
HETATM    1 CA   UNL     1      -9.226   8.141  74.074  1.00  0.00    -0.230 Ca 
HETATM    2  O   UNL     2      -7.078   6.389  74.527  1.00  0.00    -0.089 OA 
HETATM    3  O   UNL     3     -12.966   9.180  71.270  1.00  0.00    -0.404 OA 
HETATM    4  C   UNL     2      -7.523   5.112  73.964  1.00  0.00    -0.087 C  
HETATM    5  H   UNL     2      -6.391   6.146  75.135  1.00  0.00     0.000 HD 
HETATM    6  H   UNL     3     -13.887   9.384  71.380  1.00  0.00     0.000 HD 
HETATM    7  C   UNL     3     -12.677   7.838  71.640  1.00  0.00    -0.335 C  
ENDROOT
BRANCH   4   8
HETATM    8  C   UNL     2      -8.621   5.500  72.994  1.00  0.00    -0.121 C  
HETATM    9  H   UNL     2     -10.460   6.117  73.200  1.00  0.00     0.000 HD 
HETATM   10  O   UNL     2      -9.773   5.874  73.808  1.00  0.00    -0.151 OA 
BRANCH   8  11
HETATM   11  C   UNL     2      -8.930   4.534  71.872  1.00  0.00    -0.122 C  
HETATM   12  O   UNL     2      -8.833   4.494  69.497  1.00  0.00    -0.083 OA 
HETATM   13  H   UNL     2     -10.546   3.673  71.209  1.00  0.00     0.000 HD 
HETATM   14  O   UNL     2      -7.439   5.896  70.678  1.00  0.00    -0.082 OA 
HETATM   15  O   UNL     2     -10.352   4.280  71.913  1.00  0.00    -0.160 OA 
HETATM   16  C   UNL     2      -8.386   5.044  70.524  1.00  0.00    -0.101 C  
ENDBRANCH   8  11
ENDBRANCH   4   8
BRANCH   7  17
HETATM   17  C   UNL     3     -11.187   7.507  71.462  1.00  0.00    -0.243 C  
HETATM   18  O   UNL     3     -10.369   8.468  72.231  1.00  0.00    -0.311 OA 
HETATM   19  H   UNL     3      -9.448   8.264  72.122  1.00  0.00     0.000 HD 
BRANCH  17  20
HETATM   20  C   UNL     3     -10.693   7.336  70.018  1.00  0.00    -0.245 C  
HETATM   21  C   UNL     3     -10.264   8.740  69.520  1.00  0.00    -0.208 C  
HETATM   22  O   UNL     3     -11.755   6.711  69.243  1.00  0.00    -0.645 OA 
HETATM   23  O   UNL     3      -9.420   9.281  70.325  1.00  0.00    -0.201 OA 
HETATM   24  O   UNL     3     -10.838   9.227  68.525  1.00  0.00    -0.175 OA 
HETATM   25  H   UNL     3     -11.449   6.604  68.350  1.00  0.00     0.000 HD 
ENDBRANCH  17  20
ENDBRANCH   7  17
TORSDOF 4
ENDMDL
MODEL      156
REMARK 921   NORMALIZED FREE ENERGY PREDICTED BY IDOCK:   -2.68 KCAL/MOL
REMARK 922        TOTAL FREE ENERGY PREDICTED BY IDOCK:   -4.49 KCAL/MOL
REMARK 923 INTER-LIGAND FREE ENERGY PREDICTED BY IDOCK:   -4.87 KCAL/MOL
REMARK 924 INTRA-LIGAND FREE ENERGY PREDICTED BY IDOCK:    0.38 KCAL/MOL
REMARK 927      BINDING AFFINITY PREDICTED BY RF-SCORE:    0.00 PKD
ROOT
HETATM    1 CA   UNL     1     -12.370   8.311  70.455  1.00  0.00    -0.455 Ca 
HETATM    2  O   UNL     2     -12.763  10.862  69.349  1.00  0.00    -0.554 OA 
HETATM    3  O   UNL     3     -10.056   4.137  70.065  1.00  0.00    -0.159 OA 
HETATM    4  C   UNL     2     -11.496  11.168  68.678  1.00  0.00    -0.298 C  
HETATM    5  H   UNL     2     -13.164  11.713  69.482  1.00  0.00     0.000 HD 
HETATM    6  H   UNL     3      -9.550   3.563  70.628  1.00  0.00     0.000 HD 
HETATM    7  C   UNL     3      -9.387   5.371  69.836  1.00  0.00    -0.140 C  
ENDROOT
BRANCH   4   8
HETATM    8  C   UNL     2     -10.856   9.811  68.465  1.00  0.00    -0.188 C  
HETATM    9  H   UNL     2     -10.021   8.503  69.647  1.00  0.00     0.000 HD 
HETATM   10  O   UNL     2     -10.422   9.353  69.780  1.00  0.00    -0.203 OA 
BRANCH   8  11
HETATM   11  C   UNL     2      -9.806   9.701  67.382  1.00  0.00    -0.171 C  
HETATM   12  O   UNL     2      -8.173  11.092  66.356  1.00  0.00    -0.158 OA 
HETATM   13  H   UNL     2      -9.842   9.372  65.463  1.00  0.00     0.000 HD 
HETATM   14  O   UNL     2      -8.873  11.539  68.503  1.00  0.00    -0.158 OA 
HETATM   15  O   UNL     2     -10.502   9.441  66.142  1.00  0.00    -0.162 OA 
HETATM   16  C   UNL     2      -8.874  10.928  67.376  1.00  0.00    -0.133 C  
ENDBRANCH   8  11
ENDBRANCH   4   8
BRANCH   7  17
HETATM   17  C   UNL     3     -10.205   6.301  68.926  1.00  0.00    -0.181 C  
HETATM   18  O   UNL     3     -11.519   6.573  69.545  1.00  0.00    -0.533 OA 
HETATM   19  H   UNL     3     -12.025   7.147  68.983  1.00  0.00     0.000 HD 
BRANCH  17  20
HETATM   20  C   UNL     3     -10.323   5.884  67.453  1.00  0.00    -0.220 C  
HETATM   21  C   UNL     3      -8.950   6.170  66.793  1.00  0.00    -0.124 C  
HETATM   22  O   UNL     3     -11.446   6.600  66.864  1.00  0.00    -0.777 OA 
HETATM   23  O   UNL     3      -7.996   5.608  67.445  1.00  0.00    -0.101 OA 
HETATM   24  O   UNL     3      -8.897   6.970  65.837  1.00  0.00    -0.154 OA 
HETATM   25  H   UNL     3     -11.519   6.343  65.952  1.00  0.00     0.000 HD 
ENDBRANCH  17  20
ENDBRANCH   7  17
TORSDOF 4
ENDMDL
MODEL      157
REMARK 921   NORMALIZED FREE ENERGY PREDICTED BY IDOCK:   -2.68 KCAL/MOL
REMARK 922        TOTAL FREE ENERGY PREDICTED BY IDOCK:   -4.49 KCAL/MOL
REMARK 923 INTER-LIGAND FREE ENERGY PREDICTED BY IDOCK:   -3.85 KCAL/MOL
REMARK 924 INTRA-LIGAND FREE ENERGY PREDICTED BY IDOCK:   -0.64 KCAL/MOL
REMARK 927      BINDING AFFINITY PREDICTED BY RF-SCORE:    0.00 PKD
ROOT
HETATM    1 CA   UNL     1      -7.787   5.310  70.606  1.00  0.00    -0.069 Ca 
HETATM    2  O   UNL     2      -9.677   3.614  71.805  1.00  0.00    -0.145 OA 
HETATM    3  O   UNL     3      -6.772   9.797  69.274  1.00  0.00    -0.051 OA 
HETATM    4  C   UNL     2     -10.413   4.481  72.728  1.00  0.00    -0.198 C  
HETATM    5  H   UNL     2      -9.832   2.738  72.138  1.00  0.00     0.000 HD 
HETATM    6  H   UNL     3      -6.052  10.408  69.369  1.00  0.00     0.000 HD 
HETATM    7  C   UNL     3      -7.399   9.526  70.521  1.00  0.00    -0.138 C  
ENDROOT
BRANCH   4   8
HETATM    8  C   UNL     2     -10.164   5.878  72.196  1.00  0.00    -0.195 C  
HETATM    9  H   UNL     2      -8.644   7.100  72.246  1.00  0.00     0.000 HD 
HETATM   10  O   UNL     2      -8.800   6.225  72.579  1.00  0.00    -0.125 OA 
BRANCH   8  11
HETATM   11  C   UNL     2     -11.195   6.937  72.517  1.00  0.00    -0.267 C  
HETATM   12  O   UNL     2     -12.700   8.354  71.341  1.00  0.00    -0.307 OA 
HETATM   13  H   UNL     2     -11.140   8.703  73.337  1.00  0.00     0.000 HD 
HETATM   14  O   UNL     2     -12.018   6.369  70.395  1.00  0.00    -0.349 OA 
HETATM   15  O   UNL     2     -10.492   8.039  73.135  1.00  0.00    -0.338 OA 
HETATM   16  C   UNL     2     -12.036   7.299  71.278  1.00  0.00    -0.338 C  
ENDBRANCH   8  11
ENDBRANCH   4   8
BRANCH   7  17
HETATM   17  C   UNL     3      -8.565   8.536  70.368  1.00  0.00    -0.143 C  
HETATM   18  O   UNL     3      -8.084   7.296  69.723  1.00  0.00    -0.123 OA 
HETATM   19  H   UNL     3      -8.804   6.684  69.629  1.00  0.00     0.000 HD 
BRANCH  17  20
HETATM   20  C   UNL     3      -9.843   9.082  69.716  1.00  0.00    -0.180 C  
HETATM   21  C   UNL     3      -9.888   8.518  68.273  1.00  0.00    -0.169 C  
HETATM   22  O   UNL     3      -9.816  10.535  69.804  1.00  0.00    -0.408 OA 
HETATM   23  O   UNL     3      -9.778   7.238  68.271  1.00  0.00    -0.143 OA 
HETATM   24  O   UNL     3      -9.894   9.317  67.314  1.00  0.00    -0.161 OA 
HETATM   25  H   UNL     3     -10.607  10.873  69.401  1.00  0.00     0.000 HD 
ENDBRANCH  17  20
ENDBRANCH   7  17
TORSDOF 4
ENDMDL
MODEL      158
REMARK 921   NORMALIZED FREE ENERGY PREDICTED BY IDOCK:   -2.67 KCAL/MOL
REMARK 922        TOTAL FREE ENERGY PREDICTED BY IDOCK:   -4.48 KCAL/MOL
REMARK 923 INTER-LIGAND FREE ENERGY PREDICTED BY IDOCK:   -3.36 KCAL/MOL
REMARK 924 INTRA-LIGAND FREE ENERGY PREDICTED BY IDOCK:   -1.12 KCAL/MOL
REMARK 927      BINDING AFFINITY PREDICTED BY RF-SCORE:    0.00 PKD
ROOT
HETATM    1 CA   UNL     1     -11.778   6.877  68.998  1.00  0.00    -0.417 Ca 
HETATM    2  O   UNL     2     -10.897   9.014  67.403  1.00  0.00    -0.424 OA 
HETATM    3  O   UNL     3     -10.811   4.083  72.764  1.00  0.00    -0.144 OA 
HETATM    4  C   UNL     2     -10.074   9.827  68.303  1.00  0.00    -0.163 C  
HETATM    5  H   UNL     2     -11.138   9.614  66.707  1.00  0.00     0.000 HD 
HETATM    6  H   UNL     3     -11.260   3.781  73.545  1.00  0.00     0.000 HD 
HETATM    7  C   UNL     3     -10.566   5.483  72.807  1.00  0.00    -0.225 C  
ENDROOT
BRANCH   4   8
HETATM    8  C   UNL     2      -9.690   8.870  69.414  1.00  0.00    -0.169 C  
HETATM    9  H   UNL     2     -10.684   7.954  70.821  1.00  0.00     0.000 HD 
HETATM   10  O   UNL     2     -10.924   8.553  70.125  1.00  0.00    -0.241 OA 
BRANCH   8  11
HETATM   11  C   UNL     2      -8.536   9.269  70.305  1.00  0.00    -0.203 C  
HETATM   12  O   UNL     2      -6.307   8.561  70.734  1.00  0.00    -0.035 OA 
HETATM   13  H   UNL     2      -8.240   9.313  72.230  1.00  0.00     0.000 HD 
HETATM   14  O   UNL     2      -7.272   8.133  68.688  1.00  0.00    -0.080 OA 
HETATM   15  O   UNL     2      -8.965   9.062  71.670  1.00  0.00    -0.317 OA 
HETATM   16  C   UNL     2      -7.237   8.545  69.902  1.00  0.00    -0.051 C  
ENDBRANCH   8  11
ENDBRANCH   4   8
BRANCH   7  17
HETATM   17  C   UNL     3      -9.839   5.972  71.544  1.00  0.00    -0.168 C  
HETATM   18  O   UNL     3     -10.537   5.470  70.342  1.00  0.00    -0.276 OA 
HETATM   19  H   UNL     3     -10.088   5.772  69.562  1.00  0.00     0.000 HD 
BRANCH  17  20
HETATM   20  C   UNL     3      -8.324   5.728  71.491  1.00  0.00    -0.127 C  
HETATM   21  C   UNL     3      -8.106   4.206  71.686  1.00  0.00    -0.086 C  
HETATM   22  O   UNL     3      -7.691   6.570  72.496  1.00  0.00    -0.098 OA 
HETATM   23  O   UNL     3      -8.798   3.527  70.842  1.00  0.00    -0.075 OA 
HETATM   24  O   UNL     3      -7.429   3.814  72.658  1.00  0.00    -0.057 OA 
HETATM   25  H   UNL     3      -6.753   6.420  72.464  1.00  0.00     0.000 HD 
ENDBRANCH  17  20
ENDBRANCH   7  17
TORSDOF 4
ENDMDL
MODEL      159
REMARK 921   NORMALIZED FREE ENERGY PREDICTED BY IDOCK:   -2.67 KCAL/MOL
REMARK 922        TOTAL FREE ENERGY PREDICTED BY IDOCK:   -4.47 KCAL/MOL
REMARK 923 INTER-LIGAND FREE ENERGY PREDICTED BY IDOCK:   -5.12 KCAL/MOL
REMARK 924 INTRA-LIGAND FREE ENERGY PREDICTED BY IDOCK:    0.65 KCAL/MOL
REMARK 927      BINDING AFFINITY PREDICTED BY RF-SCORE:    0.00 PKD
ROOT
HETATM    1 CA   UNL     1      -8.753  12.818  68.956  1.00  0.00    -0.280 Ca 
HETATM    2  O   UNL     2     -10.985  14.336  69.729  1.00  0.00    -0.415 OA 
HETATM    3  O   UNL     3      -7.233   8.848  66.751  1.00  0.00    -0.080 OA 
HETATM    4  C   UNL     2     -12.009  14.017  68.730  1.00  0.00    -0.347 C  
HETATM    5  H   UNL     2     -11.271  15.164  70.095  1.00  0.00     0.000 HD 
HETATM    6  H   UNL     3      -6.596   8.618  66.085  1.00  0.00     0.000 HD 
HETATM    7  C   UNL     3      -8.298   9.623  66.215  1.00  0.00    -0.116 C  
ENDROOT
BRANCH   4   8
HETATM    8  C   UNL     2     -11.552  12.695  68.145  1.00  0.00    -0.338 C  
HETATM    9  H   UNL     2     -10.213  11.373  68.660  1.00  0.00     0.000 HD 
HETATM   10  O   UNL     2     -10.498  12.201  69.026  1.00  0.00    -0.159 OA 
BRANCH   8  11
HETATM   11  C   UNL     2     -11.205  12.670  66.674  1.00  0.00    -0.300 C  
HETATM   12  O   UNL     2     -10.194  14.106  65.070  1.00  0.00    -0.394 OA 
HETATM   13  H   UNL     2     -12.232  12.562  65.023  1.00  0.00     0.000 HD 
HETATM   14  O   UNL     2      -9.674  14.333  67.302  1.00  0.00    -0.226 OA 
HETATM   15  O   UNL     2     -12.451  12.578  65.947  1.00  0.00    -0.596 OA 
HETATM   16  C   UNL     2     -10.297  13.854  66.288  1.00  0.00    -0.293 C  
ENDBRANCH   8  11
ENDBRANCH   4   8
BRANCH   7  17
HETATM   17  C   UNL     3      -9.329   9.995  67.292  1.00  0.00    -0.148 C  
HETATM   18  O   UNL     3      -8.634  10.305  68.559  1.00  0.00    -0.116 OA 
HETATM   19  H   UNL     3      -9.271  10.535  69.225  1.00  0.00     0.000 HD 
BRANCH  17  20
HETATM   20  C   UNL     3     -10.498   9.019  67.484  1.00  0.00    -0.272 C  
HETATM   21  C   UNL     3     -10.410   8.492  68.939  1.00  0.00    -0.210 C  
HETATM   22  O   UNL     3     -10.410   7.992  66.456  1.00  0.00    -0.445 OA 
HETATM   23  O   UNL     3     -10.364   9.461  69.782  1.00  0.00    -0.199 OA 
HETATM   24  O   UNL     3     -10.271   7.267  69.129  1.00  0.00    -0.185 OA 
HETATM   25  H   UNL     3     -11.133   7.388  66.574  1.00  0.00     0.000 HD 
ENDBRANCH  17  20
ENDBRANCH   7  17
TORSDOF 4
ENDMDL
MODEL      160
REMARK 921   NORMALIZED FREE ENERGY PREDICTED BY IDOCK:   -2.66 KCAL/MOL
REMARK 922        TOTAL FREE ENERGY PREDICTED BY IDOCK:   -4.46 KCAL/MOL
REMARK 923 INTER-LIGAND FREE ENERGY PREDICTED BY IDOCK:   -5.08 KCAL/MOL
REMARK 924 INTRA-LIGAND FREE ENERGY PREDICTED BY IDOCK:    0.62 KCAL/MOL
REMARK 927      BINDING AFFINITY PREDICTED BY RF-SCORE:    0.00 PKD
ROOT
HETATM    1 CA   UNL     1      -7.027  13.117  66.347  1.00  0.00    -0.314 Ca 
HETATM    2  O   UNL     2      -6.612  15.833  66.925  1.00  0.00    -0.276 OA 
HETATM    3  O   UNL     3     -10.157   9.493  66.382  1.00  0.00    -0.254 OA 
HETATM    4  C   UNL     2      -7.935  16.446  66.774  1.00  0.00    -0.260 C  
HETATM    5  H   UNL     2      -6.010  16.562  66.837  1.00  0.00     0.000 HD 
HETATM    6  H   UNL     3     -10.462   8.827  65.778  1.00  0.00     0.000 HD 
HETATM    7  C   UNL     3     -10.548  10.796  65.969  1.00  0.00    -0.156 C  
ENDROOT
BRANCH   4   8
HETATM    8  C   UNL     2      -8.896  15.282  66.914  1.00  0.00    -0.254 C  
HETATM    9  H   UNL     2     -10.367  14.598  65.831  1.00  0.00     0.000 HD 
HETATM   10  O   UNL     2      -9.765  15.327  65.743  1.00  0.00    -0.327 OA 
BRANCH   8  11
HETATM   11  C   UNL     2      -9.624  15.138  68.232  1.00  0.00    -0.211 C  
HETATM   12  O   UNL     2     -10.893  16.502  69.709  1.00  0.00    -0.331 OA 
HETATM   13  H   UNL     2      -9.087  14.726  70.058  1.00  0.00     0.000 HD 
HETATM   14  O   UNL     2     -10.778  17.034  67.471  1.00  0.00    -0.330 OA 
HETATM   15  O   UNL     2      -8.629  14.817  69.231  1.00  0.00    -0.135 OA 
HETATM   16  C   UNL     2     -10.492  16.374  68.534  1.00  0.00    -0.291 C  
ENDBRANCH   8  11
ENDBRANCH   4   8
BRANCH   7  17
HETATM   17  C   UNL     3     -10.054  11.874  66.947  1.00  0.00    -0.207 C  
HETATM   18  O   UNL     3      -8.728  12.365  66.517  1.00  0.00    -0.352 OA 
HETATM   19  H   UNL     3      -8.423  13.032  67.121  1.00  0.00     0.000 HD 
BRANCH  17  20
HETATM   20  C   UNL     3     -10.094  11.513  68.438  1.00  0.00    -0.204 C  
HETATM   21  C   UNL     3     -11.450  12.025  68.989  1.00  0.00    -0.300 C  
HETATM   22  O   UNL     3      -8.919  12.087  69.079  1.00  0.00    -0.377 OA 
HETATM   23  O   UNL     3     -12.432  11.575  68.292  1.00  0.00    -0.295 OA 
HETATM   24  O   UNL     3     -11.447  12.867  69.909  1.00  0.00    -0.200 OA 
HETATM   25  H   UNL     3      -8.943  11.864  70.002  1.00  0.00     0.000 HD 
ENDBRANCH  17  20
ENDBRANCH   7  17
TORSDOF 4
ENDMDL
MODEL      161
REMARK 921   NORMALIZED FREE ENERGY PREDICTED BY IDOCK:   -2.65 KCAL/MOL
REMARK 922        TOTAL FREE ENERGY PREDICTED BY IDOCK:   -4.44 KCAL/MOL
REMARK 923 INTER-LIGAND FREE ENERGY PREDICTED BY IDOCK:   -4.49 KCAL/MOL
REMARK 924 INTRA-LIGAND FREE ENERGY PREDICTED BY IDOCK:    0.04 KCAL/MOL
REMARK 927      BINDING AFFINITY PREDICTED BY RF-SCORE:    0.00 PKD
ROOT
HETATM    1 CA   UNL     1     -11.694   8.439  67.192  1.00  0.00    -0.354 Ca 
HETATM    2  O   UNL     2     -12.290  10.592  68.894  1.00  0.00    -0.779 OA 
HETATM    3  O   UNL     3      -8.419   6.445  64.323  1.00  0.00    -0.334 OA 
HETATM    4  C   UNL     2     -10.988  11.014  69.418  1.00  0.00    -0.248 C  
HETATM    5  H   UNL     2     -12.913  10.934  69.523  1.00  0.00     0.000 HD 
HETATM    6  H   UNL     3      -8.025   5.590  64.200  1.00  0.00     0.000 HD 
HETATM    7  C   UNL     3      -8.049   7.020  65.569  1.00  0.00    -0.132 C  
ENDROOT
BRANCH   4   8
HETATM    8  C   UNL     2      -9.993  10.467  68.414  1.00  0.00    -0.164 C  
HETATM    9  H   UNL     2      -9.412   8.672  67.917  1.00  0.00     0.000 HD 
HETATM   10  O   UNL     2     -10.036   9.015  68.546  1.00  0.00    -0.165 OA 
BRANCH   8  11
HETATM   11  C   UNL     2      -8.601  11.059  68.424  1.00  0.00    -0.149 C  
HETATM   12  O   UNL     2      -6.803  11.322  69.958  1.00  0.00    -0.099 OA 
HETATM   13  H   UNL     2      -7.869  12.850  68.206  1.00  0.00     0.000 HD 
HETATM   14  O   UNL     2      -8.309   9.604  70.241  1.00  0.00    -0.181 OA 
HETATM   15  O   UNL     2      -8.743  12.480  68.200  1.00  0.00    -0.180 OA 
HETATM   16  C   UNL     2      -7.830  10.662  69.698  1.00  0.00    -0.036 C  
ENDBRANCH   8  11
ENDBRANCH   4   8
BRANCH   7  17
HETATM   17  C   UNL     3      -8.687   8.404  65.768  1.00  0.00    -0.169 C  
HETATM   18  O   UNL     3     -10.160   8.281  65.747  1.00  0.00    -0.338 OA 
HETATM   19  H   UNL     3     -10.554   9.136  65.871  1.00  0.00     0.000 HD 
BRANCH  17  20
HETATM   20  C   UNL     3      -8.177   9.529  64.857  1.00  0.00    -0.140 C  
HETATM   21  C   UNL     3      -9.426  10.211  64.242  1.00  0.00    -0.305 C  
HETATM   22  O   UNL     3      -7.258   8.949  63.888  1.00  0.00    -0.094 OA 
HETATM   23  O   UNL     3     -10.249  10.582  65.156  1.00  0.00    -0.305 OA 
HETATM   24  O   UNL     3      -9.559  10.217  63.002  1.00  0.00    -0.315 OA 
HETATM   25  H   UNL     3      -6.941   9.645  63.323  1.00  0.00     0.000 HD 
ENDBRANCH  17  20
ENDBRANCH   7  17
TORSDOF 4
ENDMDL
MODEL      162
REMARK 921   NORMALIZED FREE ENERGY PREDICTED BY IDOCK:   -2.63 KCAL/MOL
REMARK 922        TOTAL FREE ENERGY PREDICTED BY IDOCK:   -4.42 KCAL/MOL
REMARK 923 INTER-LIGAND FREE ENERGY PREDICTED BY IDOCK:   -4.79 KCAL/MOL
REMARK 924 INTRA-LIGAND FREE ENERGY PREDICTED BY IDOCK:    0.37 KCAL/MOL
REMARK 927      BINDING AFFINITY PREDICTED BY RF-SCORE:    0.00 PKD
ROOT
HETATM    1 CA   UNL     1      -9.251  13.206  66.354  1.00  0.00    -0.213 Ca 
HETATM    2  O   UNL     2      -7.421  11.150  65.801  1.00  0.00    -0.361 OA 
HETATM    3  O   UNL     3     -12.750  14.723  69.251  1.00  0.00    -0.556 OA 
HETATM    4  C   UNL     2      -7.154  10.537  67.105  1.00  0.00    -0.091 C  
HETATM    5  H   UNL     2      -6.675  10.897  65.271  1.00  0.00     0.000 HD 
HETATM    6  H   UNL     3     -12.966  15.512  69.733  1.00  0.00     0.000 HD 
HETATM    7  C   UNL     3     -11.588  14.090  69.773  1.00  0.00    -0.281 C  
ENDROOT
BRANCH   4   8
HETATM    8  C   UNL     2      -8.345  10.941  67.951  1.00  0.00    -0.119 C  
HETATM    9  H   UNL     2      -8.960  12.628  68.713  1.00  0.00     0.000 HD 
HETATM   10  O   UNL     2      -8.214  12.375  68.184  1.00  0.00    -0.157 OA 
BRANCH   8  11
HETATM   11  C   UNL     2      -8.622  10.125  69.194  1.00  0.00    -0.165 C  
HETATM   12  O   UNL     2      -7.384   9.058  70.921  1.00  0.00    -0.089 OA 
HETATM   13  H   UNL     2      -9.432   8.388  69.543  1.00  0.00     0.000 HD 
HETATM   14  O   UNL     2      -6.476  10.853  69.799  1.00  0.00    -0.096 OA 
HETATM   15  O   UNL     2      -9.258   8.900  68.763  1.00  0.00    -0.140 OA 
HETATM   16  C   UNL     2      -7.351   9.948  70.047  1.00  0.00    -0.156 C  
ENDBRANCH   8  11
ENDBRANCH   4   8
BRANCH   7  17
HETATM   17  C   UNL     3     -11.239  12.812  68.993  1.00  0.00    -0.264 C  
HETATM   18  O   UNL     3     -10.939  13.154  67.586  1.00  0.00    -0.251 OA 
HETATM   19  H   UNL     3     -10.723  12.365  67.104  1.00  0.00     0.000 HD 
BRANCH  17  20
HETATM   20  C   UNL     3     -12.226  11.644  69.118  1.00  0.00    -0.137 C  
HETATM   21  C   UNL     3     -12.201  11.190  70.600  1.00  0.00    -0.397 C  
HETATM   22  O   UNL     3     -11.844  10.618  68.158  1.00  0.00    -0.748 OA 
HETATM   23  O   UNL     3     -12.422  12.178  71.392  1.00  0.00    -0.252 OA 
HETATM   24  O   UNL     3     -11.864  10.019  70.866  1.00  0.00    -0.311 OA 
HETATM   25  H   UNL     3     -12.455   9.894  68.235  1.00  0.00     0.000 HD 
ENDBRANCH  17  20
ENDBRANCH   7  17
TORSDOF 4
ENDMDL
MODEL      163
REMARK 921   NORMALIZED FREE ENERGY PREDICTED BY IDOCK:   -2.61 KCAL/MOL
REMARK 922        TOTAL FREE ENERGY PREDICTED BY IDOCK:   -4.40 KCAL/MOL
REMARK 923 INTER-LIGAND FREE ENERGY PREDICTED BY IDOCK:   -4.82 KCAL/MOL
REMARK 924 INTRA-LIGAND FREE ENERGY PREDICTED BY IDOCK:    0.43 KCAL/MOL
REMARK 927      BINDING AFFINITY PREDICTED BY RF-SCORE:    0.00 PKD
ROOT
HETATM    1 CA   UNL     1     -11.460  10.777  66.675  1.00  0.00    -0.268 Ca 
HETATM    2  O   UNL     2      -9.849  10.298  68.925  1.00  0.00    -0.176 OA 
HETATM    3  O   UNL     3     -12.740  13.947  63.322  1.00  0.00    -0.926 OA 
HETATM    4  C   UNL     2      -8.687  11.170  68.735  1.00  0.00    -0.128 C  
HETATM    5  H   UNL     2      -9.542   9.636  69.533  1.00  0.00     0.000 HD 
HETATM    6  H   UNL     3     -12.834  13.966  62.377  1.00  0.00     0.000 HD 
HETATM    7  C   UNL     3     -11.381  13.801  63.713  1.00  0.00     0.125 C  
ENDROOT
BRANCH   4   8
HETATM    8  C   UNL     2      -9.176  12.226  67.764  1.00  0.00    -0.191 C  
HETATM    9  H   UNL     2      -9.284  12.337  65.819  1.00  0.00     0.000 HD 
HETATM   10  O   UNL     2      -8.977  11.676  66.427  1.00  0.00    -0.194 OA 
BRANCH   8  11
HETATM   11  C   UNL     2      -8.654  13.634  67.948  1.00  0.00    -0.181 C  
HETATM   12  O   UNL     2      -6.695  14.699  68.775  1.00  0.00    -0.081 OA 
HETATM   13  H   UNL     2      -9.198  15.171  69.014  1.00  0.00     0.000 HD 
HETATM   14  O   UNL     2      -6.573  12.551  67.954  1.00  0.00    -0.079 OA 
HETATM   15  O   UNL     2      -9.525  14.287  68.898  1.00  0.00    -0.171 OA 
HETATM   16  C   UNL     2      -7.156  13.636  68.311  1.00  0.00    -0.110 C  
ENDBRANCH   8  11
ENDBRANCH   4   8
BRANCH   7  17
HETATM   17  C   UNL     3     -11.230  13.770  65.242  1.00  0.00    -0.307 C  
HETATM   18  O   UNL     3     -11.735  12.484  65.766  1.00  0.00    -0.384 OA 
HETATM   19  H   UNL     3     -11.642  12.465  66.711  1.00  0.00     0.000 HD 
BRANCH  17  20
HETATM   20  C   UNL     3     -11.786  14.979  66.008  1.00  0.00    -0.094 C  
HETATM   21  C   UNL     3     -10.692  16.077  65.971  1.00  0.00    -0.267 C  
HETATM   22  O   UNL     3     -12.164  14.538  67.343  1.00  0.00    -0.589 OA 
HETATM   23  O   UNL     3     -10.319  16.320  64.766  1.00  0.00    -0.527 OA 
HETATM   24  O   UNL     3     -10.222  16.495  67.048  1.00  0.00    -0.277 OA 
HETATM   25  H   UNL     3     -12.509  15.286  67.818  1.00  0.00     0.000 HD 
ENDBRANCH  17  20
ENDBRANCH   7  17
TORSDOF 4
ENDMDL
MODEL      164
REMARK 921   NORMALIZED FREE ENERGY PREDICTED BY IDOCK:   -2.61 KCAL/MOL
REMARK 922        TOTAL FREE ENERGY PREDICTED BY IDOCK:   -4.40 KCAL/MOL
REMARK 923 INTER-LIGAND FREE ENERGY PREDICTED BY IDOCK:   -4.43 KCAL/MOL
REMARK 924 INTRA-LIGAND FREE ENERGY PREDICTED BY IDOCK:    0.03 KCAL/MOL
REMARK 927      BINDING AFFINITY PREDICTED BY RF-SCORE:    0.00 PKD
ROOT
HETATM    1 CA   UNL     1      -9.680   8.982  72.546  1.00  0.00    -0.253 Ca 
HETATM    2  O   UNL     2      -9.322   6.282  73.228  1.00  0.00    -0.132 OA 
HETATM    3  O   UNL     3      -9.996  12.159  68.977  1.00  0.00    -0.415 OA 
HETATM    4  C   UNL     2      -9.851   5.541  72.080  1.00  0.00    -0.166 C  
HETATM    5  H   UNL     2      -9.343   5.651  73.938  1.00  0.00     0.000 HD 
HETATM    6  H   UNL     3     -10.578  12.862  68.716  1.00  0.00     0.000 HD 
HETATM    7  C   UNL     3     -10.631  10.890  68.888  1.00  0.00    -0.210 C  
ENDROOT
BRANCH   4   8
HETATM    8  C   UNL     2      -9.818   6.548  70.947  1.00  0.00    -0.183 C  
HETATM    9  H   UNL     2      -8.849   8.213  70.637  1.00  0.00     0.000 HD 
HETATM   10  O   UNL     2      -8.870   7.583  71.347  1.00  0.00    -0.130 OA 
BRANCH   8  11
HETATM   11  C   UNL     2     -11.144   7.071  70.444  1.00  0.00    -0.287 C  
HETATM   12  O   UNL     2     -13.307   7.535  71.316  1.00  0.00    -0.323 OA 
HETATM   13  H   UNL     2     -12.469   6.446  69.160  1.00  0.00     0.000 HD 
HETATM   14  O   UNL     2     -11.475   7.578  72.710  1.00  0.00    -0.334 OA 
HETATM   15  O   UNL     2     -11.636   6.117  69.476  1.00  0.00    -0.396 OA 
HETATM   16  C   UNL     2     -12.103   7.388  71.608  1.00  0.00    -0.317 C  
ENDBRANCH   8  11
ENDBRANCH   4   8
BRANCH   7  17
HETATM   17  C   UNL     3      -9.688   9.752  69.310  1.00  0.00    -0.196 C  
HETATM   18  O   UNL     3      -9.009  10.110  70.573  1.00  0.00    -0.298 OA 
HETATM   19  H   UNL     3      -8.426   9.407  70.833  1.00  0.00     0.000 HD 
BRANCH  17  20
HETATM   20  C   UNL     3      -8.713   9.241  68.240  1.00  0.00    -0.129 C  
HETATM   21  C   UNL     3      -9.413   8.062  67.518  1.00  0.00    -0.146 C  
HETATM   22  O   UNL     3      -7.457   8.898  68.894  1.00  0.00    -0.079 OA 
HETATM   23  O   UNL     3     -10.571   8.408  67.080  1.00  0.00    -0.314 OA 
HETATM   24  O   UNL     3      -8.878   6.936  67.545  1.00  0.00    -0.119 OA 
HETATM   25  H   UNL     3      -6.853   8.582  68.232  1.00  0.00     0.000 HD 
ENDBRANCH  17  20
ENDBRANCH   7  17
TORSDOF 4
ENDMDL
MODEL      165
REMARK 921   NORMALIZED FREE ENERGY PREDICTED BY IDOCK:   -2.60 KCAL/MOL
REMARK 922        TOTAL FREE ENERGY PREDICTED BY IDOCK:   -4.38 KCAL/MOL
REMARK 923 INTER-LIGAND FREE ENERGY PREDICTED BY IDOCK:   -5.18 KCAL/MOL
REMARK 924 INTRA-LIGAND FREE ENERGY PREDICTED BY IDOCK:    0.80 KCAL/MOL
REMARK 927      BINDING AFFINITY PREDICTED BY RF-SCORE:    0.00 PKD
ROOT
HETATM    1 CA   UNL     1      -7.958  16.026  69.905  1.00  0.00    -0.225 Ca 
HETATM    2  O   UNL     2      -7.565  13.331  69.223  1.00  0.00    -0.316 OA 
HETATM    3  O   UNL     3      -9.982  20.178  68.643  1.00  0.00    -0.338 OA 
HETATM    4  C   UNL     2      -8.751  12.975  68.439  1.00  0.00    -0.115 C  
HETATM    5  H   UNL     2      -7.229  12.495  69.524  1.00  0.00     0.000 HD 
HETATM    6  H   UNL     3     -10.524  20.844  69.050  1.00  0.00     0.000 HD 
HETATM    7  C   UNL     3     -10.681  18.948  68.500  1.00  0.00     0.216 C  
ENDROOT
BRANCH   4   8
HETATM    8  C   UNL     2      -9.287  14.309  67.959  1.00  0.00    -0.200 C  
HETATM    9  H   UNL     2     -10.169  15.814  68.835  1.00  0.00     0.000 HD 
HETATM   10  O   UNL     2      -9.833  14.978  69.136  1.00  0.00    -0.220 OA 
BRANCH   8  11
HETATM   11  C   UNL     2     -10.208  14.296  66.760  1.00  0.00    -0.272 C  
HETATM   12  O   UNL     2     -12.530  14.039  66.316  1.00  0.00    -0.465 OA 
HETATM   13  H   UNL     2     -10.409  13.153  65.196  1.00  0.00     0.000 HD 
HETATM   14  O   UNL     2     -11.834  14.824  68.366  1.00  0.00    -0.316 OA 
HETATM   15  O   UNL     2      -9.830  13.160  65.949  1.00  0.00    -0.276 OA 
HETATM   16  C   UNL     2     -11.688  14.345  67.185  1.00  0.00    -0.400 C  
ENDBRANCH   8  11
ENDBRANCH   4   8
BRANCH   7  17
HETATM   17  C   UNL     3      -9.805  17.870  67.843  1.00  0.00    -0.309 C  
HETATM   18  O   UNL     3      -8.655  17.560  68.718  1.00  0.00    -0.272 OA 
HETATM   19  H   UNL     3      -8.114  16.894  68.312  1.00  0.00     0.000 HD 
BRANCH  17  20
HETATM   20  C   UNL     3      -9.386  18.125  66.388  1.00  0.00    -0.265 C  
HETATM   21  C   UNL     3      -8.185  19.103  66.430  1.00  0.00    -0.314 C  
HETATM   22  O   UNL     3     -10.547  18.613  65.657  1.00  0.00    -0.610 OA 
HETATM   23  O   UNL     3      -7.253  18.661  67.197  1.00  0.00    -0.207 OA 
HETATM   24  O   UNL     3      -8.287  20.208  65.859  1.00  0.00    -0.276 OA 
HETATM   25  H   UNL     3     -10.288  18.771  64.757  1.00  0.00     0.000 HD 
ENDBRANCH  17  20
ENDBRANCH   7  17
TORSDOF 4
ENDMDL
MODEL      166
REMARK 921   NORMALIZED FREE ENERGY PREDICTED BY IDOCK:   -2.55 KCAL/MOL
REMARK 922        TOTAL FREE ENERGY PREDICTED BY IDOCK:   -4.33 KCAL/MOL
REMARK 923 INTER-LIGAND FREE ENERGY PREDICTED BY IDOCK:   -3.70 KCAL/MOL
REMARK 924 INTRA-LIGAND FREE ENERGY PREDICTED BY IDOCK:   -0.63 KCAL/MOL
REMARK 927      BINDING AFFINITY PREDICTED BY RF-SCORE:    0.00 PKD
ROOT
HETATM    1 CA   UNL     1      -9.100   4.378  71.877  1.00  0.00    -0.107 Ca 
HETATM    2  O   UNL     2      -7.323   3.267  70.008  1.00  0.00    -0.041 OA 
HETATM    3  O   UNL     3     -12.498   7.663  72.645  1.00  0.00    -0.541 OA 
HETATM    4  C   UNL     2      -7.976   3.476  68.713  1.00  0.00    -0.061 C  
HETATM    5  H   UNL     2      -6.710   2.559  69.845  1.00  0.00     0.000 HD 
HETATM    6  H   UNL     3     -13.370   7.693  73.021  1.00  0.00     0.000 HD 
HETATM    7  C   UNL     3     -12.471   6.903  71.443  1.00  0.00    -0.367 C  
ENDROOT
BRANCH   4   8
HETATM    8  C   UNL     2      -8.954   4.605  68.973  1.00  0.00    -0.110 C  
HETATM    9  H   UNL     2     -10.598   4.765  70.011  1.00  0.00     0.000 HD 
HETATM   10  O   UNL     2      -9.986   4.058  69.847  1.00  0.00    -0.186 OA 
BRANCH   8  11
HETATM   11  C   UNL     2      -9.481   5.358  67.772  1.00  0.00    -0.120 C  
HETATM   12  O   UNL     2      -9.118   7.447  66.697  1.00  0.00    -0.141 OA 
HETATM   13  H   UNL     2     -11.211   6.093  67.264  1.00  0.00     0.000 HD 
HETATM   14  O   UNL     2      -7.438   6.497  67.954  1.00  0.00    -0.090 OA 
HETATM   15  O   UNL     2     -10.881   5.620  68.019  1.00  0.00    -0.204 OA 
HETATM   16  C   UNL     2      -8.618   6.596  67.461  1.00  0.00    -0.120 C  
ENDBRANCH   8  11
ENDBRANCH   4   8
BRANCH   7  17
HETATM   17  C   UNL     3     -11.061   6.854  70.833  1.00  0.00    -0.272 C  
HETATM   18  O   UNL     3     -10.103   6.339  71.834  1.00  0.00    -0.180 OA 
HETATM   19  H   UNL     3      -9.232   6.309  71.457  1.00  0.00     0.000 HD 
BRANCH  17  20
HETATM   20  C   UNL     3     -10.568   8.138  70.151  1.00  0.00    -0.237 C  
HETATM   21  C   UNL     3      -9.198   8.487  70.787  1.00  0.00    -0.172 C  
HETATM   22  O   UNL     3     -11.592   9.161  70.308  1.00  0.00    -0.419 OA 
HETATM   23  O   UNL     3      -8.389   7.490  70.724  1.00  0.00    -0.115 OA 
HETATM   24  O   UNL     3      -9.067   9.581  71.373  1.00  0.00    -0.220 OA 
HETATM   25  H   UNL     3     -11.287   9.956  69.885  1.00  0.00     0.000 HD 
ENDBRANCH  17  20
ENDBRANCH   7  17
TORSDOF 4
ENDMDL
MODEL      167
REMARK 921   NORMALIZED FREE ENERGY PREDICTED BY IDOCK:   -2.51 KCAL/MOL
REMARK 922        TOTAL FREE ENERGY PREDICTED BY IDOCK:   -4.28 KCAL/MOL
REMARK 923 INTER-LIGAND FREE ENERGY PREDICTED BY IDOCK:   -4.64 KCAL/MOL
REMARK 924 INTRA-LIGAND FREE ENERGY PREDICTED BY IDOCK:    0.36 KCAL/MOL
REMARK 927      BINDING AFFINITY PREDICTED BY RF-SCORE:    0.00 PKD
ROOT
HETATM    1 CA   UNL     1     -10.205   4.165  71.967  1.00  0.00    -0.145 Ca 
HETATM    2  O   UNL     2     -10.872   5.605  74.284  1.00  0.00    -0.372 OA 
HETATM    3  O   UNL     3      -9.193   4.426  67.294  1.00  0.00    -0.125 OA 
HETATM    4  C   UNL     2     -10.275   6.927  74.077  1.00  0.00    -0.350 C  
HETATM    5  H   UNL     2     -10.990   5.550  75.224  1.00  0.00     0.000 HD 
HETATM    6  H   UNL     3      -8.525   4.098  66.704  1.00  0.00     0.000 HD 
HETATM    7  C   UNL     3      -8.663   5.372  68.213  1.00  0.00    -0.101 C  
ENDROOT
BRANCH   4   8
HETATM    8  C   UNL     2     -10.086   7.014  72.576  1.00  0.00    -0.177 C  
HETATM    9  H   UNL     2      -8.871   6.165  71.308  1.00  0.00     0.000 HD 
HETATM   10  O   UNL     2      -8.988   6.111  72.248  1.00  0.00    -0.138 OA 
BRANCH   8  11
HETATM   11  C   UNL     2      -9.966   8.395  71.970  1.00  0.00    -0.284 C  
HETATM   12  O   UNL     2     -11.334   9.922  70.766  1.00  0.00    -0.299 OA 
HETATM   13  H   UNL     2      -8.897   9.180  70.544  1.00  0.00     0.000 HD 
HETATM   14  O   UNL     2     -12.305   8.363  72.156  1.00  0.00    -0.330 OA 
HETATM   15  O   UNL     2      -8.972   8.313  70.924  1.00  0.00    -0.139 OA 
HETATM   16  C   UNL     2     -11.341   8.941  71.538  1.00  0.00    -0.325 C  
ENDBRANCH   8  11
ENDBRANCH   4   8
BRANCH   7  17
HETATM   17  C   UNL     3      -9.744   5.903  69.169  1.00  0.00    -0.140 C  
HETATM   18  O   UNL     3     -10.138   4.838  70.114  1.00  0.00    -0.242 OA 
HETATM   19  H   UNL     3     -10.806   5.166  70.705  1.00  0.00     0.000 HD 
BRANCH  17  20
HETATM   20  C   UNL     3     -10.952   6.591  68.518  1.00  0.00    -0.286 C  
HETATM   21  C   UNL     3     -10.402   7.788  67.700  1.00  0.00    -0.239 C  
HETATM   22  O   UNL     3     -11.893   6.951  69.569  1.00  0.00    -0.602 OA 
HETATM   23  O   UNL     3      -9.485   7.408  66.883  1.00  0.00    -0.146 OA 
HETATM   24  O   UNL     3     -10.785   8.940  67.986  1.00  0.00    -0.200 OA 
HETATM   25  H   UNL     3     -12.642   7.377  69.167  1.00  0.00     0.000 HD 
ENDBRANCH  17  20
ENDBRANCH   7  17
TORSDOF 4
ENDMDL
MODEL      168
REMARK 921   NORMALIZED FREE ENERGY PREDICTED BY IDOCK:   -2.51 KCAL/MOL
REMARK 922        TOTAL FREE ENERGY PREDICTED BY IDOCK:   -4.28 KCAL/MOL
REMARK 923 INTER-LIGAND FREE ENERGY PREDICTED BY IDOCK:   -4.30 KCAL/MOL
REMARK 924 INTRA-LIGAND FREE ENERGY PREDICTED BY IDOCK:    0.03 KCAL/MOL
REMARK 927      BINDING AFFINITY PREDICTED BY RF-SCORE:    0.00 PKD
ROOT
HETATM    1 CA   UNL     1      -9.462  10.543  67.513  1.00  0.00    -0.140 Ca 
HETATM    2  O   UNL     2      -8.926  11.707  65.015  1.00  0.00    -0.407 OA 
HETATM    3  O   UNL     3     -12.026  10.825  71.547  1.00  0.00    -0.212 OA 
HETATM    4  C   UNL     2     -10.177  12.376  64.647  1.00  0.00    -0.287 C  
HETATM    5  H   UNL     2      -8.474  11.595  64.187  1.00  0.00     0.000 HD 
HETATM    6  H   UNL     3     -12.561  10.247  72.078  1.00  0.00     0.000 HD 
HETATM    7  C   UNL     3     -12.621  11.077  70.281  1.00  0.00    -0.243 C  
ENDROOT
BRANCH   4   8
HETATM    8  C   UNL     2     -10.900  12.555  65.968  1.00  0.00    -0.276 C  
HETATM    9  H   UNL     2     -12.056  11.414  67.048  1.00  0.00     0.000 HD 
HETATM   10  O   UNL     2     -11.604  11.302  66.221  1.00  0.00    -0.259 OA 
BRANCH   8  11
HETATM   11  C   UNL     2     -11.746  13.797  66.133  1.00  0.00    -0.370 C  
HETATM   12  O   UNL     2     -13.451  14.947  64.939  1.00  0.00     0.214 OA 
HETATM   13  H   UNL     2     -11.377  15.707  66.228  1.00  0.00     0.000 HD 
HETATM   14  O   UNL     2     -13.158  12.684  64.626  1.00  0.00    -0.821 OA 
HETATM   15  O   UNL     2     -10.845  14.927  66.124  1.00  0.00    -0.314 OA 
HETATM   16  C   UNL     2     -12.883  13.846  65.094  1.00  0.00    -0.342 C  
ENDBRANCH   8  11
ENDBRANCH   4   8
BRANCH   7  17
HETATM   17  C   UNL     3     -11.756  12.013  69.422  1.00  0.00    -0.340 C  
HETATM   18  O   UNL     3     -10.338  11.607  69.518  1.00  0.00    -0.426 OA 
HETATM   19  H   UNL     3      -9.803  12.185  68.988  1.00  0.00     0.000 HD 
BRANCH  17  20
HETATM   20  C   UNL     3     -11.955  13.519  69.641  1.00  0.00    -0.337 C  
HETATM   21  C   UNL     3     -10.543  14.141  69.799  1.00  0.00     0.225 C  
HETATM   22  O   UNL     3     -12.834  13.701  70.788  1.00  0.00    -0.280 OA 
HETATM   23  O   UNL     3      -9.786  13.829  68.808  1.00  0.00    -0.190 OA 
HETATM   24  O   UNL     3     -10.261  14.733  70.859  1.00  0.00     0.505 OA 
HETATM   25  H   UNL     3     -12.957  14.634  70.924  1.00  0.00     0.000 HD 
ENDBRANCH  17  20
ENDBRANCH   7  17
TORSDOF 4
ENDMDL
MODEL      169
REMARK 921   NORMALIZED FREE ENERGY PREDICTED BY IDOCK:   -2.50 KCAL/MOL
REMARK 922        TOTAL FREE ENERGY PREDICTED BY IDOCK:   -4.27 KCAL/MOL
REMARK 923 INTER-LIGAND FREE ENERGY PREDICTED BY IDOCK:   -4.72 KCAL/MOL
REMARK 924 INTRA-LIGAND FREE ENERGY PREDICTED BY IDOCK:    0.46 KCAL/MOL
REMARK 927      BINDING AFFINITY PREDICTED BY RF-SCORE:    0.00 PKD
ROOT
HETATM    1 CA   UNL     1     -12.033   9.518  67.966  1.00  0.00    -0.516 Ca 
HETATM    2  O   UNL     2     -12.824   9.306  70.652  1.00  0.00    -0.504 OA 
HETATM    3  O   UNL     3      -8.852  11.380  64.909  1.00  0.00    -0.388 OA 
HETATM    4  C   UNL     2     -11.581   9.460  71.413  1.00  0.00    -0.381 C  
HETATM    5  H   UNL     2     -13.410   8.865  71.256  1.00  0.00     0.000 HD 
HETATM    6  H   UNL     3      -8.307  11.073  64.194  1.00  0.00     0.000 HD 
HETATM    7  C   UNL     3      -8.439  10.836  66.156  1.00  0.00    -0.167 C  
ENDROOT
BRANCH   4   8
HETATM    8  C   UNL     2     -10.645  10.162  70.449  1.00  0.00    -0.224 C  
HETATM    9  H   UNL     2     -10.898  11.137  68.778  1.00  0.00     0.000 HD 
HETATM   10  O   UNL     2     -11.484  10.697  69.382  1.00  0.00    -0.250 OA 
BRANCH   8  11
HETATM   11  C   UNL     2      -9.435   9.392  69.971  1.00  0.00    -0.228 C  
HETATM   12  O   UNL     2      -8.899   7.170  69.314  1.00  0.00    -0.136 OA 
HETATM   13  H   UNL     2      -7.712   8.923  70.749  1.00  0.00     0.000 HD 
HETATM   14  O   UNL     2     -11.060   7.937  69.109  1.00  0.00    -0.012 OA 
HETATM   15  O   UNL     2      -8.472   9.406  71.050  1.00  0.00    -0.285 OA 
HETATM   16  C   UNL     2      -9.825   7.996  69.449  1.00  0.00    -0.181 C  
ENDBRANCH   8  11
ENDBRANCH   4   8
BRANCH   7  17
HETATM   17  C   UNL     3      -9.322  11.332  67.312  1.00  0.00    -0.166 C  
HETATM   18  O   UNL     3     -10.737  11.346  66.887  1.00  0.00    -0.240 OA 
HETATM   19  H   UNL     3     -11.283  11.653  67.602  1.00  0.00     0.000 HD 
BRANCH  17  20
HETATM   20  C   UNL     3      -8.895  12.645  67.983  1.00  0.00    -0.195 C  
HETATM   21  C   UNL     3      -9.711  13.780  67.312  1.00  0.00    -0.242 C  
HETATM   22  O   UNL     3      -7.450  12.774  67.855  1.00  0.00    -0.101 OA 
HETATM   23  O   UNL     3     -10.971  13.531  67.353  1.00  0.00    -0.265 OA 
HETATM   24  O   UNL     3      -9.100  14.695  66.724  1.00  0.00    -0.241 OA 
HETATM   25  H   UNL     3      -7.185  13.587  68.270  1.00  0.00     0.000 HD 
ENDBRANCH  17  20
ENDBRANCH   7  17
TORSDOF 4
ENDMDL
MODEL      170
REMARK 921   NORMALIZED FREE ENERGY PREDICTED BY IDOCK:   -2.50 KCAL/MOL
REMARK 922        TOTAL FREE ENERGY PREDICTED BY IDOCK:   -4.26 KCAL/MOL
REMARK 923 INTER-LIGAND FREE ENERGY PREDICTED BY IDOCK:   -4.58 KCAL/MOL
REMARK 924 INTRA-LIGAND FREE ENERGY PREDICTED BY IDOCK:    0.32 KCAL/MOL
REMARK 927      BINDING AFFINITY PREDICTED BY RF-SCORE:    0.00 PKD
ROOT
HETATM    1 CA   UNL     1      -9.088  16.418  65.248  1.00  0.00    -0.233 Ca 
HETATM    2  O   UNL     2      -6.452  16.535  66.208  1.00  0.00    -0.125 OA 
HETATM    3  O   UNL     3     -13.152  13.889  65.128  1.00  0.00    -0.773 OA 
HETATM    4  C   UNL     2      -6.483  15.771  67.458  1.00  0.00    -0.173 C  
HETATM    5  H   UNL     2      -5.680  17.083  66.293  1.00  0.00     0.000 HD 
HETATM    6  H   UNL     3     -14.078  14.045  65.271  1.00  0.00     0.000 HD 
HETATM    7  C   UNL     3     -12.406  14.021  66.331  1.00  0.00    -0.431 C  
ENDROOT
BRANCH   4   8
HETATM    8  C   UNL     2      -7.715  14.897  67.322  1.00  0.00    -0.197 C  
HETATM    9  H   UNL     2      -9.586  15.099  67.834  1.00  0.00     0.000 HD 
HETATM   10  O   UNL     2      -8.815  15.646  67.919  1.00  0.00    -0.170 OA 
BRANCH   8  11
HETATM   11  C   UNL     2      -7.603  13.463  67.790  1.00  0.00    -0.157 C  
HETATM   12  O   UNL     2      -6.622  12.263  69.593  1.00  0.00    -0.103 OA 
HETATM   13  H   UNL     2      -6.788  11.846  67.075  1.00  0.00     0.000 HD 
HETATM   14  O   UNL     2      -7.195  14.476  69.866  1.00  0.00    -0.085 OA 
HETATM   15  O   UNL     2      -6.857  12.746  66.781  1.00  0.00     0.104 OA 
HETATM   16  C   UNL     2      -7.036  13.380  69.220  1.00  0.00     0.006 C  
ENDBRANCH   8  11
ENDBRANCH   4   8
BRANCH   7  17
HETATM   17  C   UNL     3     -10.907  13.767  66.101  1.00  0.00    -0.279 C  
HETATM   18  O   UNL     3     -10.359  14.803  65.200  1.00  0.00    -0.384 OA 
HETATM   19  H   UNL     3      -9.434  14.646  65.058  1.00  0.00     0.000 HD 
BRANCH  17  20
HETATM   20  C   UNL     3     -10.513  12.346  65.674  1.00  0.00    -0.261 C  
HETATM   21  C   UNL     3     -10.574  11.461  66.944  1.00  0.00    -0.252 C  
HETATM   22  O   UNL     3      -9.206  12.408  65.034  1.00  0.00    -0.350 OA 
HETATM   23  O   UNL     3     -11.717  11.559  67.523  1.00  0.00    -0.555 OA 
HETATM   24  O   UNL     3      -9.537  10.881  67.325  1.00  0.00    -0.163 OA 
HETATM   25  H   UNL     3      -8.962  11.528  64.769  1.00  0.00     0.000 HD 
ENDBRANCH  17  20
ENDBRANCH   7  17
TORSDOF 4
ENDMDL
MODEL      171
REMARK 921   NORMALIZED FREE ENERGY PREDICTED BY IDOCK:   -2.50 KCAL/MOL
REMARK 922        TOTAL FREE ENERGY PREDICTED BY IDOCK:   -4.26 KCAL/MOL
REMARK 923 INTER-LIGAND FREE ENERGY PREDICTED BY IDOCK:   -5.63 KCAL/MOL
REMARK 924 INTRA-LIGAND FREE ENERGY PREDICTED BY IDOCK:    1.37 KCAL/MOL
REMARK 927      BINDING AFFINITY PREDICTED BY RF-SCORE:    0.00 PKD
ROOT
HETATM    1 CA   UNL     1      -7.711  12.085  67.098  1.00  0.00    -0.112 Ca 
HETATM    2  O   UNL     2      -8.204  14.834  66.802  1.00  0.00    -0.361 OA 
HETATM    3  O   UNL     3      -9.636   7.783  67.941  1.00  0.00    -0.142 OA 
HETATM    4  C   UNL     2      -9.580  14.907  66.302  1.00  0.00    -0.307 C  
HETATM    5  H   UNL     2      -7.825  15.668  66.553  1.00  0.00     0.000 HD 
HETATM    6  H   UNL     3      -9.606   6.915  67.556  1.00  0.00     0.000 HD 
HETATM    7  C   UNL     3     -10.276   8.717  67.082  1.00  0.00    -0.276 C  
ENDROOT
BRANCH   4   8
HETATM    8  C   UNL     2     -10.186  13.575  66.699  1.00  0.00    -0.275 C  
HETATM    9  H   UNL     2      -9.915  11.732  66.118  1.00  0.00     0.000 HD 
HETATM   10  O   UNL     2      -9.536  12.567  65.869  1.00  0.00    -0.209 OA 
BRANCH   8  11
HETATM   11  C   UNL     2     -11.695  13.482  66.736  1.00  0.00    -0.391 C  
HETATM   12  O   UNL     2     -13.536  14.059  65.346  1.00  0.00    -0.679 OA 
HETATM   13  H   UNL     2     -13.090  14.250  67.857  1.00  0.00     0.000 HD 
HETATM   14  O   UNL     2     -11.473  13.653  64.407  1.00  0.00    -0.371 OA 
HETATM   15  O   UNL     2     -12.143  14.309  67.834  1.00  0.00    -0.345 OA 
HETATM   16  C   UNL     2     -12.313  13.811  65.363  1.00  0.00    -0.475 C  
ENDBRANCH   8  11
ENDBRANCH   4   8
BRANCH   7  17
HETATM   17  C   UNL     3     -10.326  10.121  67.705  1.00  0.00    -0.210 C  
HETATM   18  O   UNL     3      -9.112  10.876  67.329  1.00  0.00    -0.141 OA 
HETATM   19  H   UNL     3      -9.143  11.744  67.714  1.00  0.00     0.000 HD 
BRANCH  17  20
HETATM   20  C   UNL     3     -10.620  10.190  69.210  1.00  0.00    -0.230 C  
HETATM   21  C   UNL     3     -11.627  11.350  69.420  1.00  0.00    -0.323 C  
HETATM   22  O   UNL     3      -9.355  10.344  69.916  1.00  0.00    -0.407 OA 
HETATM   23  O   UNL     3     -12.660  11.209  68.668  1.00  0.00    -0.318 OA 
HETATM   24  O   UNL     3     -11.300  12.307  70.150  1.00  0.00    -0.055 OA 
HETATM   25  H   UNL     3      -9.537  10.387  70.848  1.00  0.00     0.000 HD 
ENDBRANCH  17  20
ENDBRANCH   7  17
TORSDOF 4
ENDMDL
MODEL      172
REMARK 921   NORMALIZED FREE ENERGY PREDICTED BY IDOCK:   -2.49 KCAL/MOL
REMARK 922        TOTAL FREE ENERGY PREDICTED BY IDOCK:   -4.26 KCAL/MOL
REMARK 923 INTER-LIGAND FREE ENERGY PREDICTED BY IDOCK:   -4.47 KCAL/MOL
REMARK 924 INTRA-LIGAND FREE ENERGY PREDICTED BY IDOCK:    0.22 KCAL/MOL
REMARK 927      BINDING AFFINITY PREDICTED BY RF-SCORE:    0.00 PKD
ROOT
HETATM    1 CA   UNL     1      -8.114  11.569  69.991  1.00  0.00    -0.344 Ca 
HETATM    2  O   UNL     2      -6.107   9.826  69.086  1.00  0.00    -0.037 OA 
HETATM    3  O   UNL     3     -12.092  13.970  68.837  1.00  0.00    -0.377 OA 
HETATM    4  C   UNL     2      -6.751   9.046  68.025  1.00  0.00    -0.068 C  
HETATM    5  H   UNL     2      -5.367   9.291  69.348  1.00  0.00     0.000 HD 
HETATM    6  H   UNL     3     -12.964  14.093  69.194  1.00  0.00     0.000 HD 
HETATM    7  C   UNL     3     -11.888  12.635  68.395  1.00  0.00    -0.301 C  
ENDROOT
BRANCH   4   8
HETATM    8  C   UNL     2      -7.931   9.901  67.607  1.00  0.00    -0.109 C  
HETATM    9  H   UNL     2      -9.739  10.151  68.296  1.00  0.00     0.000 HD 
HETATM   10  O   UNL     2      -8.999   9.616  68.558  1.00  0.00    -0.123 OA 
BRANCH   8  11
HETATM   11  C   UNL     2      -8.350   9.842  66.155  1.00  0.00    -0.122 C  
HETATM   12  O   UNL     2      -8.634   8.197  64.461  1.00  0.00    -0.057 OA 
HETATM   13  H   UNL     2      -7.630  10.549  64.489  1.00  0.00     0.000 HD 
HETATM   14  O   UNL     2      -8.813   7.603  66.679  1.00  0.00    -0.129 OA 
HETATM   15  O   UNL     2      -7.366  10.586  65.400  1.00  0.00    -0.142 OA 
HETATM   16  C   UNL     2      -8.581   8.390  65.693  1.00  0.00    -0.174 C  
ENDBRANCH   8  11
ENDBRANCH   4   8
BRANCH   7  17
HETATM   17  C   UNL     3     -10.477  12.437  67.817  1.00  0.00    -0.218 C  
HETATM   18  O   UNL     3      -9.468  12.743  68.853  1.00  0.00    -0.402 OA 
HETATM   19  H   UNL     3      -8.596  12.620  68.496  1.00  0.00     0.000 HD 
BRANCH  17  20
HETATM   20  C   UNL     3     -10.182  13.134  66.482  1.00  0.00    -0.277 C  
HETATM   21  C   UNL     3     -10.954  12.355  65.387  1.00  0.00    -0.299 C  
HETATM   22  O   UNL     3      -8.738  13.178  66.299  1.00  0.00    -0.418 OA 
HETATM   23  O   UNL     3     -12.200  12.249  65.683  1.00  0.00    -0.605 OA 
HETATM   24  O   UNL     3     -10.311  11.831  64.455  1.00  0.00    -0.270 OA 
HETATM   25  H   UNL     3      -8.555  13.610  65.472  1.00  0.00     0.000 HD 
ENDBRANCH  17  20
ENDBRANCH   7  17
TORSDOF 4
ENDMDL
MODEL      173
REMARK 921   NORMALIZED FREE ENERGY PREDICTED BY IDOCK:   -2.48 KCAL/MOL
REMARK 922        TOTAL FREE ENERGY PREDICTED BY IDOCK:   -4.24 KCAL/MOL
REMARK 923 INTER-LIGAND FREE ENERGY PREDICTED BY IDOCK:   -4.11 KCAL/MOL
REMARK 924 INTRA-LIGAND FREE ENERGY PREDICTED BY IDOCK:   -0.13 KCAL/MOL
REMARK 927      BINDING AFFINITY PREDICTED BY RF-SCORE:    0.00 PKD
ROOT
HETATM    1 CA   UNL     1     -10.812   5.613  69.857  1.00  0.00    -0.199 Ca 
HETATM    2  O   UNL     2     -13.312   6.740  70.461  1.00  0.00    -0.146 OA 
HETATM    3  O   UNL     3      -6.060   6.100  70.193  1.00  0.00    -0.028 OA 
HETATM    4  C   UNL     2     -13.075   7.523  71.677  1.00  0.00    -0.358 C  
HETATM    5  H   UNL     2     -14.250   6.593  70.461  1.00  0.00     0.000 HD 
HETATM    6  H   UNL     3      -5.320   5.570  70.463  1.00  0.00     0.000 HD 
HETATM    7  C   UNL     3      -6.909   6.414  71.290  1.00  0.00    -0.067 C  
ENDROOT
BRANCH   4   8
HETATM    8  C   UNL     2     -11.578   7.758  71.677  1.00  0.00    -0.267 C  
HETATM    9  H   UNL     2     -10.249   8.055  73.075  1.00  0.00     0.000 HD 
HETATM   10  O   UNL     2     -11.188   7.908  73.075  1.00  0.00    -0.411 OA 
BRANCH   8  11
HETATM   11  C   UNL     2     -11.043   8.832  70.756  1.00  0.00    -0.260 C  
HETATM   12  O   UNL     2     -11.729  10.952  69.928  1.00  0.00    -0.277 OA 
HETATM   13  H   UNL     2     -10.602   8.920  68.861  1.00  0.00     0.000 HD 
HETATM   14  O   UNL     2     -12.545  10.190  71.942  1.00  0.00    -0.396 OA 
HETATM   15  O   UNL     2     -10.938   8.245  69.439  1.00  0.00    -0.144 OA 
HETATM   16  C   UNL     2     -11.886  10.119  70.844  1.00  0.00    -0.374 C  
ENDBRANCH   8  11
ENDBRANCH   4   8
BRANCH   7  17
HETATM   17  C   UNL     3      -8.107   7.273  70.854  1.00  0.00    -0.106 C  
HETATM   18  O   UNL     3      -8.336   7.107  69.403  1.00  0.00    -0.130 OA 
HETATM   19  H   UNL     3      -9.076   7.638  69.134  1.00  0.00     0.000 HD 
BRANCH  17  20
HETATM   20  C   UNL     3      -8.082   8.747  71.282  1.00  0.00    -0.154 C  
HETATM   21  C   UNL     3      -6.740   9.339  70.780  1.00  0.00    -0.094 C  
HETATM   22  O   UNL     3      -8.275   8.806  72.724  1.00  0.00    -0.407 OA 
HETATM   23  O   UNL     3      -6.585   9.134  69.521  1.00  0.00    -0.042 OA 
HETATM   24  O   UNL     3      -5.940   9.808  71.614  1.00  0.00    -0.246 OA 
HETATM   25  H   UNL     3      -8.260   9.719  72.990  1.00  0.00     0.000 HD 
ENDBRANCH  17  20
ENDBRANCH   7  17
TORSDOF 4
ENDMDL
MODEL      174
REMARK 921   NORMALIZED FREE ENERGY PREDICTED BY IDOCK:   -2.47 KCAL/MOL
REMARK 922        TOTAL FREE ENERGY PREDICTED BY IDOCK:   -4.23 KCAL/MOL
REMARK 923 INTER-LIGAND FREE ENERGY PREDICTED BY IDOCK:   -4.42 KCAL/MOL
REMARK 924 INTRA-LIGAND FREE ENERGY PREDICTED BY IDOCK:    0.20 KCAL/MOL
REMARK 927      BINDING AFFINITY PREDICTED BY RF-SCORE:    0.00 PKD
ROOT
HETATM    1 CA   UNL     1     -12.832  10.574  69.179  1.00  0.00    -0.513 Ca 
HETATM    2  O   UNL     2     -11.932   8.262  70.493  1.00  0.00    -0.486 OA 
HETATM    3  O   UNL     3     -11.603  14.315  66.453  1.00  0.00    -0.346 OA 
HETATM    4  C   UNL     2     -10.777   7.821  69.707  1.00  0.00    -0.236 C  
HETATM    5  H   UNL     2     -12.201   7.482  70.963  1.00  0.00     0.000 HD 
HETATM    6  H   UNL     3     -11.910  14.731  65.657  1.00  0.00     0.000 HD 
HETATM    7  C   UNL     3     -11.077  13.018  66.200  1.00  0.00    -0.287 C  
ENDROOT
BRANCH   4   8
HETATM    8  C   UNL     2     -10.347   9.066  68.956  1.00  0.00    -0.219 C  
HETATM    9  H   UNL     2     -10.405   9.610  67.084  1.00  0.00     0.000 HD 
HETATM   10  O   UNL     2     -10.674   8.830  67.554  1.00  0.00    -0.253 OA 
BRANCH   8  11
HETATM   11  C   UNL     2      -8.943   9.572  69.198  1.00  0.00    -0.148 C  
HETATM   12  O   UNL     2      -6.712   8.881  68.751  1.00  0.00    -0.053 OA 
HETATM   13  H   UNL     2      -7.865   9.925  70.782  1.00  0.00     0.000 HD 
HETATM   14  O   UNL     2      -8.431   8.151  67.404  1.00  0.00    -0.123 OA 
HETATM   15  O   UNL     2      -8.746   9.606  70.630  1.00  0.00    -0.197 OA 
HETATM   16  C   UNL     2      -7.905   8.756  68.405  1.00  0.00    -0.104 C  
ENDBRANCH   8  11
ENDBRANCH   4   8
BRANCH   7  17
HETATM   17  C   UNL     3     -10.579  12.345  67.489  1.00  0.00    -0.219 C  
HETATM   18  O   UNL     3     -11.490  12.674  68.606  1.00  0.00    -0.261 OA 
HETATM   19  H   UNL     3     -11.182  12.258  69.402  1.00  0.00     0.000 HD 
BRANCH  17  20
HETATM   20  C   UNL     3      -9.103  12.564  67.847  1.00  0.00    -0.199 C  
HETATM   21  C   UNL     3      -8.905  14.091  68.025  1.00  0.00    -0.181 C  
HETATM   22  O   UNL     3      -8.285  11.959  66.805  1.00  0.00    -0.196 OA 
HETATM   23  O   UNL     3      -9.748  14.573  68.867  1.00  0.00    -0.213 OA 
HETATM   24  O   UNL     3      -8.090  14.683  67.289  1.00  0.00    -0.190 OA 
HETATM   25  H   UNL     3      -7.371  12.095  67.027  1.00  0.00     0.000 HD 
ENDBRANCH  17  20
ENDBRANCH   7  17
TORSDOF 4
ENDMDL
MODEL      175
REMARK 921   NORMALIZED FREE ENERGY PREDICTED BY IDOCK:   -2.46 KCAL/MOL
REMARK 922        TOTAL FREE ENERGY PREDICTED BY IDOCK:   -4.22 KCAL/MOL
REMARK 923 INTER-LIGAND FREE ENERGY PREDICTED BY IDOCK:   -3.94 KCAL/MOL
REMARK 924 INTRA-LIGAND FREE ENERGY PREDICTED BY IDOCK:   -0.28 KCAL/MOL
REMARK 927      BINDING AFFINITY PREDICTED BY RF-SCORE:    0.00 PKD
ROOT
HETATM    1 CA   UNL     1     -12.766   6.550  72.821  1.00  0.00    -0.481 Ca 
HETATM    2  O   UNL     2     -13.457   8.690  71.140  1.00  0.00    -0.529 OA 
HETATM    3  O   UNL     3      -9.304   3.532  74.174  1.00  0.00    -0.092 OA 
HETATM    4  C   UNL     2     -12.196   9.404  70.920  1.00  0.00    -0.227 C  
HETATM    5  H   UNL     2     -14.124   9.335  70.939  1.00  0.00     0.000 HD 
HETATM    6  H   UNL     3      -8.920   3.227  74.987  1.00  0.00     0.000 HD 
HETATM    7  C   UNL     3      -9.029   4.908  73.947  1.00  0.00    -0.113 C  
ENDROOT
BRANCH   4   8
HETATM    8  C   UNL     2     -11.131   8.375  71.241  1.00  0.00    -0.255 C  
HETATM    9  H   UNL     2      -9.310   8.475  71.936  1.00  0.00     0.000 HD 
HETATM   10  O   UNL     2      -9.978   9.120  71.735  1.00  0.00    -0.320 OA 
BRANCH   8  11
HETATM   11  C   UNL     2     -10.809   7.353  70.174  1.00  0.00    -0.256 C  
HETATM   12  O   UNL     2     -10.514   7.292  67.815  1.00  0.00    -0.201 OA 
HETATM   13  H   UNL     2     -11.694   5.759  69.488  1.00  0.00     0.000 HD 
HETATM   14  O   UNL     2     -10.138   9.249  68.968  1.00  0.00    -0.186 OA 
HETATM   15  O   UNL     2     -11.897   6.401  70.158  1.00  0.00    -0.409 OA 
HETATM   16  C   UNL     2     -10.497   8.027  68.824  1.00  0.00    -0.173 C  
ENDBRANCH   8  11
ENDBRANCH   4   8
BRANCH   7  17
HETATM   17  C   UNL     3      -9.650   5.402  72.630  1.00  0.00    -0.150 C  
HETATM   18  O   UNL     3     -10.844   4.592  72.309  1.00  0.00    -0.136 OA 
HETATM   19  H   UNL     3     -11.227   4.897  71.495  1.00  0.00     0.000 HD 
BRANCH  17  20
HETATM   20  C   UNL     3      -8.695   5.544  71.437  1.00  0.00    -0.132 C  
HETATM   21  C   UNL     3      -7.958   4.189  71.285  1.00  0.00    -0.072 C  
HETATM   22  O   UNL     3      -7.827   6.688  71.680  1.00  0.00    -0.100 OA 
HETATM   23  O   UNL     3      -8.792   3.214  71.204  1.00  0.00    -0.074 OA 
HETATM   24  O   UNL     3      -6.715   4.165  71.382  1.00  0.00    -0.028 OA 
HETATM   25  H   UNL     3      -7.236   6.776  70.941  1.00  0.00     0.000 HD 
ENDBRANCH  17  20
ENDBRANCH   7  17
TORSDOF 4
ENDMDL
MODEL      176
REMARK 921   NORMALIZED FREE ENERGY PREDICTED BY IDOCK:   -2.44 KCAL/MOL
REMARK 922        TOTAL FREE ENERGY PREDICTED BY IDOCK:   -4.19 KCAL/MOL
REMARK 923 INTER-LIGAND FREE ENERGY PREDICTED BY IDOCK:   -3.31 KCAL/MOL
REMARK 924 INTRA-LIGAND FREE ENERGY PREDICTED BY IDOCK:   -0.88 KCAL/MOL
REMARK 927      BINDING AFFINITY PREDICTED BY RF-SCORE:    0.00 PKD
ROOT
HETATM    1 CA   UNL     1      -6.128   9.027  69.589  1.00  0.00    -0.035 Ca 
HETATM    2  O   UNL     2      -6.437   6.927  71.428  1.00  0.00    -0.041 OA 
HETATM    3  O   UNL     3      -8.356  12.075  66.644  1.00  0.00    -0.286 OA 
HETATM    4  C   UNL     2      -7.768   7.138  72.004  1.00  0.00    -0.091 C  
HETATM    5  H   UNL     2      -5.993   6.384  72.068  1.00  0.00     0.000 HD 
HETATM    6  H   UNL     3      -8.350  13.008  66.468  1.00  0.00     0.000 HD 
HETATM    7  C   UNL     3      -8.879  11.787  67.935  1.00  0.00    -0.165 C  
ENDROOT
BRANCH   4   8
HETATM    8  C   UNL     2      -8.477   8.004  70.982  1.00  0.00    -0.128 C  
HETATM    9  H   UNL     2      -8.372   9.890  70.493  1.00  0.00     0.000 HD 
HETATM   10  O   UNL     2      -7.928   9.348  71.133  1.00  0.00    -0.322 OA 
BRANCH   8  11
HETATM   11  C   UNL     2      -9.987   7.942  70.947  1.00  0.00    -0.182 C  
HETATM   12  O   UNL     2     -11.686   6.981  69.589  1.00  0.00    -0.084 OA 
HETATM   13  H   UNL     2     -11.411   9.254  70.730  1.00  0.00     0.000 HD 
HETATM   14  O   UNL     2      -9.590   6.031  69.647  1.00  0.00    -0.144 OA 
HETATM   15  O   UNL     2     -10.462   9.293  70.751  1.00  0.00    -0.231 OA 
HETATM   16  C   UNL     2     -10.485   6.908  69.919  1.00  0.00    -0.216 C  
ENDBRANCH   8  11
ENDBRANCH   4   8
BRANCH   7  17
HETATM   17  C   UNL     3      -8.890  10.277  68.220  1.00  0.00    -0.126 C  
HETATM   18  O   UNL     3      -7.528   9.728  68.047  1.00  0.00    -0.081 OA 
HETATM   19  H   UNL     3      -7.535   8.795  68.223  1.00  0.00     0.000 HD 
BRANCH  17  20
HETATM   20  C   UNL     3      -9.956   9.451  67.487  1.00  0.00    -0.199 C  
HETATM   21  C   UNL     3      -9.588   9.477  65.981  1.00  0.00    -0.251 C  
HETATM   22  O   UNL     3     -11.263  10.006  67.806  1.00  0.00    -0.459 OA 
HETATM   23  O   UNL     3      -8.376   9.094  65.792  1.00  0.00    -0.116 OA 
HETATM   24  O   UNL     3     -10.405   9.958  65.170  1.00  0.00    -0.152 OA 
HETATM   25  H   UNL     3     -11.924   9.495  67.353  1.00  0.00     0.000 HD 
ENDBRANCH  17  20
ENDBRANCH   7  17
TORSDOF 4
ENDMDL
MODEL      177
REMARK 921   NORMALIZED FREE ENERGY PREDICTED BY IDOCK:   -2.43 KCAL/MOL
REMARK 922        TOTAL FREE ENERGY PREDICTED BY IDOCK:   -4.18 KCAL/MOL
REMARK 923 INTER-LIGAND FREE ENERGY PREDICTED BY IDOCK:   -4.11 KCAL/MOL
REMARK 924 INTRA-LIGAND FREE ENERGY PREDICTED BY IDOCK:   -0.07 KCAL/MOL
REMARK 927      BINDING AFFINITY PREDICTED BY RF-SCORE:    0.00 PKD
ROOT
HETATM    1 CA   UNL     1     -11.759  11.303  66.474  1.00  0.00    -0.312 Ca 
HETATM    2  O   UNL     2      -9.943  10.258  64.604  1.00  0.00    -0.336 OA 
HETATM    3  O   UNL     3     -12.978  11.560  71.097  1.00  0.00    -0.340 OA 
HETATM    4  C   UNL     2      -8.695  10.099  65.356  1.00  0.00    -0.161 C  
HETATM    5  H   UNL     2      -9.664  10.281  63.697  1.00  0.00     0.000 HD 
HETATM    6  H   UNL     3     -13.200  12.237  71.726  1.00  0.00     0.000 HD 
HETATM    7  C   UNL     3     -11.618  11.646  70.692  1.00  0.00     0.235 C  
ENDROOT
BRANCH   4   8
HETATM    8  C   UNL     2      -9.141  10.062  66.804  1.00  0.00    -0.139 C  
HETATM    9  H   UNL     2     -10.835   9.683  67.695  1.00  0.00     0.000 HD 
HETATM   10  O   UNL     2     -10.556   9.707  66.788  1.00  0.00    -0.209 OA 
BRANCH   8  11
HETATM   11  C   UNL     2      -8.804  11.259  67.665  1.00  0.00    -0.138 C  
HETATM   12  O   UNL     2      -8.422  13.589  67.382  1.00  0.00    -0.179 OA 
HETATM   13  H   UNL     2      -7.285  11.768  68.773  1.00  0.00     0.000 HD 
HETATM   14  O   UNL     2      -9.728  12.449  65.867  1.00  0.00    -0.252 OA 
HETATM   15  O   UNL     2      -7.497  11.017  68.232  1.00  0.00    -0.084 OA 
HETATM   16  C   UNL     2      -8.953  12.577  66.881  1.00  0.00    -0.212 C  
ENDBRANCH   8  11
ENDBRANCH   4   8
BRANCH   7  17
HETATM   17  C   UNL     3     -11.258  10.551  69.675  1.00  0.00    -0.282 C  
HETATM   18  O   UNL     3     -12.438  10.237  68.843  1.00  0.00    -0.469 OA 
HETATM   19  H   UNL     3     -12.216   9.560  68.214  1.00  0.00     0.000 HD 
BRANCH  17  20
HETATM   20  C   UNL     3     -10.582   9.292  70.238  1.00  0.00    -0.235 C  
HETATM   21  C   UNL     3     -11.517   8.735  71.342  1.00  0.00    -0.297 C  
HETATM   22  O   UNL     3      -9.247   9.656  70.693  1.00  0.00    -0.286 OA 
HETATM   23  O   UNL     3     -12.709   8.561  70.896  1.00  0.00    -0.086 OA 
HETATM   24  O   UNL     3     -11.082   8.641  72.507  1.00  0.00    -0.325 OA 
HETATM   25  H   UNL     3      -8.829   8.877  71.041  1.00  0.00     0.000 HD 
ENDBRANCH  17  20
ENDBRANCH   7  17
TORSDOF 4
ENDMDL
MODEL      178
REMARK 921   NORMALIZED FREE ENERGY PREDICTED BY IDOCK:   -2.42 KCAL/MOL
REMARK 922        TOTAL FREE ENERGY PREDICTED BY IDOCK:   -4.16 KCAL/MOL
REMARK 923 INTER-LIGAND FREE ENERGY PREDICTED BY IDOCK:   -4.77 KCAL/MOL
REMARK 924 INTRA-LIGAND FREE ENERGY PREDICTED BY IDOCK:    0.60 KCAL/MOL
REMARK 927      BINDING AFFINITY PREDICTED BY RF-SCORE:    0.00 PKD
ROOT
HETATM    1 CA   UNL     1     -12.969  14.778  68.989  1.00  0.00    -0.533 Ca 
HETATM    2  O   UNL     2     -11.448  16.946  68.056  1.00  0.00    -0.072 OA 
HETATM    3  O   UNL     3     -12.991  10.097  69.999  1.00  0.00    -0.570 OA 
HETATM    4  C   UNL     2     -10.070  16.610  68.422  1.00  0.00    -0.268 C  
HETATM    5  H   UNL     2     -11.432  17.888  67.938  1.00  0.00     0.000 HD 
HETATM    6  H   UNL     3     -13.255   9.538  70.720  1.00  0.00     0.000 HD 
HETATM    7  C   UNL     3     -11.884  10.918  70.348  1.00  0.00    -0.357 C  
ENDROOT
BRANCH   4   8
HETATM    8  C   UNL     2     -10.097  15.106  68.611  1.00  0.00    -0.222 C  
HETATM    9  H   UNL     2      -8.859  13.812  69.385  1.00  0.00     0.000 HD 
HETATM   10  O   UNL     2      -8.842  14.754  69.267  1.00  0.00    -0.135 OA 
BRANCH   8  11
HETATM   11  C   UNL     2     -10.435  14.260  67.404  1.00  0.00    -0.264 C  
HETATM   12  O   UNL     2      -9.792  14.102  65.120  1.00  0.00    -0.276 OA 
HETATM   13  H   UNL     2     -12.038  13.970  66.337  1.00  0.00     0.000 HD 
HETATM   14  O   UNL     2      -8.334  14.994  66.662  1.00  0.00    -0.218 OA 
HETATM   15  O   UNL     2     -11.826  14.502  67.095  1.00  0.00    -0.392 OA 
HETATM   16  C   UNL     2      -9.446  14.507  66.249  1.00  0.00    -0.283 C  
ENDBRANCH   8  11
ENDBRANCH   4   8
BRANCH   7  17
HETATM   17  C   UNL     3     -11.456  11.822  69.181  1.00  0.00    -0.297 C  
HETATM   18  O   UNL     3     -12.647  12.234  68.409  1.00  0.00     0.209 OA 
HETATM   19  H   UNL     3     -12.382  12.792  67.687  1.00  0.00     0.000 HD 
BRANCH  17  20
HETATM   20  C   UNL     3     -10.327  11.292  68.286  1.00  0.00    -0.183 C  
HETATM   21  C   UNL     3     -10.999  10.503  67.133  1.00  0.00    -0.228 C  
HETATM   22  O   UNL     3      -9.417  10.512  69.112  1.00  0.00    -0.195 OA 
HETATM   23  O   UNL     3     -11.881  11.219  66.533  1.00  0.00    -0.251 OA 
HETATM   24  O   UNL     3     -10.729   9.293  66.995  1.00  0.00    -0.232 OA 
HETATM   25  H   UNL     3      -8.717  10.184  68.558  1.00  0.00     0.000 HD 
ENDBRANCH  17  20
ENDBRANCH   7  17
TORSDOF 4
ENDMDL
MODEL      179
REMARK 921   NORMALIZED FREE ENERGY PREDICTED BY IDOCK:   -2.41 KCAL/MOL
REMARK 922        TOTAL FREE ENERGY PREDICTED BY IDOCK:   -4.15 KCAL/MOL
REMARK 923 INTER-LIGAND FREE ENERGY PREDICTED BY IDOCK:   -4.14 KCAL/MOL
REMARK 924 INTRA-LIGAND FREE ENERGY PREDICTED BY IDOCK:   -0.01 KCAL/MOL
REMARK 927      BINDING AFFINITY PREDICTED BY RF-SCORE:    0.00 PKD
ROOT
HETATM    1 CA   UNL     1      -8.338  12.405  67.967  1.00  0.00    -0.117 Ca 
HETATM    2  O   UNL     2     -10.394  13.486  69.543  1.00  0.00    -0.364 OA 
HETATM    3  O   UNL     3      -6.775   8.552  65.591  1.00  0.00    -0.059 OA 
HETATM    4  C   UNL     2     -11.596  12.760  69.124  1.00  0.00    -0.319 C  
HETATM    5  H   UNL     2     -10.732  14.280  69.941  1.00  0.00     0.000 HD 
HETATM    6  H   UNL     3      -6.428   8.355  64.729  1.00  0.00     0.000 HD 
HETATM    7  C   UNL     3      -8.140   8.948  65.530  1.00  0.00    -0.112 C  
ENDROOT
BRANCH   4   8
HETATM    8  C   UNL     2     -11.058  11.494  68.489  1.00  0.00    -0.236 C  
HETATM    9  H   UNL     2     -11.698  10.300  67.085  1.00  0.00     0.000 HD 
HETATM   10  O   UNL     2     -12.036  11.093  67.483  1.00  0.00    -0.580 OA 
BRANCH   8  11
HETATM   11  C   UNL     2     -10.620  10.383  69.418  1.00  0.00    -0.239 C  
HETATM   12  O   UNL     2     -11.190   9.552  71.572  1.00  0.00    -0.372 OA 
HETATM   13  H   UNL     2      -8.972   9.954  70.363  1.00  0.00     0.000 HD 
HETATM   14  O   UNL     2     -12.756  10.701  70.334  1.00  0.00    -0.333 OA 
HETATM   15  O   UNL     2      -9.247  10.652  69.781  1.00  0.00     0.012 OA 
HETATM   16  C   UNL     2     -11.598  10.218  70.597  1.00  0.00    -0.347 C  
ENDBRANCH   8  11
ENDBRANCH   4   8
BRANCH   7  17
HETATM   17  C   UNL     3      -8.701   9.266  66.925  1.00  0.00    -0.127 C  
HETATM   18  O   UNL     3      -7.619   9.775  67.793  1.00  0.00    -0.090 OA 
HETATM   19  H   UNL     3      -7.965   9.972  68.655  1.00  0.00     0.000 HD 
BRANCH  17  20
HETATM   20  C   UNL     3      -9.527   8.161  67.598  1.00  0.00    -0.145 C  
HETATM   21  C   UNL     3      -8.669   6.870  67.555  1.00  0.00    -0.120 C  
HETATM   22  O   UNL     3     -10.808   8.066  66.913  1.00  0.00    -0.386 OA 
HETATM   23  O   UNL     3      -7.506   7.069  68.064  1.00  0.00    -0.094 OA 
HETATM   24  O   UNL     3      -9.115   5.871  66.956  1.00  0.00    -0.115 OA 
HETATM   25  H   UNL     3     -11.319   7.382  67.329  1.00  0.00     0.000 HD 
ENDBRANCH  17  20
ENDBRANCH   7  17
TORSDOF 4
ENDMDL
MODEL      180
REMARK 921   NORMALIZED FREE ENERGY PREDICTED BY IDOCK:   -2.39 KCAL/MOL
REMARK 922        TOTAL FREE ENERGY PREDICTED BY IDOCK:   -4.13 KCAL/MOL
REMARK 923 INTER-LIGAND FREE ENERGY PREDICTED BY IDOCK:   -4.47 KCAL/MOL
REMARK 924 INTRA-LIGAND FREE ENERGY PREDICTED BY IDOCK:    0.34 KCAL/MOL
REMARK 927      BINDING AFFINITY PREDICTED BY RF-SCORE:    0.00 PKD
ROOT
HETATM    1 CA   UNL     1     -13.310   6.260  72.577  1.00  0.00    -0.483 Ca 
HETATM    2  O   UNL     2     -13.808   8.554  71.037  1.00  0.00    -0.575 OA 
HETATM    3  O   UNL     3      -9.961   3.403  74.461  1.00  0.00    -0.123 OA 
HETATM    4  C   UNL     2     -12.636   9.405  71.258  1.00  0.00    -0.325 C  
HETATM    5  H   UNL     2     -14.478   9.158  70.738  1.00  0.00     0.000 HD 
HETATM    6  H   UNL     3      -9.766   3.016  75.306  1.00  0.00     0.000 HD 
HETATM    7  C   UNL     3      -9.816   4.817  74.483  1.00  0.00    -0.186 C  
ENDROOT
BRANCH   4   8
HETATM    8  C   UNL     2     -11.568   8.441  71.735  1.00  0.00    -0.308 C  
HETATM    9  H   UNL     2     -11.237   7.500  73.412  1.00  0.00     0.000 HD 
HETATM   10  O   UNL     2     -11.907   8.104  73.114  1.00  0.00    -0.224 OA 
BRANCH   8  11
HETATM   11  C   UNL     2     -10.125   8.842  71.522  1.00  0.00    -0.301 C  
HETATM   12  O   UNL     2      -8.354   8.337  70.019  1.00  0.00    -0.117 OA 
HETATM   13  H   UNL     2      -8.483   8.658  72.553  1.00  0.00     0.000 HD 
HETATM   14  O   UNL     2     -10.539   8.085  69.340  1.00  0.00    -0.229 OA 
HETATM   15  O   UNL     2      -9.389   8.406  72.687  1.00  0.00    -0.262 OA 
HETATM   16  C   UNL     2      -9.592   8.330  70.170  1.00  0.00    -0.167 C  
ENDBRANCH   8  11
ENDBRANCH   4   8
BRANCH   7  17
HETATM   17  C   UNL     3     -10.131   5.442  73.114  1.00  0.00    -0.181 C  
HETATM   18  O   UNL     3     -11.591   5.428  72.886  1.00  0.00    -0.406 OA 
HETATM   19  H   UNL     3     -11.786   5.814  72.040  1.00  0.00     0.000 HD 
BRANCH  17  20
HETATM   20  C   UNL     3      -9.341   4.897  71.916  1.00  0.00    -0.142 C  
HETATM   21  C   UNL     3      -7.847   5.212  72.181  1.00  0.00    -0.108 C  
HETATM   22  O   UNL     3      -9.885   5.490  70.703  1.00  0.00    -0.174 OA 
HETATM   23  O   UNL     3      -7.475   4.766  73.328  1.00  0.00    -0.084 OA 
HETATM   24  O   UNL     3      -7.230   5.930  71.369  1.00  0.00    -0.075 OA 
HETATM   25  H   UNL     3      -9.397   5.153  69.960  1.00  0.00     0.000 HD 
ENDBRANCH  17  20
ENDBRANCH   7  17
TORSDOF 4
ENDMDL
MODEL      181
REMARK 921   NORMALIZED FREE ENERGY PREDICTED BY IDOCK:   -2.37 KCAL/MOL
REMARK 922        TOTAL FREE ENERGY PREDICTED BY IDOCK:   -4.11 KCAL/MOL
REMARK 923 INTER-LIGAND FREE ENERGY PREDICTED BY IDOCK:   -4.50 KCAL/MOL
REMARK 924 INTRA-LIGAND FREE ENERGY PREDICTED BY IDOCK:    0.39 KCAL/MOL
REMARK 927      BINDING AFFINITY PREDICTED BY RF-SCORE:    0.00 PKD
ROOT
HETATM    1 CA   UNL     1     -12.679   6.879  69.827  1.00  0.00    -0.609 Ca 
HETATM    2  O   UNL     2     -12.794   5.981  72.485  1.00  0.00    -0.507 OA 
HETATM    3  O   UNL     3     -10.039   9.098  66.506  1.00  0.00    -0.273 OA 
HETATM    4  C   UNL     2     -11.398   5.717  72.843  1.00  0.00    -0.252 C  
HETATM    5  H   UNL     2     -13.292   5.469  73.110  1.00  0.00     0.000 HD 
HETATM    6  H   UNL     3      -9.775   8.947  65.606  1.00  0.00     0.000 HD 
HETATM    7  C   UNL     3      -9.458   8.149  67.391  1.00  0.00    -0.155 C  
ENDROOT
BRANCH   4   8
HETATM    8  C   UNL     2     -10.602   6.535  71.845  1.00  0.00    -0.210 C  
HETATM    9  H   UNL     2     -10.116   6.293  69.971  1.00  0.00     0.000 HD 
HETATM   10  O   UNL     2     -10.614   5.780  70.596  1.00  0.00    -0.244 OA 
BRANCH   8  11
HETATM   11  C   UNL     2      -9.235   7.017  72.275  1.00  0.00    -0.133 C  
HETATM   12  O   UNL     2      -7.218   6.086  73.122  1.00  0.00    -0.084 OA 
HETATM   13  H   UNL     2      -8.573   8.180  73.691  1.00  0.00     0.000 HD 
HETATM   14  O   UNL     2      -8.635   4.789  71.853  1.00  0.00    -0.119 OA 
HETATM   15  O   UNL     2      -9.431   7.877  73.421  1.00  0.00    -0.271 OA 
HETATM   16  C   UNL     2      -8.264   5.840  72.487  1.00  0.00    -0.117 C  
ENDBRANCH   8  11
ENDBRANCH   4   8
BRANCH   7  17
HETATM   17  C   UNL     3      -9.885   8.395  68.847  1.00  0.00    -0.180 C  
HETATM   18  O   UNL     3     -11.347   8.217  68.973  1.00  0.00    -0.283 OA 
HETATM   19  H   UNL     3     -11.611   8.369  69.873  1.00  0.00     0.000 HD 
BRANCH  17  20
HETATM   20  C   UNL     3      -9.391   9.696  69.493  1.00  0.00    -0.200 C  
HETATM   21  C   UNL     3      -7.879   9.511  69.780  1.00  0.00    -0.128 C  
HETATM   22  O   UNL     3     -10.208   9.961  70.670  1.00  0.00    -0.334 OA 
HETATM   23  O   UNL     3      -7.246   9.154  68.719  1.00  0.00    -0.072 OA 
HETATM   24  O   UNL     3      -7.474   9.594  70.957  1.00  0.00    -0.327 OA 
HETATM   25  H   UNL     3      -9.902  10.766  71.070  1.00  0.00     0.000 HD 
ENDBRANCH  17  20
ENDBRANCH   7  17
TORSDOF 4
ENDMDL
MODEL      182
REMARK 921   NORMALIZED FREE ENERGY PREDICTED BY IDOCK:   -2.37 KCAL/MOL
REMARK 922        TOTAL FREE ENERGY PREDICTED BY IDOCK:   -4.10 KCAL/MOL
REMARK 923 INTER-LIGAND FREE ENERGY PREDICTED BY IDOCK:   -3.25 KCAL/MOL
REMARK 924 INTRA-LIGAND FREE ENERGY PREDICTED BY IDOCK:   -0.86 KCAL/MOL
REMARK 927      BINDING AFFINITY PREDICTED BY RF-SCORE:    0.00 PKD
ROOT
HETATM    1 CA   UNL     1     -12.257   6.312  70.190  1.00  0.00    -0.372 Ca 
HETATM    2  O   UNL     2     -12.525   9.102  70.351  1.00  0.00    -0.465 OA 
HETATM    3  O   UNL     3      -9.234   2.651  69.564  1.00  0.00    -0.111 OA 
HETATM    4  C   UNL     2     -11.228   9.566  70.849  1.00  0.00    -0.341 C  
HETATM    5  H   UNL     2     -13.119   9.814  70.558  1.00  0.00     0.000 HD 
HETATM    6  H   UNL     3      -9.036   1.827  69.992  1.00  0.00     0.000 HD 
HETATM    7  C   UNL     3      -8.882   3.763  70.378  1.00  0.00    -0.086 C  
ENDROOT
BRANCH   4   8
HETATM    8  C   UNL     2     -10.280   8.429  70.520  1.00  0.00    -0.196 C  
HETATM    9  H   UNL     2      -9.859   6.723  71.367  1.00  0.00     0.000 HD 
HETATM   10  O   UNL     2     -10.453   7.435  71.574  1.00  0.00    -0.202 OA 
BRANCH   8  11
HETATM   11  C   UNL     2      -8.842   8.789  70.224  1.00  0.00    -0.160 C  
HETATM   12  O   UNL     2      -7.338   8.694  68.384  1.00  0.00    -0.083 OA 
HETATM   13  H   UNL     2      -7.112   8.178  70.879  1.00  0.00     0.000 HD 
HETATM   14  O   UNL     2      -9.607   8.812  68.007  1.00  0.00    -0.139 OA 
HETATM   15  O   UNL     2      -8.015   7.952  71.065  1.00  0.00    -0.086 OA 
HETATM   16  C   UNL     2      -8.542   8.714  68.714  1.00  0.00    -0.130 C  
ENDBRANCH   8  11
ENDBRANCH   4   8
BRANCH   7  17
HETATM   17  C   UNL     3      -9.201   5.098  69.686  1.00  0.00    -0.119 C  
HETATM   18  O   UNL     3     -10.662   5.224  69.500  1.00  0.00    -0.252 OA 
HETATM   19  H   UNL     3     -10.860   6.049  69.072  1.00  0.00     0.000 HD 
BRANCH  17  20
HETATM   20  C   UNL     3      -8.415   5.409  68.405  1.00  0.00    -0.096 C  
HETATM   21  C   UNL     3      -8.739   4.281  67.393  1.00  0.00    -0.106 C  
HETATM   22  O   UNL     3      -7.006   5.531  68.753  1.00  0.00    -0.057 OA 
HETATM   23  O   UNL     3     -10.008   4.150  67.235  1.00  0.00    -0.168 OA 
HETATM   24  O   UNL     3      -7.807   3.574  66.959  1.00  0.00    -0.079 OA 
HETATM   25  H   UNL     3      -6.518   5.724  67.960  1.00  0.00     0.000 HD 
ENDBRANCH  17  20
ENDBRANCH   7  17
TORSDOF 4
ENDMDL
MODEL      183
REMARK 921   NORMALIZED FREE ENERGY PREDICTED BY IDOCK:   -2.37 KCAL/MOL
REMARK 922        TOTAL FREE ENERGY PREDICTED BY IDOCK:   -4.10 KCAL/MOL
REMARK 923 INTER-LIGAND FREE ENERGY PREDICTED BY IDOCK:   -3.33 KCAL/MOL
REMARK 924 INTRA-LIGAND FREE ENERGY PREDICTED BY IDOCK:   -0.77 KCAL/MOL
REMARK 927      BINDING AFFINITY PREDICTED BY RF-SCORE:    0.00 PKD
ROOT
HETATM    1 CA   UNL     1     -11.147   4.853  71.430  1.00  0.00    -0.189 Ca 
HETATM    2  O   UNL     2      -9.639   2.693  70.456  1.00  0.00    -0.144 OA 
HETATM    3  O   UNL     3     -11.533   9.618  71.687  1.00  0.00    -0.380 OA 
HETATM    4  C   UNL     2      -8.996   3.212  69.246  1.00  0.00    -0.117 C  
HETATM    5  H   UNL     2      -9.617   1.751  70.342  1.00  0.00     0.000 HD 
HETATM    6  H   UNL     3     -12.204  10.275  71.540  1.00  0.00     0.000 HD 
HETATM    7  C   UNL     3     -11.151   8.978  70.476  1.00  0.00    -0.254 C  
ENDROOT
BRANCH   4   8
HETATM    8  C   UNL     2      -9.031   4.716  69.428  1.00  0.00    -0.096 C  
HETATM    9  H   UNL     2     -10.457   6.048  69.463  1.00  0.00     0.000 HD 
HETATM   10  O   UNL     2     -10.435   5.105  69.349  1.00  0.00    -0.230 OA 
BRANCH   8  11
HETATM   11  C   UNL     2      -8.101   5.542  68.568  1.00  0.00    -0.099 C  
HETATM   12  O   UNL     2      -6.208   6.952  68.859  1.00  0.00    -0.025 OA 
HETATM   13  H   UNL     2      -8.314   7.098  67.416  1.00  0.00     0.000 HD 
HETATM   14  O   UNL     2      -6.662   5.307  70.405  1.00  0.00    -0.040 OA 
HETATM   15  O   UNL     2      -8.899   6.580  67.956  1.00  0.00    -0.117 OA 
HETATM   16  C   UNL     2      -6.878   6.029  69.368  1.00  0.00    -0.062 C  
ENDBRANCH   8  11
ENDBRANCH   4   8
BRANCH   7  17
HETATM   17  C   UNL     3     -10.065   7.916  70.714  1.00  0.00    -0.192 C  
HETATM   18  O   UNL     3     -10.549   6.921  71.693  1.00  0.00    -0.209 OA 
HETATM   19  H   UNL     3      -9.878   6.264  71.840  1.00  0.00     0.000 HD 
BRANCH  17  20
HETATM   20  C   UNL     3      -8.661   8.438  71.048  1.00  0.00    -0.156 C  
HETATM   21  C   UNL     3      -8.342   7.977  72.493  1.00  0.00    -0.157 C  
HETATM   22  O   UNL     3      -8.651   9.881  70.850  1.00  0.00    -0.339 OA 
HETATM   23  O   UNL     3      -8.496   6.708  72.620  1.00  0.00    -0.123 OA 
HETATM   24  O   UNL     3      -8.108   8.841  73.363  1.00  0.00    -0.402 OA 
HETATM   25  H   UNL     3      -7.782  10.204  71.057  1.00  0.00     0.000 HD 
ENDBRANCH  17  20
ENDBRANCH   7  17
TORSDOF 4
ENDMDL
MODEL      184
REMARK 921   NORMALIZED FREE ENERGY PREDICTED BY IDOCK:   -2.34 KCAL/MOL
REMARK 922        TOTAL FREE ENERGY PREDICTED BY IDOCK:   -4.07 KCAL/MOL
REMARK 923 INTER-LIGAND FREE ENERGY PREDICTED BY IDOCK:   -4.21 KCAL/MOL
REMARK 924 INTRA-LIGAND FREE ENERGY PREDICTED BY IDOCK:    0.14 KCAL/MOL
REMARK 927      BINDING AFFINITY PREDICTED BY RF-SCORE:    0.00 PKD
ROOT
HETATM    1 CA   UNL     1      -9.975   6.271  67.685  1.00  0.00    -0.121 Ca 
HETATM    2  O   UNL     2      -8.992   3.739  68.395  1.00  0.00    -0.104 OA 
HETATM    3  O   UNL     3     -11.821  10.393  69.276  1.00  0.00    -0.466 OA 
HETATM    4  C   UNL     2      -8.459   3.919  69.748  1.00  0.00    -0.060 C  
HETATM    5  H   UNL     2      -8.552   2.960  68.076  1.00  0.00     0.000 HD 
HETATM    6  H   UNL     3     -11.665  11.323  69.155  1.00  0.00     0.000 HD 
HETATM    7  C   UNL     3     -10.741   9.763  69.954  1.00  0.00    -0.268 C  
ENDROOT
BRANCH   4   8
HETATM    8  C   UNL     2      -9.162   5.163  70.256  1.00  0.00    -0.146 C  
HETATM    9  H   UNL     2     -10.821   6.075  69.784  1.00  0.00     0.000 HD 
HETATM   10  O   UNL     2     -10.381   5.296  69.465  1.00  0.00    -0.253 OA 
BRANCH   8  11
HETATM   11  C   UNL     2      -8.341   6.428  70.365  1.00  0.00    -0.126 C  
HETATM   12  O   UNL     2      -6.480   7.427  69.274  1.00  0.00    -0.035 OA 
HETATM   13  H   UNL     2      -7.176   7.197  71.724  1.00  0.00     0.000 HD 
HETATM   14  O   UNL     2      -7.807   5.928  68.136  1.00  0.00    -0.102 OA 
HETATM   15  O   UNL     2      -7.691   6.401  71.656  1.00  0.00    -0.097 OA 
HETATM   16  C   UNL     2      -7.404   6.598  69.153  1.00  0.00    -0.093 C  
ENDBRANCH   8  11
ENDBRANCH   4   8
BRANCH   7  17
HETATM   17  C   UNL     3     -10.994   8.260  70.150  1.00  0.00    -0.222 C  
HETATM   18  O   UNL     3     -11.259   7.625  68.842  1.00  0.00    -0.415 OA 
HETATM   19  H   UNL     3     -11.415   6.696  68.963  1.00  0.00     0.000 HD 
BRANCH  17  20
HETATM   20  C   UNL     3     -12.031   7.875  71.214  1.00  0.00    -0.298 C  
HETATM   21  C   UNL     3     -11.248   7.273  72.409  1.00  0.00    -0.281 C  
HETATM   22  O   UNL     3     -12.999   6.975  70.603  1.00  0.00    -0.569 OA 
HETATM   23  O   UNL     3     -10.327   8.075  72.810  1.00  0.00    -0.298 OA 
HETATM   24  O   UNL     3     -11.487   6.099  72.755  1.00  0.00    -0.254 OA 
HETATM   25  H   UNL     3     -13.642   6.736  71.261  1.00  0.00     0.000 HD 
ENDBRANCH  17  20
ENDBRANCH   7  17
TORSDOF 4
ENDMDL
MODEL      185
REMARK 921   NORMALIZED FREE ENERGY PREDICTED BY IDOCK:   -2.33 KCAL/MOL
REMARK 922        TOTAL FREE ENERGY PREDICTED BY IDOCK:   -4.06 KCAL/MOL
REMARK 923 INTER-LIGAND FREE ENERGY PREDICTED BY IDOCK:   -3.94 KCAL/MOL
REMARK 924 INTRA-LIGAND FREE ENERGY PREDICTED BY IDOCK:   -0.12 KCAL/MOL
REMARK 927      BINDING AFFINITY PREDICTED BY RF-SCORE:    0.00 PKD
ROOT
HETATM    1 CA   UNL     1     -11.746   8.461  67.154  1.00  0.00    -0.354 Ca 
HETATM    2  O   UNL     2     -11.993  10.702  68.828  1.00  0.00    -0.655 OA 
HETATM    3  O   UNL     3      -8.934   4.839  65.771  1.00  0.00    -0.128 OA 
HETATM    4  C   UNL     2     -11.144  10.392  69.981  1.00  0.00    -0.314 C  
HETATM    5  H   UNL     2     -12.590  11.365  69.153  1.00  0.00     0.000 HD 
HETATM    6  H   UNL     3      -9.011   3.900  65.651  1.00  0.00     0.000 HD 
HETATM    7  C   UNL     3      -9.039   5.205  67.141  1.00  0.00    -0.112 C  
ENDROOT
BRANCH   4   8
HETATM    8  C   UNL     2     -10.193   9.332  69.463  1.00  0.00    -0.207 C  
HETATM    9  H   UNL     2     -10.406   7.482  68.881  1.00  0.00     0.000 HD 
HETATM   10  O   UNL     2     -11.002   8.146  69.206  1.00  0.00    -0.111 OA 
BRANCH   8  11
HETATM   11  C   UNL     2      -8.936   9.075  70.264  1.00  0.00    -0.198 C  
HETATM   12  O   UNL     2      -8.311   8.854  72.548  1.00  0.00    -0.388 OA 
HETATM   13  H   UNL     2      -7.261  10.030  70.534  1.00  0.00     0.000 HD 
HETATM   14  O   UNL     2     -10.469   8.381  71.899  1.00  0.00    -0.246 OA 
HETATM   15  O   UNL     2      -8.050  10.192  70.031  1.00  0.00    -0.166 OA 
HETATM   16  C   UNL     2      -9.261   8.783  71.742  1.00  0.00    -0.262 C  
ENDBRANCH   8  11
ENDBRANCH   4   8
BRANCH   7  17
HETATM   17  C   UNL     3      -8.914   6.725  67.335  1.00  0.00    -0.115 C  
HETATM   18  O   UNL     3      -9.880   7.419  66.459  1.00  0.00    -0.319 OA 
HETATM   19  H   UNL     3      -9.803   8.358  66.579  1.00  0.00     0.000 HD 
BRANCH  17  20
HETATM   20  C   UNL     3      -7.499   7.312  67.235  1.00  0.00    -0.099 C  
HETATM   21  C   UNL     3      -7.036   7.120  65.768  1.00  0.00    -0.061 C  
HETATM   22  O   UNL     3      -6.661   6.658  68.230  1.00  0.00    -0.062 OA 
HETATM   23  O   UNL     3      -7.890   7.612  64.943  1.00  0.00    -0.113 OA 
HETATM   24  O   UNL     3      -6.014   6.441  65.543  1.00  0.00    -0.028 OA 
HETATM   25  H   UNL     3      -5.785   7.021  68.168  1.00  0.00     0.000 HD 
ENDBRANCH  17  20
ENDBRANCH   7  17
TORSDOF 4
ENDMDL
MODEL      186
REMARK 921   NORMALIZED FREE ENERGY PREDICTED BY IDOCK:   -2.32 KCAL/MOL
REMARK 922        TOTAL FREE ENERGY PREDICTED BY IDOCK:   -4.04 KCAL/MOL
REMARK 923 INTER-LIGAND FREE ENERGY PREDICTED BY IDOCK:   -2.85 KCAL/MOL
REMARK 924 INTRA-LIGAND FREE ENERGY PREDICTED BY IDOCK:   -1.19 KCAL/MOL
REMARK 927      BINDING AFFINITY PREDICTED BY RF-SCORE:    0.00 PKD
ROOT
HETATM    1 CA   UNL     1      -8.987   9.331  70.451  1.00  0.00    -0.123 Ca 
HETATM    2  O   UNL     2      -9.252   9.659  67.675  1.00  0.00    -0.131 OA 
HETATM    3  O   UNL     3      -8.714   6.197  74.062  1.00  0.00    -0.119 OA 
HETATM    4  C   UNL     2      -8.667   8.442  67.105  1.00  0.00    -0.126 C  
HETATM    5  H   UNL     2      -9.222  10.285  66.961  1.00  0.00     0.000 HD 
HETATM    6  H   UNL     3      -8.154   6.043  74.813  1.00  0.00     0.000 HD 
HETATM    7  C   UNL     3      -8.027   5.968  72.839  1.00  0.00    -0.106 C  
ENDROOT
BRANCH   4   8
HETATM    8  C   UNL     2      -8.714   7.444  68.245  1.00  0.00    -0.122 C  
HETATM    9  H   UNL     2      -7.778   7.282  69.949  1.00  0.00     0.000 HD 
HETATM   10  O   UNL     2      -7.748   7.908  69.235  1.00  0.00    -0.095 OA 
BRANCH   8  11
HETATM   11  C   UNL     2      -8.596   5.979  67.889  1.00  0.00    -0.113 C  
HETATM   12  O   UNL     2      -9.955   4.029  67.952  1.00  0.00    -0.066 OA 
HETATM   13  H   UNL     2      -7.507   4.495  68.528  1.00  0.00     0.000 HD 
HETATM   14  O   UNL     2     -10.936   6.107  67.808  1.00  0.00    -0.313 OA 
HETATM   15  O   UNL     2      -7.582   5.415  68.751  1.00  0.00    -0.077 OA 
HETATM   16  C   UNL     2      -9.967   5.277  67.930  1.00  0.00    -0.160 C  
ENDBRANCH   8  11
ENDBRANCH   4   8
BRANCH   7  17
HETATM   17  C   UNL     3      -8.933   6.217  71.622  1.00  0.00    -0.144 C  
HETATM   18  O   UNL     3      -9.492   7.584  71.690  1.00  0.00    -0.149 OA 
HETATM   19  H   UNL     3     -10.052   7.738  70.939  1.00  0.00     0.000 HD 
BRANCH  17  20
HETATM   20  C   UNL     3     -10.005   5.155  71.340  1.00  0.00    -0.189 C  
HETATM   21  C   UNL     3     -10.922   5.099  72.588  1.00  0.00    -0.243 C  
HETATM   22  O   UNL     3      -9.334   3.904  71.018  1.00  0.00    -0.125 OA 
HETATM   23  O   UNL     3     -11.374   6.265  72.884  1.00  0.00    -0.235 OA 
HETATM   24  O   UNL     3     -11.021   4.025  73.216  1.00  0.00    -0.210 OA 
HETATM   25  H   UNL     3      -9.997   3.246  70.843  1.00  0.00     0.000 HD 
ENDBRANCH  17  20
ENDBRANCH   7  17
TORSDOF 4
ENDMDL
MODEL      187
REMARK 921   NORMALIZED FREE ENERGY PREDICTED BY IDOCK:   -2.32 KCAL/MOL
REMARK 922        TOTAL FREE ENERGY PREDICTED BY IDOCK:   -4.04 KCAL/MOL
REMARK 923 INTER-LIGAND FREE ENERGY PREDICTED BY IDOCK:   -3.91 KCAL/MOL
REMARK 924 INTRA-LIGAND FREE ENERGY PREDICTED BY IDOCK:   -0.13 KCAL/MOL
REMARK 927      BINDING AFFINITY PREDICTED BY RF-SCORE:    0.00 PKD
ROOT
HETATM    1 CA   UNL     1      -8.677   6.213  69.625  1.00  0.00    -0.117 Ca 
HETATM    2  O   UNL     2     -10.710   5.019  71.149  1.00  0.00    -0.138 OA 
HETATM    3  O   UNL     3      -7.391  10.025  67.029  1.00  0.00    -0.090 OA 
HETATM    4  C   UNL     2     -11.470   6.148  71.694  1.00  0.00    -0.272 C  
HETATM    5  H   UNL     2     -10.924   4.297  71.729  1.00  0.00     0.000 HD 
HETATM    6  H   UNL     3      -6.653  10.622  66.980  1.00  0.00     0.000 HD 
HETATM    7  C   UNL     3      -8.109  10.176  68.246  1.00  0.00    -0.102 C  
ENDROOT
BRANCH   4   8
HETATM    8  C   UNL     2     -11.129   7.299  70.769  1.00  0.00    -0.266 C  
HETATM    9  H   UNL     2     -10.305   7.428  69.006  1.00  0.00     0.000 HD 
HETATM   10  O   UNL     2     -10.518   6.706  69.584  1.00  0.00    -0.191 OA 
BRANCH   8  11
HETATM   11  C   UNL     2     -10.357   8.458  71.360  1.00  0.00    -0.222 C  
HETATM   12  O   UNL     2      -8.660   8.805  72.989  1.00  0.00    -0.382 OA 
HETATM   13  H   UNL     2     -10.831  10.029  72.411  1.00  0.00     0.000 HD 
HETATM   14  O   UNL     2      -8.818   6.777  71.912  1.00  0.00    -0.135 OA 
HETATM   15  O   UNL     2     -11.315   9.301  72.041  1.00  0.00    -0.349 OA 
HETATM   16  C   UNL     2      -9.176   7.969  72.220  1.00  0.00    -0.182 C  
ENDBRANCH   8  11
ENDBRANCH   4   8
BRANCH   7  17
HETATM   17  C   UNL     3      -9.303   9.210  68.325  1.00  0.00    -0.135 C  
HETATM   18  O   UNL     3      -9.005   7.987  67.550  1.00  0.00    -0.136 OA 
HETATM   19  H   UNL     3      -9.742   7.390  67.598  1.00  0.00     0.000 HD 
BRANCH  17  20
HETATM   20  C   UNL     3     -10.681   9.799  67.991  1.00  0.00    -0.247 C  
HETATM   21  C   UNL     3     -10.560  10.462  66.595  1.00  0.00    -0.178 C  
HETATM   22  O   UNL     3     -11.064  10.703  69.066  1.00  0.00    -0.219 OA 
HETATM   23  O   UNL     3     -10.095   9.636  65.727  1.00  0.00    -0.290 OA 
HETATM   24  O   UNL     3     -10.788  11.684  66.487  1.00  0.00    -0.261 OA 
HETATM   25  H   UNL     3     -11.916  11.068  68.860  1.00  0.00     0.000 HD 
ENDBRANCH  17  20
ENDBRANCH   7  17
TORSDOF 4
ENDMDL
MODEL      188
REMARK 921   NORMALIZED FREE ENERGY PREDICTED BY IDOCK:   -2.31 KCAL/MOL
REMARK 922        TOTAL FREE ENERGY PREDICTED BY IDOCK:   -4.03 KCAL/MOL
REMARK 923 INTER-LIGAND FREE ENERGY PREDICTED BY IDOCK:   -3.82 KCAL/MOL
REMARK 924 INTRA-LIGAND FREE ENERGY PREDICTED BY IDOCK:   -0.20 KCAL/MOL
REMARK 927      BINDING AFFINITY PREDICTED BY RF-SCORE:    0.00 PKD
ROOT
HETATM    1 CA   UNL     1     -10.233   8.451  73.619  1.00  0.00    -0.278 Ca 
HETATM    2  O   UNL     2     -11.960   9.708  71.797  1.00  0.00    -0.381 OA 
HETATM    3  O   UNL     3      -7.342   4.716  74.408  1.00  0.00    -0.075 OA 
HETATM    4  C   UNL     2     -11.457   9.307  70.480  1.00  0.00    -0.248 C  
HETATM    5  H   UNL     2     -12.464  10.493  71.621  1.00  0.00     0.000 HD 
HETATM    6  H   UNL     3      -6.458   4.570  74.724  1.00  0.00     0.000 HD 
HETATM    7  C   UNL     3      -7.348   5.387  73.154  1.00  0.00    -0.092 C  
ENDROOT
BRANCH   4   8
HETATM    8  C   UNL     2     -10.651   8.054  70.761  1.00  0.00    -0.214 C  
HETATM    9  H   UNL     2      -8.898   7.714  71.546  1.00  0.00     0.000 HD 
HETATM   10  O   UNL     2      -9.402   8.499  71.370  1.00  0.00    -0.170 OA 
BRANCH   8  11
HETATM   11  C   UNL     2     -10.482   7.069  69.626  1.00  0.00    -0.223 C  
HETATM   12  O   UNL     2     -10.304   7.116  67.256  1.00  0.00    -0.212 OA 
HETATM   13  H   UNL     2     -11.551   5.610  68.904  1.00  0.00     0.000 HD 
HETATM   14  O   UNL     2      -9.682   8.958  68.489  1.00  0.00    -0.155 OA 
HETATM   15  O   UNL     2     -11.658   6.229  69.616  1.00  0.00    -0.430 OA 
HETATM   16  C   UNL     2     -10.167   7.787  68.300  1.00  0.00    -0.201 C  
ENDBRANCH   8  11
ENDBRANCH   4   8
BRANCH   7  17
HETATM   17  C   UNL     3      -8.779   5.623  72.643  1.00  0.00    -0.123 C  
HETATM   18  O   UNL     3      -9.558   6.352  73.666  1.00  0.00    -0.147 OA 
HETATM   19  H   UNL     3     -10.442   6.498  73.350  1.00  0.00     0.000 HD 
BRANCH  17  20
HETATM   20  C   UNL     3      -9.521   4.395  72.100  1.00  0.00    -0.134 C  
HETATM   21  C   UNL     3     -10.886   4.334  72.832  1.00  0.00    -0.145 C  
HETATM   22  O   UNL     3      -8.673   3.227  72.291  1.00  0.00    -0.081 OA 
HETATM   23  O   UNL     3     -11.520   5.446  72.724  1.00  0.00    -0.300 OA 
HETATM   24  O   UNL     3     -11.159   3.326  73.516  1.00  0.00    -0.214 OA 
HETATM   25  H   UNL     3      -9.132   2.466  71.955  1.00  0.00     0.000 HD 
ENDBRANCH  17  20
ENDBRANCH   7  17
TORSDOF 4
ENDMDL
MODEL      189
REMARK 921   NORMALIZED FREE ENERGY PREDICTED BY IDOCK:   -2.29 KCAL/MOL
REMARK 922        TOTAL FREE ENERGY PREDICTED BY IDOCK:   -4.01 KCAL/MOL
REMARK 923 INTER-LIGAND FREE ENERGY PREDICTED BY IDOCK:   -4.26 KCAL/MOL
REMARK 924 INTRA-LIGAND FREE ENERGY PREDICTED BY IDOCK:    0.25 KCAL/MOL
REMARK 927      BINDING AFFINITY PREDICTED BY RF-SCORE:    0.00 PKD
ROOT
HETATM    1 CA   UNL     1     -12.259  10.786  68.190  1.00  0.00    -0.280 Ca 
HETATM    2  O   UNL     2     -10.849   8.416  67.660  1.00  0.00    -0.483 OA 
HETATM    3  O   UNL     3     -12.186  15.569  67.980  1.00  0.00    -0.348 OA 
HETATM    4  C   UNL     2      -9.976   8.753  66.532  1.00  0.00    -0.290 C  
HETATM    5  H   UNL     2     -10.907   7.468  67.630  1.00  0.00     0.000 HD 
HETATM    6  H   UNL     3     -12.755  16.264  67.671  1.00  0.00     0.000 HD 
HETATM    7  C   UNL     3     -11.689  14.780  66.907  1.00  0.00    -0.302 C  
ENDROOT
BRANCH   4   8
HETATM    8  C   UNL     2      -9.884  10.265  66.580  1.00  0.00    -0.212 C  
HETATM    9  H   UNL     2     -10.952  11.716  65.831  1.00  0.00     0.000 HD 
HETATM   10  O   UNL     2     -11.010  10.769  65.801  1.00  0.00    -0.074 OA 
BRANCH   8  11
HETATM   11  C   UNL     2      -8.551  10.890  66.234  1.00  0.00    -0.164 C  
HETATM   12  O   UNL     2      -6.740  10.484  64.747  1.00  0.00    -0.077 OA 
HETATM   13  H   UNL     2      -6.886  11.196  67.199  1.00  0.00     0.000 HD 
HETATM   14  O   UNL     2      -8.847   9.714  64.227  1.00  0.00    -0.204 OA 
HETATM   15  O   UNL     2      -7.723  10.803  67.417  1.00  0.00    -0.103 OA 
HETATM   16  C   UNL     2      -7.951  10.269  64.958  1.00  0.00    -0.144 C  
ENDBRANCH   8  11
ENDBRANCH   4   8
BRANCH   7  17
HETATM   17  C   UNL     3     -10.769  13.655  67.407  1.00  0.00    -0.267 C  
HETATM   18  O   UNL     3     -11.565  12.654  68.147  1.00  0.00    -0.295 OA 
HETATM   19  H   UNL     3     -10.996  11.959  68.456  1.00  0.00     0.000 HD 
BRANCH  17  20
HETATM   20  C   UNL     3      -9.511  14.091  68.171  1.00  0.00    -0.215 C  
HETATM   21  C   UNL     3      -8.489  14.580  67.114  1.00  0.00    -0.212 C  
HETATM   22  O   UNL     3      -9.061  12.971  68.985  1.00  0.00    -0.346 OA 
HETATM   23  O   UNL     3      -9.002  15.478  66.352  1.00  0.00    -0.278 OA 
HETATM   24  O   UNL     3      -7.387  14.001  67.029  1.00  0.00     0.029 OA 
HETATM   25  H   UNL     3      -8.282  13.240  69.459  1.00  0.00     0.000 HD 
ENDBRANCH  17  20
ENDBRANCH   7  17
TORSDOF 4
ENDMDL
MODEL      190
REMARK 921   NORMALIZED FREE ENERGY PREDICTED BY IDOCK:   -2.29 KCAL/MOL
REMARK 922        TOTAL FREE ENERGY PREDICTED BY IDOCK:   -4.00 KCAL/MOL
REMARK 923 INTER-LIGAND FREE ENERGY PREDICTED BY IDOCK:   -4.60 KCAL/MOL
REMARK 924 INTRA-LIGAND FREE ENERGY PREDICTED BY IDOCK:    0.60 KCAL/MOL
REMARK 927      BINDING AFFINITY PREDICTED BY RF-SCORE:    0.00 PKD
ROOT
HETATM    1 CA   UNL     1     -11.883   8.974  67.365  1.00  0.00    -0.348 Ca 
HETATM    2  O   UNL     2     -11.480   8.485  70.100  1.00  0.00    -0.449 OA 
HETATM    3  O   UNL     3     -10.826  11.801  63.647  1.00  0.00    -0.369 OA 
HETATM    4  C   UNL     2     -10.145   9.025  70.375  1.00  0.00    -0.207 C  
HETATM    5  H   UNL     2     -11.630   7.872  70.810  1.00  0.00     0.000 HD 
HETATM    6  H   UNL     3     -10.534  11.696  62.750  1.00  0.00     0.000 HD 
HETATM    7  C   UNL     3      -9.825  11.406  64.576  1.00  0.00    -0.260 C  
ENDROOT
BRANCH   4   8
HETATM    8  C   UNL     2      -9.905  10.003  69.243  1.00  0.00    -0.214 C  
HETATM    9  H   UNL     2     -11.063  10.912  67.963  1.00  0.00     0.000 HD 
HETATM   10  O   UNL     2     -11.215  10.299  68.673  1.00  0.00    -0.245 OA 
BRANCH   8  11
HETATM   11  C   UNL     2      -8.844   9.643  68.227  1.00  0.00    -0.120 C  
HETATM   12  O   UNL     2      -7.089  10.726  67.043  1.00  0.00    -0.093 OA 
HETATM   13  H   UNL     2      -8.865   9.007  66.386  1.00  0.00     0.000 HD 
HETATM   14  O   UNL     2      -7.798  11.568  69.066  1.00  0.00    -0.100 OA 
HETATM   15  O   UNL     2      -9.532   9.234  67.024  1.00  0.00    -0.148 OA 
HETATM   16  C   UNL     2      -7.821  10.782  68.053  1.00  0.00    -0.106 C  
ENDBRANCH   8  11
ENDBRANCH   4   8
BRANCH   7  17
HETATM   17  C   UNL     3     -10.298  11.576  66.028  1.00  0.00    -0.246 C  
HETATM   18  O   UNL     3     -11.594  10.889  66.213  1.00  0.00     0.011 OA 
HETATM   19  H   UNL     3     -11.887  10.994  67.110  1.00  0.00     0.000 HD 
BRANCH  17  20
HETATM   20  C   UNL     3     -10.306  13.008  66.581  1.00  0.00    -0.260 C  
HETATM   21  C   UNL     3     -11.790  13.446  66.676  1.00  0.00    -0.395 C  
HETATM   22  O   UNL     3      -9.479  13.836  65.715  1.00  0.00    -0.497 OA 
HETATM   23  O   UNL     3     -12.481  12.597  67.350  1.00  0.00    -0.165 OA 
HETATM   24  O   UNL     3     -12.167  14.441  66.026  1.00  0.00    -0.394 OA 
HETATM   25  H   UNL     3      -9.483  14.723  66.056  1.00  0.00     0.000 HD 
ENDBRANCH  17  20
ENDBRANCH   7  17
TORSDOF 4
ENDMDL
MODEL      191
REMARK 921   NORMALIZED FREE ENERGY PREDICTED BY IDOCK:   -2.24 KCAL/MOL
REMARK 922        TOTAL FREE ENERGY PREDICTED BY IDOCK:   -3.95 KCAL/MOL
REMARK 923 INTER-LIGAND FREE ENERGY PREDICTED BY IDOCK:   -3.90 KCAL/MOL
REMARK 924 INTRA-LIGAND FREE ENERGY PREDICTED BY IDOCK:   -0.04 KCAL/MOL
REMARK 927      BINDING AFFINITY PREDICTED BY RF-SCORE:    0.00 PKD
ROOT
HETATM    1 CA   UNL     1      -9.681   3.597  70.204  1.00  0.00    -0.119 Ca 
HETATM    2  O   UNL     2     -10.112   3.897  72.963  1.00  0.00    -0.137 OA 
HETATM    3  O   UNL     3      -8.690   5.828  66.084  1.00  0.00    -0.129 OA 
HETATM    4  C   UNL     2      -9.334   5.083  73.328  1.00  0.00    -0.130 C  
HETATM    5  H   UNL     2     -10.227   3.435  73.785  1.00  0.00     0.000 HD 
HETATM    6  H   UNL     3      -8.082   5.725  65.362  1.00  0.00     0.000 HD 
HETATM    7  C   UNL     3      -8.021   6.180  67.288  1.00  0.00    -0.102 C  
ENDROOT
BRANCH   4   8
HETATM    8  C   UNL     2      -9.150   5.820  72.016  1.00  0.00    -0.137 C  
HETATM    9  H   UNL     2      -7.690   6.846  71.227  1.00  0.00     0.000 HD 
HETATM   10  O   UNL     2      -7.805   6.385  72.049  1.00  0.00    -0.099 OA 
BRANCH   8  11
HETATM   11  C   UNL     2     -10.232   6.795  71.609  1.00  0.00    -0.191 C  
HETATM   12  O   UNL     2     -11.625   8.422  72.642  1.00  0.00    -0.385 OA 
HETATM   13  H   UNL     2     -12.025   6.624  70.867  1.00  0.00     0.000 HD 
HETATM   14  O   UNL     2      -9.599   7.877  73.592  1.00  0.00    -0.280 OA 
HETATM   15  O   UNL     2     -11.346   6.012  71.123  1.00  0.00    -0.292 OA 
HETATM   16  C   UNL     2     -10.560   7.779  72.748  1.00  0.00    -0.341 C  
ENDBRANCH   8  11
ENDBRANCH   4   8
BRANCH   7  17
HETATM   17  C   UNL     3      -9.005   6.347  68.457  1.00  0.00    -0.125 C  
HETATM   18  O   UNL     3      -9.889   5.165  68.536  1.00  0.00    -0.141 OA 
HETATM   19  H   UNL     3     -10.497   5.268  69.259  1.00  0.00     0.000 HD 
BRANCH  17  20
HETATM   20  C   UNL     3      -9.782   7.669  68.512  1.00  0.00    -0.158 C  
HETATM   21  C   UNL     3     -10.472   7.843  67.135  1.00  0.00    -0.344 C  
HETATM   22  O   UNL     3      -8.852   8.731  68.868  1.00  0.00    -0.135 OA 
HETATM   23  O   UNL     3     -11.174   6.810  66.834  1.00  0.00    -0.375 OA 
HETATM   24  O   UNL     3     -10.193   8.844  66.444  1.00  0.00    -0.283 OA 
HETATM   25  H   UNL     3      -9.332   9.550  68.903  1.00  0.00     0.000 HD 
ENDBRANCH  17  20
ENDBRANCH   7  17
TORSDOF 4
ENDMDL
MODEL      192
REMARK 921   NORMALIZED FREE ENERGY PREDICTED BY IDOCK:   -2.23 KCAL/MOL
REMARK 922        TOTAL FREE ENERGY PREDICTED BY IDOCK:   -3.93 KCAL/MOL
REMARK 923 INTER-LIGAND FREE ENERGY PREDICTED BY IDOCK:   -4.21 KCAL/MOL
REMARK 924 INTRA-LIGAND FREE ENERGY PREDICTED BY IDOCK:    0.28 KCAL/MOL
REMARK 927      BINDING AFFINITY PREDICTED BY RF-SCORE:    0.00 PKD
ROOT
HETATM    1 CA   UNL     1     -12.145   9.393  68.671  1.00  0.00    -0.336 Ca 
HETATM    2  O   UNL     2     -12.417  10.443  71.262  1.00  0.00    -0.345 OA 
HETATM    3  O   UNL     3     -10.194   5.949  65.977  1.00  0.00    -0.404 OA 
HETATM    4  C   UNL     2     -12.265   9.283  72.144  1.00  0.00    -0.307 C  
HETATM    5  H   UNL     2     -12.874  11.080  71.797  1.00  0.00     0.000 HD 
HETATM    6  H   UNL     3     -10.481   5.333  65.314  1.00  0.00     0.000 HD 
HETATM    7  C   UNL     3     -10.757   5.655  67.248  1.00  0.00    -0.215 C  
ENDROOT
BRANCH   4   8
HETATM    8  C   UNL     2     -11.535   8.265  71.290  1.00  0.00    -0.274 C  
HETATM    9  H   UNL     2     -12.106   6.779  70.162  1.00  0.00     0.000 HD 
HETATM   10  O   UNL     2     -12.563   7.417  70.697  1.00  0.00    -0.116 OA 
BRANCH   8  11
HETATM   11  C   UNL     2     -10.392   7.512  71.932  1.00  0.00    -0.193 C  
HETATM   12  O   UNL     2     -10.094   5.788  73.543  1.00  0.00    -0.170 OA 
HETATM   13  H   UNL     2      -8.900   8.003  73.085  1.00  0.00     0.000 HD 
HETATM   14  O   UNL     2     -12.059   5.916  72.350  1.00  0.00    -0.270 OA 
HETATM   15  O   UNL     2      -9.618   8.476  72.682  1.00  0.00    -0.280 OA 
HETATM   16  C   UNL     2     -10.898   6.299  72.736  1.00  0.00    -0.252 C  
ENDBRANCH   8  11
ENDBRANCH   4   8
BRANCH   7  17
HETATM   17  C   UNL     3     -10.292   6.653  68.321  1.00  0.00    -0.190 C  
HETATM   18  O   UNL     3     -10.572   8.033  67.871  1.00  0.00    -0.338 OA 
HETATM   19  H   UNL     3     -10.284   8.650  68.534  1.00  0.00     0.000 HD 
BRANCH  17  20
HETATM   20  C   UNL     3      -8.857   6.481  68.837  1.00  0.00    -0.126 C  
HETATM   21  C   UNL     3      -7.912   6.728  67.633  1.00  0.00    -0.113 C  
HETATM   22  O   UNL     3      -8.744   5.160  69.441  1.00  0.00    -0.097 OA 
HETATM   23  O   UNL     3      -8.159   7.859  67.075  1.00  0.00    -0.113 OA 
HETATM   24  O   UNL     3      -7.147   5.813  67.270  1.00  0.00    -0.071 OA 
HETATM   25  H   UNL     3      -7.855   5.053  69.761  1.00  0.00     0.000 HD 
ENDBRANCH  17  20
ENDBRANCH   7  17
TORSDOF 4
ENDMDL
MODEL      193
REMARK 921   NORMALIZED FREE ENERGY PREDICTED BY IDOCK:   -2.21 KCAL/MOL
REMARK 922        TOTAL FREE ENERGY PREDICTED BY IDOCK:   -3.91 KCAL/MOL
REMARK 923 INTER-LIGAND FREE ENERGY PREDICTED BY IDOCK:   -3.40 KCAL/MOL
REMARK 924 INTRA-LIGAND FREE ENERGY PREDICTED BY IDOCK:   -0.51 KCAL/MOL
REMARK 927      BINDING AFFINITY PREDICTED BY RF-SCORE:    0.00 PKD
ROOT
HETATM    1 CA   UNL     1      -7.740   5.566  71.253  1.00  0.00    -0.081 Ca 
HETATM    2  O   UNL     2      -5.768   3.908  70.136  1.00  0.00    -0.015 OA 
HETATM    3  O   UNL     3     -11.900   7.821  70.522  1.00  0.00    -0.460 OA 
HETATM    4  C   UNL     2      -6.483   3.112  69.135  1.00  0.00    -0.029 C  
HETATM    5  H   UNL     2      -4.986   3.400  70.318  1.00  0.00     0.000 HD 
HETATM    6  H   UNL     3     -12.736   7.907  70.964  1.00  0.00     0.000 HD 
HETATM    7  C   UNL     3     -11.690   6.497  70.048  1.00  0.00    -0.322 C  
ENDROOT
BRANCH   4   8
HETATM    8  C   UNL     2      -7.730   3.923  68.844  1.00  0.00    -0.053 C  
HETATM    9  H   UNL     2      -9.350   4.332  69.852  1.00  0.00     0.000 HD 
HETATM   10  O   UNL     2      -8.569   3.824  70.034  1.00  0.00    -0.062 OA 
BRANCH   8  11
HETATM   11  C   UNL     2      -8.450   3.647  67.543  1.00  0.00    -0.096 C  
HETATM   12  O   UNL     2      -9.066   4.834  65.577  1.00  0.00    -0.142 OA 
HETATM   13  H   UNL     2     -10.266   3.131  67.061  1.00  0.00     0.000 HD 
HETATM   14  O   UNL     2      -7.257   5.531  66.818  1.00  0.00    -0.075 OA 
HETATM   15  O   UNL     2      -9.814   3.304  67.879  1.00  0.00    -0.061 OA 
HETATM   16  C   UNL     2      -8.284   4.812  66.549  1.00  0.00    -0.107 C  
ENDBRANCH   8  11
ENDBRANCH   4   8
BRANCH   7  17
HETATM   17  C   UNL     3     -10.337   6.357  69.332  1.00  0.00    -0.209 C  
HETATM   18  O   UNL     3      -9.257   6.858  70.207  1.00  0.00    -0.155 OA 
HETATM   19  H   UNL     3      -8.421   6.772  69.765  1.00  0.00     0.000 HD 
BRANCH  17  20
HETATM   20  C   UNL     3     -10.255   6.928  67.909  1.00  0.00    -0.174 C  
HETATM   21  C   UNL     3      -9.962   8.444  68.048  1.00  0.00    -0.182 C  
HETATM   22  O   UNL     3     -11.495   6.607  67.216  1.00  0.00    -0.766 OA 
HETATM   23  O   UNL     3      -8.926   8.651  68.779  1.00  0.00    -0.138 OA 
HETATM   24  O   UNL     3     -10.779   9.261  67.578  1.00  0.00    -0.277 OA 
HETATM   25  H   UNL     3     -11.445   6.960  66.335  1.00  0.00     0.000 HD 
ENDBRANCH  17  20
ENDBRANCH   7  17
TORSDOF 4
ENDMDL
MODEL      194
REMARK 921   NORMALIZED FREE ENERGY PREDICTED BY IDOCK:   -2.16 KCAL/MOL
REMARK 922        TOTAL FREE ENERGY PREDICTED BY IDOCK:   -3.84 KCAL/MOL
REMARK 923 INTER-LIGAND FREE ENERGY PREDICTED BY IDOCK:   -4.43 KCAL/MOL
REMARK 924 INTRA-LIGAND FREE ENERGY PREDICTED BY IDOCK:    0.59 KCAL/MOL
REMARK 927      BINDING AFFINITY PREDICTED BY RF-SCORE:    0.00 PKD
ROOT
HETATM    1 CA   UNL     1     -10.937   6.824  67.843  1.00  0.00    -0.176 Ca 
HETATM    2  O   UNL     2      -9.945   8.452  65.782  1.00  0.00    -0.427 OA 
HETATM    3  O   UNL     3     -11.988   6.536  72.506  1.00  0.00    -0.487 OA 
HETATM    4  C   UNL     2     -10.276   9.816  66.202  1.00  0.00    -0.208 C  
HETATM    5  H   UNL     2      -9.818   8.525  64.843  1.00  0.00     0.000 HD 
HETATM    6  H   UNL     3     -12.721   6.257  73.042  1.00  0.00     0.000 HD 
HETATM    7  C   UNL     3     -12.300   7.702  71.755  1.00  0.00    -0.319 C  
ENDROOT
BRANCH   4   8
HETATM    8  C   UNL     2     -10.479   9.700  67.699  1.00  0.00    -0.261 C  
HETATM    9  H   UNL     2     -11.899  10.240  68.924  1.00  0.00     0.000 HD 
HETATM   10  O   UNL     2     -11.772  10.313  67.985  1.00  0.00    -0.293 OA 
BRANCH   8  11
HETATM   11  C   UNL     2      -9.351  10.167  68.591  1.00  0.00    -0.161 C  
HETATM   12  O   UNL     2      -7.919  12.055  68.790  1.00  0.00    -0.109 OA 
HETATM   13  H   UNL     2      -7.549   9.531  68.972  1.00  0.00     0.000 HD 
HETATM   14  O   UNL     2      -9.985  12.282  67.800  1.00  0.00    -0.191 OA 
HETATM   15  O   UNL     2      -8.258   9.238  68.412  1.00  0.00    -0.112 OA 
HETATM   16  C   UNL     2      -9.010  11.648  68.340  1.00  0.00    -0.176 C  
ENDBRANCH   8  11
ENDBRANCH   4   8
BRANCH   7  17
HETATM   17  C   UNL     3     -11.113   8.153  70.888  1.00  0.00    -0.258 C  
HETATM   18  O   UNL     3     -11.500   8.122  69.461  1.00  0.00    -0.412 OA 
HETATM   19  H   UNL     3     -10.767   8.401  68.925  1.00  0.00     0.000 HD 
BRANCH  17  20
HETATM   20  C   UNL     3      -9.771   7.456  71.150  1.00  0.00    -0.163 C  
HETATM   21  C   UNL     3      -8.962   8.379  72.096  1.00  0.00    -0.223 C  
HETATM   22  O   UNL     3      -9.137   7.188  69.867  1.00  0.00    -0.142 OA 
HETATM   23  O   UNL     3      -9.639   8.674  73.148  1.00  0.00    -0.069 OA 
HETATM   24  O   UNL     3      -7.861   8.821  71.710  1.00  0.00    -0.240 OA 
HETATM   25  H   UNL     3      -8.306   6.757  70.029  1.00  0.00     0.000 HD 
ENDBRANCH  17  20
ENDBRANCH   7  17
TORSDOF 4
ENDMDL
MODEL      195
REMARK 921   NORMALIZED FREE ENERGY PREDICTED BY IDOCK:   -2.14 KCAL/MOL
REMARK 922        TOTAL FREE ENERGY PREDICTED BY IDOCK:   -3.82 KCAL/MOL
REMARK 923 INTER-LIGAND FREE ENERGY PREDICTED BY IDOCK:   -4.10 KCAL/MOL
REMARK 924 INTRA-LIGAND FREE ENERGY PREDICTED BY IDOCK:    0.29 KCAL/MOL
REMARK 927      BINDING AFFINITY PREDICTED BY RF-SCORE:    0.00 PKD
ROOT
HETATM    1 CA   UNL     1      -9.115   8.253  71.386  1.00  0.00    -0.120 Ca 
HETATM    2  O   UNL     2      -7.176   6.747  70.023  1.00  0.00    -0.072 OA 
HETATM    3  O   UNL     3     -12.460  11.660  71.026  1.00  0.00    -0.379 OA 
HETATM    4  C   UNL     2      -7.668   6.680  68.644  1.00  0.00    -0.109 C  
HETATM    5  H   UNL     2      -6.574   6.015  70.088  1.00  0.00     0.000 HD 
HETATM    6  H   UNL     3     -13.367  11.779  71.281  1.00  0.00     0.000 HD 
HETATM    7  C   UNL     3     -12.323  10.659  70.026  1.00  0.00    -0.269 C  
ENDROOT
BRANCH   4   8
HETATM    8  C   UNL     2      -8.629   7.848  68.540  1.00  0.00    -0.128 C  
HETATM    9  H   UNL     2     -10.521   8.091  68.948  1.00  0.00     0.000 HD 
HETATM   10  O   UNL     2      -9.920   7.359  69.013  1.00  0.00    -0.168 OA 
BRANCH   8  11
HETATM   11  C   UNL     2      -8.682   8.588  67.222  1.00  0.00    -0.130 C  
HETATM   12  O   UNL     2      -8.462   8.093  64.907  1.00  0.00    -0.151 OA 
HETATM   13  H   UNL     2      -7.619   9.994  66.394  1.00  0.00     0.000 HD 
HETATM   14  O   UNL     2      -9.140   6.450  66.371  1.00  0.00    -0.148 OA 
HETATM   15  O   UNL     2      -7.585   9.530  67.222  1.00  0.00    -0.091 OA 
HETATM   16  C   UNL     2      -8.718   7.612  66.030  1.00  0.00    -0.156 C  
ENDBRANCH   8  11
ENDBRANCH   4   8
BRANCH   7  17
HETATM   17  C   UNL     3     -10.854  10.466  69.613  1.00  0.00    -0.277 C  
HETATM   18  O   UNL     3     -10.069   9.997  70.774  1.00  0.00    -0.356 OA 
HETATM   19  H   UNL     3      -9.162   9.878  70.519  1.00  0.00     0.000 HD 
BRANCH  17  20
HETATM   20  C   UNL     3     -10.189  11.643  68.887  1.00  0.00    -0.125 C  
HETATM   21  C   UNL     3     -10.738  11.646  67.437  1.00  0.00    -0.234 C  
HETATM   22  O   UNL     3      -8.745  11.488  68.993  1.00  0.00    -0.366 OA 
HETATM   23  O   UNL     3     -12.023  11.655  67.428  1.00  0.00    -0.621 OA 
HETATM   24  O   UNL     3      -9.937  11.516  66.490  1.00  0.00    -0.202 OA 
HETATM   25  H   UNL     3      -8.333  12.217  68.544  1.00  0.00     0.000 HD 
ENDBRANCH  17  20
ENDBRANCH   7  17
TORSDOF 4
ENDMDL
MODEL      196
REMARK 921   NORMALIZED FREE ENERGY PREDICTED BY IDOCK:   -2.12 KCAL/MOL
REMARK 922        TOTAL FREE ENERGY PREDICTED BY IDOCK:   -3.80 KCAL/MOL
REMARK 923 INTER-LIGAND FREE ENERGY PREDICTED BY IDOCK:   -3.15 KCAL/MOL
REMARK 924 INTRA-LIGAND FREE ENERGY PREDICTED BY IDOCK:   -0.65 KCAL/MOL
REMARK 927      BINDING AFFINITY PREDICTED BY RF-SCORE:    0.00 PKD
ROOT
HETATM    1 CA   UNL     1      -9.568   6.375  68.500  1.00  0.00    -0.125 Ca 
HETATM    2  O   UNL     2     -10.537   8.952  69.050  1.00  0.00    -0.244 OA 
HETATM    3  O   UNL     3      -8.474   2.081  70.317  1.00  0.00    -0.041 OA 
HETATM    4  C   UNL     2     -11.417   8.772  70.208  1.00  0.00    -0.089 C  
HETATM    5  H   UNL     2     -10.827   9.770  68.666  1.00  0.00     0.000 HD 
HETATM    6  H   UNL     3      -8.653   1.171  70.115  1.00  0.00     0.000 HD 
HETATM    7  C   UNL     3      -9.651   2.770  70.720  1.00  0.00    -0.117 C  
ENDROOT
BRANCH   4   8
HETATM    8  C   UNL     2     -10.954   7.466  70.821  1.00  0.00    -0.255 C  
HETATM    9  H   UNL     2     -10.887   5.619  70.195  1.00  0.00     0.000 HD 
HETATM   10  O   UNL     2     -11.177   6.438  69.810  1.00  0.00    -0.352 OA 
BRANCH   8  11
HETATM   11  C   UNL     2     -11.480   7.120  72.197  1.00  0.00    -0.269 C  
HETATM   12  O   UNL     2     -10.625   6.845  74.398  1.00  0.00    -0.174 OA 
HETATM   13  H   UNL     2     -12.325   5.554  72.989  1.00  0.00     0.000 HD 
HETATM   14  O   UNL     2      -9.521   8.200  72.901  1.00  0.00    -0.248 OA 
HETATM   15  O   UNL     2     -11.994   5.770  72.126  1.00  0.00    -0.215 OA 
HETATM   16  C   UNL     2     -10.418   7.368  73.285  1.00  0.00    -0.374 C  
ENDBRANCH   8  11
ENDBRANCH   4   8
BRANCH   7  17
HETATM   17  C   UNL     3      -9.362   4.245  71.047  1.00  0.00    -0.152 C  
HETATM   18  O   UNL     3      -8.650   4.874  69.916  1.00  0.00    -0.085 OA 
HETATM   19  H   UNL     3      -8.471   5.785  70.117  1.00  0.00     0.000 HD 
BRANCH  17  20
HETATM   20  C   UNL     3      -8.690   4.526  72.398  1.00  0.00    -0.117 C  
HETATM   21  C   UNL     3      -7.378   5.294  72.096  1.00  0.00    -0.092 C  
HETATM   22  O   UNL     3      -8.509   3.258  73.091  1.00  0.00    -0.079 OA 
HETATM   23  O   UNL     3      -7.604   6.332  71.372  1.00  0.00    -0.095 OA 
HETATM   24  O   UNL     3      -6.292   4.794  72.450  1.00  0.00    -0.030 OA 
HETATM   25  H   UNL     3      -8.093   3.431  73.927  1.00  0.00     0.000 HD 
ENDBRANCH  17  20
ENDBRANCH   7  17
TORSDOF 4
ENDMDL
MODEL      197
REMARK 921   NORMALIZED FREE ENERGY PREDICTED BY IDOCK:   -2.11 KCAL/MOL
REMARK 922        TOTAL FREE ENERGY PREDICTED BY IDOCK:   -3.78 KCAL/MOL
REMARK 923 INTER-LIGAND FREE ENERGY PREDICTED BY IDOCK:   -3.94 KCAL/MOL
REMARK 924 INTRA-LIGAND FREE ENERGY PREDICTED BY IDOCK:    0.16 KCAL/MOL
REMARK 927      BINDING AFFINITY PREDICTED BY RF-SCORE:    0.00 PKD
ROOT
HETATM    1 CA   UNL     1      -8.814  15.384  65.480  1.00  0.00    -0.285 Ca 
HETATM    2  O   UNL     2      -9.728  17.712  66.757  1.00  0.00    -0.276 OA 
HETATM    3  O   UNL     3      -7.968  10.692  65.927  1.00  0.00    -0.154 OA 
HETATM    4  C   UNL     2     -10.678  17.229  67.762  1.00  0.00    -0.333 C  
HETATM    5  H   UNL     2      -9.969  18.622  66.632  1.00  0.00     0.000 HD 
HETATM    6  H   UNL     3      -8.164   9.897  65.446  1.00  0.00     0.000 HD 
HETATM    7  C   UNL     3      -9.142  11.281  66.471  1.00  0.00    -0.184 C  
ENDROOT
BRANCH   4   8
HETATM    8  C   UNL     2     -10.294  15.776  67.961  1.00  0.00    -0.252 C  
HETATM    9  H   UNL     2     -10.869  14.096  67.153  1.00  0.00     0.000 HD 
HETATM   10  O   UNL     2     -11.110  15.006  67.028  1.00  0.00    -0.324 OA 
BRANCH   8  11
HETATM   11  C   UNL     2     -10.291  15.247  69.378  1.00  0.00    -0.254 C  
HETATM   12  O   UNL     2     -11.563  15.515  71.369  1.00  0.00    -0.344 OA 
HETATM   13  H   UNL     2      -9.057  15.358  70.881  1.00  0.00     0.000 HD 
HETATM   14  O   UNL     2     -12.542  15.902  69.321  1.00  0.00     0.036 OA 
HETATM   15  O   UNL     2      -9.059  15.691  69.992  1.00  0.00    -0.051 OA 
HETATM   16  C   UNL     2     -11.581  15.631  70.126  1.00  0.00    -0.354 C  
ENDBRANCH   8  11
ENDBRANCH   4   8
BRANCH   7  17
HETATM   17  C   UNL     3      -8.824  12.568  67.250  1.00  0.00    -0.195 C  
HETATM   18  O   UNL     3      -8.214  13.561  66.342  1.00  0.00    -0.178 OA 
HETATM   19  H   UNL     3      -8.017  14.356  66.823  1.00  0.00     0.000 HD 
BRANCH  17  20
HETATM   20  C   UNL     3      -8.035  12.398  68.555  1.00  0.00    -0.110 C  
HETATM   21  C   UNL     3      -6.598  11.973  68.160  1.00  0.00    -0.055 C  
HETATM   22  O   UNL     3      -8.744  11.446  69.398  1.00  0.00    -0.347 OA 
HETATM   23  O   UNL     3      -6.086  12.795  67.316  1.00  0.00    -0.241 OA 
HETATM   24  O   UNL     3      -6.159  10.880  68.571  1.00  0.00    -0.043 OA 
HETATM   25  H   UNL     3      -8.256  11.341  70.206  1.00  0.00     0.000 HD 
ENDBRANCH  17  20
ENDBRANCH   7  17
TORSDOF 4
ENDMDL
MODEL      198
REMARK 921   NORMALIZED FREE ENERGY PREDICTED BY IDOCK:   -2.11 KCAL/MOL
REMARK 922        TOTAL FREE ENERGY PREDICTED BY IDOCK:   -3.78 KCAL/MOL
REMARK 923 INTER-LIGAND FREE ENERGY PREDICTED BY IDOCK:   -3.64 KCAL/MOL
REMARK 924 INTRA-LIGAND FREE ENERGY PREDICTED BY IDOCK:   -0.14 KCAL/MOL
REMARK 927      BINDING AFFINITY PREDICTED BY RF-SCORE:    0.00 PKD
ROOT
HETATM    1 CA   UNL     1     -10.825  11.639  65.973  1.00  0.00    -0.231 Ca 
HETATM    2  O   UNL     2      -9.814  14.055  64.959  1.00  0.00    -0.588 OA 
HETATM    3  O   UNL     3     -10.751   8.533  69.616  1.00  0.00    -0.229 OA 
HETATM    4  C   UNL     2      -9.487  14.843  66.150  1.00  0.00    -0.295 C  
HETATM    5  H   UNL     2      -9.898  14.703  64.270  1.00  0.00     0.000 HD 
HETATM    6  H   UNL     3     -11.382   8.080  70.163  1.00  0.00     0.000 HD 
HETATM    7  C   UNL     3     -10.764   9.935  69.849  1.00  0.00    -0.280 C  
ENDROOT
BRANCH   4   8
HETATM    8  C   UNL     2      -9.352  13.809  67.249  1.00  0.00    -0.239 C  
HETATM    9  H   UNL     2     -10.625  12.760  68.291  1.00  0.00     0.000 HD 
HETATM   10  O   UNL     2     -10.710  13.408  67.602  1.00  0.00    -0.243 OA 
BRANCH   8  11
HETATM   11  C   UNL     2      -8.473  14.160  68.429  1.00  0.00    -0.170 C  
HETATM   12  O   UNL     2      -8.211  15.955  69.966  1.00  0.00     0.265 OA 
HETATM   13  H   UNL     2      -6.568  14.482  68.673  1.00  0.00     0.000 HD 
HETATM   14  O   UNL     2     -10.248  15.601  68.953  1.00  0.00    -0.198 OA 
HETATM   15  O   UNL     2      -7.120  14.262  67.932  1.00  0.00    -0.124 OA 
HETATM   16  C   UNL     2      -9.001  15.400  69.175  1.00  0.00    -0.245 C  
ENDBRANCH   8  11
ENDBRANCH   4   8
BRANCH   7  17
HETATM   17  C   UNL     3      -9.742  10.668  68.965  1.00  0.00    -0.202 C  
HETATM   18  O   UNL     3      -9.945  10.289  67.551  1.00  0.00    -0.177 OA 
HETATM   19  H   UNL     3      -9.314  10.742  67.004  1.00  0.00     0.000 HD 
BRANCH  17  20
HETATM   20  C   UNL     3      -8.272  10.569  69.396  1.00  0.00    -0.119 C  
HETATM   21  C   UNL     3      -7.497   9.936  68.212  1.00  0.00    -0.080 C  
HETATM   22  O   UNL     3      -8.210   9.814  70.639  1.00  0.00    -0.329 OA 
HETATM   23  O   UNL     3      -7.704  10.586  67.122  1.00  0.00    -0.098 OA 
HETATM   24  O   UNL     3      -6.896   8.859  68.393  1.00  0.00    -0.063 OA 
HETATM   25  H   UNL     3      -7.300   9.753  70.907  1.00  0.00     0.000 HD 
ENDBRANCH  17  20
ENDBRANCH   7  17
TORSDOF 4
ENDMDL
MODEL      199
REMARK 921   NORMALIZED FREE ENERGY PREDICTED BY IDOCK:   -2.09 KCAL/MOL
REMARK 922        TOTAL FREE ENERGY PREDICTED BY IDOCK:   -3.76 KCAL/MOL
REMARK 923 INTER-LIGAND FREE ENERGY PREDICTED BY IDOCK:   -4.06 KCAL/MOL
REMARK 924 INTRA-LIGAND FREE ENERGY PREDICTED BY IDOCK:    0.30 KCAL/MOL
REMARK 927      BINDING AFFINITY PREDICTED BY RF-SCORE:    0.00 PKD
ROOT
HETATM    1 CA   UNL     1      -8.495   5.967  68.817  1.00  0.00    -0.102 Ca 
HETATM    2  O   UNL     2      -7.061   7.325  66.821  1.00  0.00    -0.077 OA 
HETATM    3  O   UNL     3     -11.897   6.296  72.171  1.00  0.00    -0.322 OA 
HETATM    4  C   UNL     2      -7.979   8.369  66.358  1.00  0.00    -0.099 C  
HETATM    5  H   UNL     2      -6.445   7.226  66.105  1.00  0.00     0.000 HD 
HETATM    6  H   UNL     3     -12.673   5.813  72.430  1.00  0.00     0.000 HD 
HETATM    7  C   UNL     3     -12.060   6.908  70.898  1.00  0.00    -0.373 C  
ENDROOT
BRANCH   4   8
HETATM    8  C   UNL     2      -8.963   8.525  67.500  1.00  0.00    -0.135 C  
HETATM    9  H   UNL     2     -10.518   7.512  68.102  1.00  0.00     0.000 HD 
HETATM   10  O   UNL     2      -9.901   7.414  67.386  1.00  0.00    -0.148 OA 
BRANCH   8  11
HETATM   11  C   UNL     2      -9.612   9.880  67.676  1.00  0.00    -0.148 C  
HETATM   12  O   UNL     2     -10.283  11.710  66.314  1.00  0.00    -0.215 OA 
HETATM   13  H   UNL     2      -9.116  11.531  68.583  1.00  0.00     0.000 HD 
HETATM   14  O   UNL     2     -10.150   9.596  65.411  1.00  0.00    -0.272 OA 
HETATM   15  O   UNL     2      -8.709  10.681  68.472  1.00  0.00    -0.127 OA 
HETATM   16  C   UNL     2     -10.021  10.489  66.322  1.00  0.00    -0.221 C  
ENDBRANCH   8  11
ENDBRANCH   4   8
BRANCH   7  17
HETATM   17  C   UNL     3     -10.805   7.690  70.478  1.00  0.00    -0.241 C  
HETATM   18  O   UNL     3      -9.653   6.769  70.384  1.00  0.00    -0.169 OA 
HETATM   19  H   UNL     3      -8.878   7.252  70.124  1.00  0.00     0.000 HD 
BRANCH  17  20
HETATM   20  C   UNL     3     -10.485   8.954  71.289  1.00  0.00    -0.287 C  
HETATM   21  C   UNL     3     -11.597   9.986  70.970  1.00  0.00    -0.393 C  
HETATM   22  O   UNL     3      -9.136   9.384  70.949  1.00  0.00    -0.236 OA 
HETATM   23  O   UNL     3     -12.764   9.489  71.174  1.00  0.00    -0.317 OA 
HETATM   24  O   UNL     3     -11.276  11.078  70.460  1.00  0.00    -0.179 OA 
HETATM   25  H   UNL     3      -8.937  10.166  71.451  1.00  0.00     0.000 HD 
ENDBRANCH  17  20
ENDBRANCH   7  17
TORSDOF 4
ENDMDL
MODEL      200
REMARK 921   NORMALIZED FREE ENERGY PREDICTED BY IDOCK:   -2.08 KCAL/MOL
REMARK 922        TOTAL FREE ENERGY PREDICTED BY IDOCK:   -3.75 KCAL/MOL
REMARK 923 INTER-LIGAND FREE ENERGY PREDICTED BY IDOCK:   -2.72 KCAL/MOL
REMARK 924 INTRA-LIGAND FREE ENERGY PREDICTED BY IDOCK:   -1.03 KCAL/MOL
REMARK 927      BINDING AFFINITY PREDICTED BY RF-SCORE:    0.00 PKD
ROOT
HETATM    1 CA   UNL     1      -9.949   4.290  71.815  1.00  0.00    -0.134 Ca 
HETATM    2  O   UNL     2     -11.572   5.544  73.732  1.00  0.00    -0.317 OA 
HETATM    3  O   UNL     3      -6.870   4.926  68.203  1.00  0.00    -0.053 OA 
HETATM    4  C   UNL     2     -10.906   6.822  73.996  1.00  0.00     0.221 C  
HETATM    5  H   UNL     2     -12.116   5.406  74.498  1.00  0.00     0.000 HD 
HETATM    6  H   UNL     3      -6.015   4.601  67.948  1.00  0.00     0.000 HD 
HETATM    7  C   UNL     3      -6.799   5.726  69.377  1.00  0.00    -0.062 C  
ENDROOT
BRANCH   4   8
HETATM    8  C   UNL     2     -10.038   7.042  72.773  1.00  0.00    -0.185 C  
HETATM    9  H   UNL     2      -8.329   6.317  72.172  1.00  0.00     0.000 HD 
HETATM   10  O   UNL     2      -8.873   6.179  72.938  1.00  0.00    -0.127 OA 
BRANCH   8  11
HETATM   11  C   UNL     2      -9.713   8.471  72.400  1.00  0.00    -0.287 C  
HETATM   12  O   UNL     2     -10.214   9.998  70.648  1.00  0.00    -0.216 OA 
HETATM   13  H   UNL     2      -8.082   9.434  71.944  1.00  0.00     0.000 HD 
HETATM   14  O   UNL     2     -11.667   8.276  71.118  1.00  0.00    -0.277 OA 
HETATM   15  O   UNL     2      -8.286   8.537  72.177  1.00  0.00    -0.196 OA 
HETATM   16  C   UNL     2     -10.590   8.962  71.232  1.00  0.00    -0.281 C  
ENDBRANCH   8  11
ENDBRANCH   4   8
BRANCH   7  17
HETATM   17  C   UNL     3      -8.183   6.252  69.790  1.00  0.00    -0.125 C  
HETATM   18  O   UNL     3      -9.147   5.132  69.838  1.00  0.00    -0.117 OA 
HETATM   19  H   UNL     3     -10.002   5.457  70.094  1.00  0.00     0.000 HD 
BRANCH  17  20
HETATM   20  C   UNL     3      -8.719   7.457  69.005  1.00  0.00    -0.133 C  
HETATM   21  C   UNL     3      -8.674   7.072  67.504  1.00  0.00    -0.120 C  
HETATM   22  O   UNL     3      -7.923   8.623  69.360  1.00  0.00    -0.098 OA 
HETATM   23  O   UNL     3      -9.291   5.964  67.291  1.00  0.00    -0.113 OA 
HETATM   24  O   UNL     3      -7.982   7.759  66.726  1.00  0.00    -0.104 OA 
HETATM   25  H   UNL     3      -8.254   9.370  68.874  1.00  0.00     0.000 HD 
ENDBRANCH  17  20
ENDBRANCH   7  17
TORSDOF 4
ENDMDL
MODEL      201
REMARK 921   NORMALIZED FREE ENERGY PREDICTED BY IDOCK:   -2.08 KCAL/MOL
REMARK 922        TOTAL FREE ENERGY PREDICTED BY IDOCK:   -3.75 KCAL/MOL
REMARK 923 INTER-LIGAND FREE ENERGY PREDICTED BY IDOCK:   -4.12 KCAL/MOL
REMARK 924 INTRA-LIGAND FREE ENERGY PREDICTED BY IDOCK:    0.37 KCAL/MOL
REMARK 927      BINDING AFFINITY PREDICTED BY RF-SCORE:    0.00 PKD
ROOT
HETATM    1 CA   UNL     1     -10.444  12.516  69.718  1.00  0.00    -0.423 Ca 
HETATM    2  O   UNL     2     -10.441  13.727  67.184  1.00  0.00    -0.269 OA 
HETATM    3  O   UNL     3      -9.803   8.452  72.167  1.00  0.00    -0.243 OA 
HETATM    4  C   UNL     2      -9.490  12.935  66.401  1.00  0.00    -0.226 C  
HETATM    5  H   UNL     2     -10.490  14.554  66.719  1.00  0.00     0.000 HD 
HETATM    6  H   UNL     3      -9.320   8.165  72.932  1.00  0.00     0.000 HD 
HETATM    7  C   UNL     3      -8.934   8.810  71.100  1.00  0.00    -0.222 C  
ENDROOT
BRANCH   4   8
HETATM    8  C   UNL     2      -9.412  11.616  67.144  1.00  0.00    -0.176 C  
HETATM    9  H   UNL     2      -8.580  11.043  68.813  1.00  0.00     0.000 HD 
HETATM   10  O   UNL     2      -8.628  11.870  68.348  1.00  0.00    -0.164 OA 
BRANCH   8  11
HETATM   11  C   UNL     2      -8.978  10.400  66.356  1.00  0.00    -0.149 C  
HETATM   12  O   UNL     2      -7.236   9.795  64.855  1.00  0.00    -0.116 OA 
HETATM   13  H   UNL     2      -9.754   9.355  64.907  1.00  0.00     0.000 HD 
HETATM   14  O   UNL     2      -6.897  11.482  66.386  1.00  0.00    -0.068 OA 
HETATM   15  O   UNL     2     -10.027  10.118  65.401  1.00  0.00    -0.290 OA 
HETATM   16  C   UNL     2      -7.571  10.589  65.758  1.00  0.00    -0.142 C  
ENDBRANCH   8  11
ENDBRANCH   4   8
BRANCH   7  17
HETATM   17  C   UNL     3      -9.716   9.274  69.861  1.00  0.00    -0.201 C  
HETATM   18  O   UNL     3     -10.650  10.355  70.237  1.00  0.00    -0.415 OA 
HETATM   19  H   UNL     3     -11.134  10.641  69.472  1.00  0.00     0.000 HD 
BRANCH  17  20
HETATM   20  C   UNL     3     -10.391   8.174  69.029  1.00  0.00    -0.218 C  
HETATM   21  C   UNL     3      -9.256   7.319  68.408  1.00  0.00    -0.137 C  
HETATM   22  O   UNL     3     -11.275   8.810  68.063  1.00  0.00    -0.402 OA 
HETATM   23  O   UNL     3      -8.445   6.899  69.311  1.00  0.00    -0.128 OA 
HETATM   24  O   UNL     3      -9.175   7.237  67.166  1.00  0.00    -0.128 OA 
HETATM   25  H   UNL     3     -11.693   8.130  67.548  1.00  0.00     0.000 HD 
ENDBRANCH  17  20
ENDBRANCH   7  17
TORSDOF 4
ENDMDL
MODEL      202
REMARK 921   NORMALIZED FREE ENERGY PREDICTED BY IDOCK:   -2.08 KCAL/MOL
REMARK 922        TOTAL FREE ENERGY PREDICTED BY IDOCK:   -3.74 KCAL/MOL
REMARK 923 INTER-LIGAND FREE ENERGY PREDICTED BY IDOCK:   -3.95 KCAL/MOL
REMARK 924 INTRA-LIGAND FREE ENERGY PREDICTED BY IDOCK:    0.21 KCAL/MOL
REMARK 927      BINDING AFFINITY PREDICTED BY RF-SCORE:    0.00 PKD
ROOT
HETATM    1 CA   UNL     1      -8.816  10.143  70.480  1.00  0.00    -0.184 Ca 
HETATM    2  O   UNL     2      -8.653   8.640  72.847  1.00  0.00    -0.398 OA 
HETATM    3  O   UNL     3      -9.672  10.036  65.770  1.00  0.00    -0.218 OA 
HETATM    4  C   UNL     2      -9.574   7.521  72.634  1.00  0.00    -0.170 C  
HETATM    5  H   UNL     2      -8.562   8.687  73.791  1.00  0.00     0.000 HD 
HETATM    6  H   UNL     3     -10.203  10.514  65.145  1.00  0.00     0.000 HD 
HETATM    7  C   UNL     3     -10.472   9.290  66.678  1.00  0.00    -0.167 C  
ENDROOT
BRANCH   4   8
HETATM    8  C   UNL     2      -9.718   7.447  71.126  1.00  0.00    -0.163 C  
HETATM    9  H   UNL     2      -8.748   8.234  69.628  1.00  0.00     0.000 HD 
HETATM   10  O   UNL     2      -8.657   8.281  70.572  1.00  0.00    -0.124 OA 
BRANCH   8  11
HETATM   11  C   UNL     2     -11.091   7.708  70.547  1.00  0.00    -0.255 C  
HETATM   12  O   UNL     2     -12.960   9.109  70.991  1.00  0.00    -0.221 OA 
HETATM   13  H   UNL     2     -12.713   6.651  70.330  1.00  0.00     0.000 HD 
HETATM   14  O   UNL     2     -10.855   9.757  71.665  1.00  0.00    -0.191 OA 
HETATM   15  O   UNL     2     -11.851   6.487  70.694  1.00  0.00    -0.384 OA 
HETATM   16  C   UNL     2     -11.732   8.967  71.162  1.00  0.00    -0.298 C  
ENDBRANCH   8  11
ENDBRANCH   4   8
BRANCH   7  17
HETATM   17  C   UNL     3      -9.613   8.516  67.691  1.00  0.00    -0.153 C  
HETATM   18  O   UNL     3      -8.533   9.389  68.197  1.00  0.00    -0.119 OA 
HETATM   19  H   UNL     3      -8.002   8.910  68.822  1.00  0.00     0.000 HD 
BRANCH  17  20
HETATM   20  C   UNL     3      -9.098   7.142  67.239  1.00  0.00    -0.123 C  
HETATM   21  C   UNL     3     -10.255   6.134  67.457  1.00  0.00    -0.178 C  
HETATM   22  O   UNL     3      -7.881   6.844  67.981  1.00  0.00    -0.110 OA 
HETATM   23  O   UNL     3     -11.331   6.531  66.876  1.00  0.00    -0.330 OA 
HETATM   24  O   UNL     3     -10.077   5.170  68.228  1.00  0.00    -0.165 OA 
HETATM   25  H   UNL     3      -7.562   5.994  67.702  1.00  0.00     0.000 HD 
ENDBRANCH  17  20
ENDBRANCH   7  17
TORSDOF 4
ENDMDL
MODEL      203
REMARK 921   NORMALIZED FREE ENERGY PREDICTED BY IDOCK:   -2.06 KCAL/MOL
REMARK 922        TOTAL FREE ENERGY PREDICTED BY IDOCK:   -3.72 KCAL/MOL
REMARK 923 INTER-LIGAND FREE ENERGY PREDICTED BY IDOCK:   -5.00 KCAL/MOL
REMARK 924 INTRA-LIGAND FREE ENERGY PREDICTED BY IDOCK:    1.27 KCAL/MOL
REMARK 927      BINDING AFFINITY PREDICTED BY RF-SCORE:    0.00 PKD
ROOT
HETATM    1 CA   UNL     1     -13.248   6.415  72.735  1.00  0.00    -0.487 Ca 
HETATM    2  O   UNL     2     -14.379   8.983  72.637  1.00  0.00    -0.791 OA 
HETATM    3  O   UNL     3      -9.674   3.599  71.243  1.00  0.00    -0.165 OA 
HETATM    4  C   UNL     2     -13.240   9.875  72.399  1.00  0.00    -0.225 C  
HETATM    5  H   UNL     2     -15.044   9.553  73.004  1.00  0.00     0.000 HD 
HETATM    6  H   UNL     3      -9.047   3.000  71.630  1.00  0.00     0.000 HD 
HETATM    7  C   UNL     3      -9.432   4.943  71.641  1.00  0.00    -0.153 C  
ENDROOT
BRANCH   4   8
HETATM    8  C   UNL     2     -12.178   8.966  71.814  1.00  0.00    -0.359 C  
HETATM    9  H   UNL     2     -10.865   7.742  72.579  1.00  0.00     0.000 HD 
HETATM   10  O   UNL     2     -11.530   8.312  72.946  1.00  0.00    -0.347 OA 
BRANCH   8  11
HETATM   11  C   UNL     2     -11.225   9.570  70.807  1.00  0.00    -0.317 C  
HETATM   12  O   UNL     2      -8.922  10.148  70.679  1.00  0.00     0.179 OA 
HETATM   13  H   UNL     2     -11.077  11.299  69.923  1.00  0.00     0.000 HD 
HETATM   14  O   UNL     2      -9.610   8.490  72.122  1.00  0.00    -0.262 OA 
HETATM   15  O   UNL     2     -11.675  10.920  70.556  1.00  0.00    -0.318 OA 
HETATM   16  C   UNL     2      -9.760   9.434  71.266  1.00  0.00    -0.139 C  
ENDBRANCH   8  11
ENDBRANCH   4   8
BRANCH   7  17
HETATM   17  C   UNL     3     -10.447   5.912  71.013  1.00  0.00    -0.237 C  
HETATM   18  O   UNL     3     -11.772   5.719  71.639  1.00  0.00    -0.138 OA 
HETATM   19  H   UNL     3     -12.399   6.319  71.251  1.00  0.00     0.000 HD 
BRANCH  17  20
HETATM   20  C   UNL     3     -10.516   5.931  69.480  1.00  0.00    -0.278 C  
HETATM   21  C   UNL     3      -9.261   6.694  68.982  1.00  0.00    -0.131 C  
HETATM   22  O   UNL     3     -11.787   6.523  69.087  1.00  0.00    -0.570 OA 
HETATM   23  O   UNL     3      -8.186   6.190  69.474  1.00  0.00    -0.113 OA 
HETATM   24  O   UNL     3      -9.416   7.730  68.305  1.00  0.00    -0.145 OA 
HETATM   25  H   UNL     3     -11.830   6.534  68.138  1.00  0.00     0.000 HD 
ENDBRANCH  17  20
ENDBRANCH   7  17
TORSDOF 4
ENDMDL
MODEL      204
REMARK 921   NORMALIZED FREE ENERGY PREDICTED BY IDOCK:   -2.06 KCAL/MOL
REMARK 922        TOTAL FREE ENERGY PREDICTED BY IDOCK:   -3.71 KCAL/MOL
REMARK 923 INTER-LIGAND FREE ENERGY PREDICTED BY IDOCK:   -2.64 KCAL/MOL
REMARK 924 INTRA-LIGAND FREE ENERGY PREDICTED BY IDOCK:   -1.07 KCAL/MOL
REMARK 927      BINDING AFFINITY PREDICTED BY RF-SCORE:    0.00 PKD
ROOT
HETATM    1 CA   UNL     1     -10.064   3.696  72.494  1.00  0.00    -0.121 Ca 
HETATM    2  O   UNL     2     -11.756   5.835  73.164  1.00  0.00    -0.509 OA 
HETATM    3  O   UNL     3      -6.495   2.201  69.672  1.00  0.00    -0.028 OA 
HETATM    4  C   UNL     2     -10.979   7.033  72.833  1.00  0.00    -0.302 C  
HETATM    5  H   UNL     2     -12.406   6.146  73.783  1.00  0.00     0.000 HD 
HETATM    6  H   UNL     3      -5.660   1.761  69.775  1.00  0.00     0.000 HD 
HETATM    7  C   UNL     3      -6.479   3.500  70.249  1.00  0.00    -0.032 C  
ENDROOT
BRANCH   4   8
HETATM    8  C   UNL     2      -9.942   6.536  71.846  1.00  0.00    -0.177 C  
HETATM    9  H   UNL     2      -8.307   5.483  72.007  1.00  0.00     0.000 HD 
HETATM   10  O   UNL     2      -8.957   5.794  72.626  1.00  0.00    -0.132 OA 
BRANCH   8  11
HETATM   11  C   UNL     2      -9.352   7.549  70.890  1.00  0.00    -0.154 C  
HETATM   12  O   UNL     2      -9.469   8.070  68.573  1.00  0.00    -0.142 OA 
HETATM   13  H   UNL     2      -7.554   7.963  70.265  1.00  0.00     0.000 HD 
HETATM   14  O   UNL     2     -11.224   6.985  69.594  1.00  0.00    -0.243 OA 
HETATM   15  O   UNL     2      -7.924   7.326  70.865  1.00  0.00    -0.096 OA 
HETATM   16  C   UNL     2     -10.054   7.505  69.519  1.00  0.00    -0.189 C  
ENDBRANCH   8  11
ENDBRANCH   4   8
BRANCH   7  17
HETATM   17  C   UNL     3      -7.831   4.213  70.083  1.00  0.00    -0.051 C  
HETATM   18  O   UNL     3      -8.921   3.325  70.538  1.00  0.00    -0.077 OA 
HETATM   19  H   UNL     3      -9.756   3.765  70.435  1.00  0.00     0.000 HD 
BRANCH  17  20
HETATM   20  C   UNL     3      -8.112   4.833  68.707  1.00  0.00    -0.083 C  
HETATM   21  C   UNL     3      -7.948   3.700  67.661  1.00  0.00    -0.081 C  
HETATM   22  O   UNL     3      -7.215   5.966  68.525  1.00  0.00    -0.078 OA 
HETATM   23  O   UNL     3      -8.676   2.684  67.961  1.00  0.00    -0.085 OA 
HETATM   24  O   UNL     3      -7.089   3.825  66.766  1.00  0.00    -0.061 OA 
HETATM   25  H   UNL     3      -7.389   6.350  67.673  1.00  0.00     0.000 HD 
ENDBRANCH  17  20
ENDBRANCH   7  17
TORSDOF 4
ENDMDL
MODEL      205
REMARK 921   NORMALIZED FREE ENERGY PREDICTED BY IDOCK:   -2.05 KCAL/MOL
REMARK 922        TOTAL FREE ENERGY PREDICTED BY IDOCK:   -3.71 KCAL/MOL
REMARK 923 INTER-LIGAND FREE ENERGY PREDICTED BY IDOCK:   -4.26 KCAL/MOL
REMARK 924 INTRA-LIGAND FREE ENERGY PREDICTED BY IDOCK:    0.55 KCAL/MOL
REMARK 927      BINDING AFFINITY PREDICTED BY RF-SCORE:    0.00 PKD
ROOT
HETATM    1 CA   UNL     1      -7.855  11.752  65.402  1.00  0.00    -0.356 Ca 
HETATM    2  O   UNL     2      -6.314   9.832  66.754  1.00  0.00    -0.064 OA 
HETATM    3  O   UNL     3     -11.132  15.217  65.827  1.00  0.00    -0.342 OA 
HETATM    4  C   UNL     2      -6.138  10.387  68.099  1.00  0.00    -0.044 C  
HETATM    5  H   UNL     2      -5.606   9.206  66.668  1.00  0.00     0.000 HD 
HETATM    6  H   UNL     3     -11.243  16.114  65.536  1.00  0.00     0.000 HD 
HETATM    7  C   UNL     3     -10.069  15.095  66.762  1.00  0.00    -0.258 C  
ENDROOT
BRANCH   4   8
HETATM    8  C   UNL     2      -7.268  11.387  68.234  1.00  0.00    -0.082 C  
HETATM    9  H   UNL     2      -7.446  13.126  69.102  1.00  0.00     0.000 HD 
HETATM   10  O   UNL     2      -6.738  12.499  69.017  1.00  0.00    -0.094 OA 
BRANCH   8  11
HETATM   11  C   UNL     2      -8.605  10.864  68.710  1.00  0.00    -0.159 C  
HETATM   12  O   UNL     2      -9.425   9.248  70.250  1.00  0.00    -0.201 OA 
HETATM   13  H   UNL     2     -10.085   9.917  67.871  1.00  0.00     0.000 HD 
HETATM   14  O   UNL     2      -7.353  10.198  70.579  1.00  0.00    -0.292 OA 
HETATM   15  O   UNL     2      -9.246  10.245  67.572  1.00  0.00    -0.140 OA 
HETATM   16  C   UNL     2      -8.449   9.968  69.953  1.00  0.00    -0.150 C  
ENDBRANCH   8  11
ENDBRANCH   4   8
BRANCH   7  17
HETATM   17  C   UNL     3      -9.889  13.642  67.232  1.00  0.00    -0.241 C  
HETATM   18  O   UNL     3     -10.511  12.723  66.256  1.00  0.00    -0.251 OA 
HETATM   19  H   UNL     3     -10.400  11.825  66.546  1.00  0.00     0.000 HD 
BRANCH  17  20
HETATM   20  C   UNL     3     -10.306  13.336  68.678  1.00  0.00    -0.196 C  
HETATM   21  C   UNL     3     -11.836  13.088  68.662  1.00  0.00    -0.318 C  
HETATM   22  O   UNL     3      -9.875  14.442  69.521  1.00  0.00    -0.412 OA 
HETATM   23  O   UNL     3     -12.151  12.187  67.801  1.00  0.00    -0.508 OA 
HETATM   24  O   UNL     3     -12.573  13.827  69.346  1.00  0.00    -0.151 OA 
HETATM   25  H   UNL     3     -10.132  14.253  70.416  1.00  0.00     0.000 HD 
ENDBRANCH  17  20
ENDBRANCH   7  17
TORSDOF 4
ENDMDL
MODEL      206
REMARK 921   NORMALIZED FREE ENERGY PREDICTED BY IDOCK:   -2.04 KCAL/MOL
REMARK 922        TOTAL FREE ENERGY PREDICTED BY IDOCK:   -3.70 KCAL/MOL
REMARK 923 INTER-LIGAND FREE ENERGY PREDICTED BY IDOCK:   -4.03 KCAL/MOL
REMARK 924 INTRA-LIGAND FREE ENERGY PREDICTED BY IDOCK:    0.33 KCAL/MOL
REMARK 927      BINDING AFFINITY PREDICTED BY RF-SCORE:    0.00 PKD
ROOT
HETATM    1 CA   UNL     1     -12.539  12.985  66.575  1.00  0.00    -0.371 Ca 
HETATM    2  O   UNL     2     -10.819  11.078  65.439  1.00  0.00    -0.206 OA 
HETATM    3  O   UNL     3     -13.237  16.026  70.207  1.00  0.00    -0.640 OA 
HETATM    4  C   UNL     2      -9.483  11.477  65.888  1.00  0.00    -0.230 C  
HETATM    5  H   UNL     2     -10.654  10.540  64.673  1.00  0.00     0.000 HD 
HETATM    6  H   UNL     3     -13.481  16.936  70.320  1.00  0.00     0.000 HD 
HETATM    7  C   UNL     3     -11.961  15.896  69.594  1.00  0.00    -0.260 C  
ENDROOT
BRANCH   4   8
HETATM    8  C   UNL     2      -9.748  12.335  67.109  1.00  0.00    -0.201 C  
HETATM    9  H   UNL     2      -9.833  14.258  67.425  1.00  0.00     0.000 HD 
HETATM   10  O   UNL     2      -9.668  13.721  66.660  1.00  0.00    -0.271 OA 
BRANCH   8  11
HETATM   11  C   UNL     2      -8.949  12.031  68.357  1.00  0.00    -0.153 C  
HETATM   12  O   UNL     2      -6.665  11.862  68.997  1.00  0.00    -0.086 OA 
HETATM   13  H   UNL     2      -8.753  10.479  69.517  1.00  0.00     0.000 HD 
HETATM   14  O   UNL     2      -7.260  13.183  67.207  1.00  0.00    -0.136 OA 
HETATM   15  O   UNL     2      -9.254  10.669  68.733  1.00  0.00    -0.164 OA 
HETATM   16  C   UNL     2      -7.454  12.346  68.160  1.00  0.00    -0.118 C  
ENDBRANCH   8  11
ENDBRANCH   4   8
BRANCH   7  17
HETATM   17  C   UNL     3     -11.565  14.422  69.412  1.00  0.00    -0.304 C  
HETATM   18  O   UNL     3     -12.484  13.775  68.453  1.00  0.00    -0.375 OA 
HETATM   19  H   UNL     3     -12.240  12.864  68.340  1.00  0.00     0.000 HD 
BRANCH  17  20
HETATM   20  C   UNL     3     -11.378  13.601  70.696  1.00  0.00     0.545 C  
HETATM   21  C   UNL     3     -12.469  12.499  70.687  1.00  0.00    -0.238 C  
HETATM   22  O   UNL     3     -11.438  14.510  71.832  1.00  0.00    -0.352 OA 
HETATM   23  O   UNL     3     -12.434  11.821  69.596  1.00  0.00    -0.119 OA 
HETATM   24  O   UNL     3     -13.298  12.465  71.619  1.00  0.00    -0.351 OA 
HETATM   25  H   UNL     3     -11.322  14.003  72.627  1.00  0.00     0.000 HD 
ENDBRANCH  17  20
ENDBRANCH   7  17
TORSDOF 4
ENDMDL
MODEL      207
REMARK 921   NORMALIZED FREE ENERGY PREDICTED BY IDOCK:   -2.03 KCAL/MOL
REMARK 922        TOTAL FREE ENERGY PREDICTED BY IDOCK:   -3.69 KCAL/MOL
REMARK 923 INTER-LIGAND FREE ENERGY PREDICTED BY IDOCK:   -4.00 KCAL/MOL
REMARK 924 INTRA-LIGAND FREE ENERGY PREDICTED BY IDOCK:    0.31 KCAL/MOL
REMARK 927      BINDING AFFINITY PREDICTED BY RF-SCORE:    0.00 PKD
ROOT
HETATM    1 CA   UNL     1      -8.117  11.515  69.584  1.00  0.00    -0.313 Ca 
HETATM    2  O   UNL     2      -7.872  11.993  66.828  1.00  0.00    -0.304 OA 
HETATM    3  O   UNL     3      -9.498   8.412  72.960  1.00  0.00    -0.250 OA 
HETATM    4  C   UNL     2      -7.705  10.662  66.239  1.00  0.00    -0.143 C  
HETATM    5  H   UNL     2      -7.520  12.581  66.170  1.00  0.00     0.000 HD 
HETATM    6  H   UNL     3      -9.139   8.040  73.756  1.00  0.00     0.000 HD 
HETATM    7  C   UNL     3      -8.787   7.976  71.809  1.00  0.00    -0.140 C  
ENDROOT
BRANCH   4   8
HETATM    8  C   UNL     2      -8.266   9.723  67.289  1.00  0.00    -0.117 C  
HETATM    9  H   UNL     2      -7.564   8.952  68.937  1.00  0.00     0.000 HD 
HETATM   10  O   UNL     2      -7.211   9.539  68.280  1.00  0.00    -0.075 OA 
BRANCH   8  11
HETATM   11  C   UNL     2      -8.903   8.440  66.803  1.00  0.00    -0.138 C  
HETATM   12  O   UNL     2      -8.533   6.814  65.109  1.00  0.00    -0.120 OA 
HETATM   13  H   UNL     2     -10.624   7.974  66.018  1.00  0.00     0.000 HD 
HETATM   14  O   UNL     2      -6.769   8.059  65.907  1.00  0.00    -0.048 OA 
HETATM   15  O   UNL     2     -10.224   8.780  66.322  1.00  0.00    -0.271 OA 
HETATM   16  C   UNL     2      -7.998   7.708  65.795  1.00  0.00    -0.116 C  
ENDBRANCH   8  11
ENDBRANCH   4   8
BRANCH   7  17
HETATM   17  C   UNL     3      -9.368   8.578  70.519  1.00  0.00    -0.170 C  
HETATM   18  O   UNL     3      -9.145  10.039  70.509  1.00  0.00    -0.311 OA 
HETATM   19  H   UNL     3      -9.504  10.411  69.712  1.00  0.00     0.000 HD 
BRANCH  17  20
HETATM   20  C   UNL     3     -10.817   8.200  70.181  1.00  0.00    -0.241 C  
HETATM   21  C   UNL     3     -10.812   6.697  69.800  1.00  0.00    -0.286 C  
HETATM   22  O   UNL     3     -11.290   9.095  69.134  1.00  0.00    -0.435 OA 
HETATM   23  O   UNL     3     -10.263   5.987  70.720  1.00  0.00    -0.189 OA 
HETATM   24  O   UNL     3     -11.197   6.364  68.661  1.00  0.00    -0.329 OA 
HETATM   25  H   UNL     3     -12.187   8.861  68.925  1.00  0.00     0.000 HD 
ENDBRANCH  17  20
ENDBRANCH   7  17
TORSDOF 4
ENDMDL
MODEL      208
REMARK 921   NORMALIZED FREE ENERGY PREDICTED BY IDOCK:   -2.02 KCAL/MOL
REMARK 922        TOTAL FREE ENERGY PREDICTED BY IDOCK:   -3.67 KCAL/MOL
REMARK 923 INTER-LIGAND FREE ENERGY PREDICTED BY IDOCK:   -4.19 KCAL/MOL
REMARK 924 INTRA-LIGAND FREE ENERGY PREDICTED BY IDOCK:    0.52 KCAL/MOL
REMARK 927      BINDING AFFINITY PREDICTED BY RF-SCORE:    0.00 PKD
ROOT
HETATM    1 CA   UNL     1     -11.660   8.682  67.929  1.00  0.00    -0.476 Ca 
HETATM    2  O   UNL     2     -12.293  10.368  70.083  1.00  0.00    -0.419 OA 
HETATM    3  O   UNL     3      -8.986   5.004  66.429  1.00  0.00    -0.119 OA 
HETATM    4  C   UNL     2     -12.027   9.556  71.274  1.00  0.00    -0.365 C  
HETATM    5  H   UNL     2     -12.886  11.042  70.393  1.00  0.00     0.000 HD 
HETATM    6  H   UNL     3      -9.120   4.183  65.972  1.00  0.00     0.000 HD 
HETATM    7  C   UNL     3      -9.591   4.994  67.715  1.00  0.00    -0.146 C  
ENDROOT
BRANCH   4   8
HETATM    8  C   UNL     2     -11.081   8.479  70.779  1.00  0.00    -0.254 C  
HETATM    9  H   UNL     2     -11.197   6.538  70.620  1.00  0.00     0.000 HD 
HETATM   10  O   UNL     2     -11.790   7.213  70.929  1.00  0.00    -0.317 OA 
BRANCH   8  11
HETATM   11  C   UNL     2      -9.675   8.483  71.334  1.00  0.00    -0.220 C  
HETATM   12  O   UNL     2      -8.613   8.576  73.460  1.00  0.00    -0.341 OA 
HETATM   13  H   UNL     2      -8.151   9.689  71.204  1.00  0.00     0.000 HD 
HETATM   14  O   UNL     2     -10.751   7.740  73.282  1.00  0.00    -0.374 OA 
HETATM   15  O   UNL     2      -9.034   9.687  70.856  1.00  0.00    -0.196 OA 
HETATM   16  C   UNL     2      -9.672   8.293  72.863  1.00  0.00    -0.240 C  
ENDBRANCH   8  11
ENDBRANCH   4   8
BRANCH   7  17
HETATM   17  C   UNL     3      -9.374   6.324  68.456  1.00  0.00    -0.121 C  
HETATM   18  O   UNL     3     -10.387   7.308  68.019  1.00  0.00    -0.180 OA 
HETATM   19  H   UNL     3     -10.253   8.129  68.476  1.00  0.00     0.000 HD 
BRANCH  17  20
HETATM   20  C   UNL     3      -7.949   6.894  68.432  1.00  0.00    -0.122 C  
HETATM   21  C   UNL     3      -7.225   6.349  69.689  1.00  0.00    -0.078 C  
HETATM   22  O   UNL     3      -8.039   8.346  68.360  1.00  0.00    -0.119 OA 
HETATM   23  O   UNL     3      -7.298   5.067  69.747  1.00  0.00    -0.054 OA 
HETATM   24  O   UNL     3      -6.785   7.159  70.529  1.00  0.00    -0.050 OA 
HETATM   25  H   UNL     3      -7.158   8.700  68.345  1.00  0.00     0.000 HD 
ENDBRANCH  17  20
ENDBRANCH   7  17
TORSDOF 4
ENDMDL
MODEL      209
REMARK 921   NORMALIZED FREE ENERGY PREDICTED BY IDOCK:   -2.00 KCAL/MOL
REMARK 922        TOTAL FREE ENERGY PREDICTED BY IDOCK:   -3.65 KCAL/MOL
REMARK 923 INTER-LIGAND FREE ENERGY PREDICTED BY IDOCK:   -3.47 KCAL/MOL
REMARK 924 INTRA-LIGAND FREE ENERGY PREDICTED BY IDOCK:   -0.18 KCAL/MOL
REMARK 927      BINDING AFFINITY PREDICTED BY RF-SCORE:    0.00 PKD
ROOT
HETATM    1 CA   UNL     1     -10.415   5.348  69.724  1.00  0.00    -0.169 Ca 
HETATM    2  O   UNL     2     -12.515   7.128  70.280  1.00  0.00    -0.592 OA 
HETATM    3  O   UNL     3      -6.554   3.109  71.459  1.00  0.00    -0.021 OA 
HETATM    4  C   UNL     2     -12.756   6.971  71.717  1.00  0.00    -0.340 C  
HETATM    5  H   UNL     2     -13.323   7.501  69.951  1.00  0.00     0.000 HD 
HETATM    6  H   UNL     3      -6.209   2.224  71.481  1.00  0.00     0.000 HD 
HETATM    7  C   UNL     3      -7.741   3.230  72.232  1.00  0.00    -0.058 C  
ENDROOT
BRANCH   4   8
HETATM    8  C   UNL     2     -11.465   6.374  72.243  1.00  0.00    -0.298 C  
HETATM    9  H   UNL     2     -10.935   4.594  72.839  1.00  0.00     0.000 HD 
HETATM   10  O   UNL     2     -11.744   4.967  72.510  1.00  0.00    -0.052 OA 
BRANCH   8  11
HETATM   11  C   UNL     2     -10.773   7.103  73.373  1.00  0.00    -0.368 C  
HETATM   12  O   UNL     2      -8.880   8.512  73.670  1.00  0.00    -0.249 OA 
HETATM   13  H   UNL     2      -9.853   6.556  75.000  1.00  0.00     0.000 HD 
HETATM   14  O   UNL     2      -9.926   8.414  71.621  1.00  0.00    -0.193 OA 
HETATM   15  O   UNL     2     -10.288   6.098  74.291  1.00  0.00    -0.292 OA 
HETATM   16  C   UNL     2      -9.710   8.085  72.842  1.00  0.00    -0.283 C  
ENDBRANCH   8  11
ENDBRANCH   4   8
BRANCH   7  17
HETATM   17  C   UNL     3      -8.298   4.662  72.197  1.00  0.00    -0.117 C  
HETATM   18  O   UNL     3      -9.259   4.795  71.082  1.00  0.00    -0.132 OA 
HETATM   19  H   UNL     3      -9.604   5.680  71.060  1.00  0.00     0.000 HD 
BRANCH  17  20
HETATM   20  C   UNL     3      -7.266   5.798  72.224  1.00  0.00    -0.089 C  
HETATM   21  C   UNL     3      -6.877   6.088  70.752  1.00  0.00    -0.062 C  
HETATM   22  O   UNL     3      -6.160   5.390  73.079  1.00  0.00    -0.036 OA 
HETATM   23  O   UNL     3      -7.918   6.314  70.033  1.00  0.00    -0.107 OA 
HETATM   24  O   UNL     3      -5.686   5.954  70.406  1.00  0.00    -0.012 OA 
HETATM   25  H   UNL     3      -5.521   6.092  73.096  1.00  0.00     0.000 HD 
ENDBRANCH  17  20
ENDBRANCH   7  17
TORSDOF 4
ENDMDL
MODEL      210
REMARK 921   NORMALIZED FREE ENERGY PREDICTED BY IDOCK:   -2.00 KCAL/MOL
REMARK 922        TOTAL FREE ENERGY PREDICTED BY IDOCK:   -3.64 KCAL/MOL
REMARK 923 INTER-LIGAND FREE ENERGY PREDICTED BY IDOCK:   -3.44 KCAL/MOL
REMARK 924 INTRA-LIGAND FREE ENERGY PREDICTED BY IDOCK:   -0.20 KCAL/MOL
REMARK 927      BINDING AFFINITY PREDICTED BY RF-SCORE:    0.00 PKD
ROOT
HETATM    1 CA   UNL     1     -12.005   5.765  71.856  1.00  0.00    -0.271 Ca 
HETATM    2  O   UNL     2     -12.795   8.346  71.081  1.00  0.00    -0.477 OA 
HETATM    3  O   UNL     3      -8.531   2.473  71.709  1.00  0.00    -0.059 OA 
HETATM    4  C   UNL     2     -11.540   9.094  70.969  1.00  0.00    -0.306 C  
HETATM    5  H   UNL     2     -13.456   9.020  71.187  1.00  0.00     0.000 HD 
HETATM    6  H   UNL     3      -8.072   1.912  72.323  1.00  0.00     0.000 HD 
HETATM    7  C   UNL     3      -8.232   3.846  71.926  1.00  0.00    -0.083 C  
ENDROOT
BRANCH   4   8
HETATM    8  C   UNL     2     -10.485   8.018  70.801  1.00  0.00    -0.206 C  
HETATM    9  H   UNL     2      -8.564   7.937  71.130  1.00  0.00     0.000 HD 
HETATM   10  O   UNL     2      -9.224   8.611  71.235  1.00  0.00    -0.178 OA 
BRANCH   8  11
HETATM   11  C   UNL     2     -10.421   7.311  69.466  1.00  0.00    -0.230 C  
HETATM   12  O   UNL     2     -10.564   7.872  67.160  1.00  0.00    -0.320 OA 
HETATM   13  H   UNL     2     -11.506   5.961  68.575  1.00  0.00     0.000 HD 
HETATM   14  O   UNL     2      -9.874   9.454  68.684  1.00  0.00    -0.156 OA 
HETATM   15  O   UNL     2     -11.546   6.405  69.413  1.00  0.00    -0.382 OA 
HETATM   16  C   UNL     2     -10.322   8.315  68.301  1.00  0.00    -0.198 C  
ENDBRANCH   8  11
ENDBRANCH   4   8
BRANCH   7  17
HETATM   17  C   UNL     3      -8.974   4.754  70.932  1.00  0.00    -0.121 C  
HETATM   18  O   UNL     3     -10.158   4.046  70.401  1.00  0.00    -0.127 OA 
HETATM   19  H   UNL     3     -10.616   4.607  69.787  1.00  0.00     0.000 HD 
BRANCH  17  20
HETATM   20  C   UNL     3      -8.124   5.393  69.826  1.00  0.00    -0.096 C  
HETATM   21  C   UNL     3      -7.440   4.234  69.057  1.00  0.00    -0.055 C  
HETATM   22  O   UNL     3      -7.207   6.341  70.445  1.00  0.00    -0.078 OA 
HETATM   23  O   UNL     3      -8.303   3.373  68.652  1.00  0.00    -0.070 OA 
HETATM   24  O   UNL     3      -6.194   4.188  69.022  1.00  0.00    -0.029 OA 
HETATM   25  H   UNL     3      -6.681   6.737  69.760  1.00  0.00     0.000 HD 
ENDBRANCH  17  20
ENDBRANCH   7  17
TORSDOF 4
ENDMDL
MODEL      211
REMARK 921   NORMALIZED FREE ENERGY PREDICTED BY IDOCK:   -1.98 KCAL/MOL
REMARK 922        TOTAL FREE ENERGY PREDICTED BY IDOCK:   -3.62 KCAL/MOL
REMARK 923 INTER-LIGAND FREE ENERGY PREDICTED BY IDOCK:   -3.92 KCAL/MOL
REMARK 924 INTRA-LIGAND FREE ENERGY PREDICTED BY IDOCK:    0.29 KCAL/MOL
REMARK 927      BINDING AFFINITY PREDICTED BY RF-SCORE:    0.00 PKD
ROOT
HETATM    1 CA   UNL     1      -8.044   9.310  72.640  1.00  0.00    -0.005 Ca 
HETATM    2  O   UNL     2      -9.446   7.345  74.076  1.00  0.00    -0.289 OA 
HETATM    3  O   UNL     3      -7.609  11.610  68.464  1.00  0.00    -0.114 OA 
HETATM    4  C   UNL     2     -10.782   7.335  73.473  1.00  0.00    -0.321 C  
HETATM    5  H   UNL     2      -9.577   6.954  74.931  1.00  0.00     0.000 HD 
HETATM    6  H   UNL     3      -7.545  12.509  68.164  1.00  0.00     0.000 HD 
HETATM    7  C   UNL     3      -8.888  11.330  69.017  1.00  0.00     0.038 C  
ENDROOT
BRANCH   4   8
HETATM    8  C   UNL     2     -10.573   7.959  72.107  1.00  0.00    -0.253 C  
HETATM    9  H   UNL     2     -11.681   9.049  70.928  1.00  0.00     0.000 HD 
HETATM   10  O   UNL     2     -11.812   8.658  71.783  1.00  0.00    -0.293 OA 
BRANCH   8  11
HETATM   11  C   UNL     2     -10.051   7.063  71.007  1.00  0.00    -0.195 C  
HETATM   12  O   UNL     2     -10.823   5.231  69.703  1.00  0.00    -0.214 OA 
HETATM   13  H   UNL     2      -8.608   5.762  70.865  1.00  0.00     0.000 HD 
HETATM   14  O   UNL     2     -12.335   6.719  70.599  1.00  0.00    -0.359 OA 
HETATM   15  O   UNL     2      -8.936   6.324  71.557  1.00  0.00    -0.142 OA 
HETATM   16  C   UNL     2     -11.177   6.207  70.396  1.00  0.00    -0.353 C  
ENDBRANCH   8  11
ENDBRANCH   4   8
BRANCH   7  17
HETATM   17  C   UNL     3      -8.991   9.875  69.502  1.00  0.00    -0.211 C  
HETATM   18  O   UNL     3      -7.636   9.321  69.703  1.00  0.00    -0.073 OA 
HETATM   19  H   UNL     3      -7.700   8.422  70.003  1.00  0.00     0.000 HD 
BRANCH  17  20
HETATM   20  C   UNL     3      -9.894   8.944  68.681  1.00  0.00    -0.167 C  
HETATM   21  C   UNL     3      -9.413   9.032  67.211  1.00  0.00    -0.149 C  
HETATM   22  O   UNL     3     -11.278   9.343  68.896  1.00  0.00    -0.448 OA 
HETATM   23  O   UNL     3      -8.154   8.791  67.119  1.00  0.00    -0.099 OA 
HETATM   24  O   UNL     3     -10.212   9.428  66.338  1.00  0.00    -0.268 OA 
HETATM   25  H   UNL     3     -11.837   8.767  68.388  1.00  0.00     0.000 HD 
ENDBRANCH  17  20
ENDBRANCH   7  17
TORSDOF 4
ENDMDL
MODEL      212
REMARK 921   NORMALIZED FREE ENERGY PREDICTED BY IDOCK:   -1.98 KCAL/MOL
REMARK 922        TOTAL FREE ENERGY PREDICTED BY IDOCK:   -3.62 KCAL/MOL
REMARK 923 INTER-LIGAND FREE ENERGY PREDICTED BY IDOCK:   -4.19 KCAL/MOL
REMARK 924 INTRA-LIGAND FREE ENERGY PREDICTED BY IDOCK:    0.58 KCAL/MOL
REMARK 927      BINDING AFFINITY PREDICTED BY RF-SCORE:    0.00 PKD
ROOT
HETATM    1 CA   UNL     1      -7.519  12.508  66.091  1.00  0.00    -0.356 Ca 
HETATM    2  O   UNL     2      -8.872  10.261  65.087  1.00  0.00    -0.164 OA 
HETATM    3  O   UNL     3      -7.766  16.316  68.983  1.00  0.00    -0.205 OA 
HETATM    4  C   UNL     2      -9.812   9.895  66.150  1.00  0.00    -0.260 C  
HETATM    5  H   UNL     2      -8.783   9.466  64.576  1.00  0.00     0.000 HD 
HETATM    6  H   UNL     3      -7.238  16.710  69.667  1.00  0.00     0.000 HD 
HETATM    7  C   UNL     3      -8.290  15.057  69.383  1.00  0.00    -0.141 C  
ENDROOT
BRANCH   4   8
HETATM    8  C   UNL     2      -9.954  11.164  66.967  1.00  0.00    -0.192 C  
HETATM    9  H   UNL     2      -9.329  12.999  66.746  1.00  0.00     0.000 HD 
HETATM   10  O   UNL     2      -9.240  12.204  66.235  1.00  0.00    -0.220 OA 
BRANCH   8  11
HETATM   11  C   UNL     2      -9.614  11.085  68.438  1.00  0.00    -0.181 C  
HETATM   12  O   UNL     2      -7.893  10.180  69.808  1.00  0.00    -0.154 OA 
HETATM   13  H   UNL     2     -10.443  10.260  69.996  1.00  0.00     0.000 HD 
HETATM   14  O   UNL     2      -7.442  10.740  67.621  1.00  0.00    -0.093 OA 
HETATM   15  O   UNL     2     -10.657  10.310  69.072  1.00  0.00    -0.198 OA 
HETATM   16  C   UNL     2      -8.178  10.569  68.657  1.00  0.00    -0.130 C  
ENDBRANCH   8  11
ENDBRANCH   4   8
BRANCH   7  17
HETATM   17  C   UNL     3      -9.144  14.419  68.275  1.00  0.00    -0.193 C  
HETATM   18  O   UNL     3      -8.691  14.905  66.955  1.00  0.00    -0.210 OA 
HETATM   19  H   UNL     3      -9.219  14.511  66.271  1.00  0.00     0.000 HD 
BRANCH  17  20
HETATM   20  C   UNL     3     -10.667  14.514  68.447  1.00  0.00    -0.243 C  
HETATM   21  C   UNL     3     -11.083  15.938  67.999  1.00  0.00    -0.334 C  
HETATM   22  O   UNL     3     -10.991  14.189  69.829  1.00  0.00    -0.432 OA 
HETATM   23  O   UNL     3     -10.650  16.198  66.817  1.00  0.00    -0.309 OA 
HETATM   24  O   UNL     3     -11.645  16.688  68.823  1.00  0.00    -0.178 OA 
HETATM   25  H   UNL     3     -11.934  14.247  69.936  1.00  0.00     0.000 HD 
ENDBRANCH  17  20
ENDBRANCH   7  17
TORSDOF 4
ENDMDL
MODEL      213
REMARK 921   NORMALIZED FREE ENERGY PREDICTED BY IDOCK:   -1.90 KCAL/MOL
REMARK 922        TOTAL FREE ENERGY PREDICTED BY IDOCK:   -3.53 KCAL/MOL
REMARK 923 INTER-LIGAND FREE ENERGY PREDICTED BY IDOCK:   -3.62 KCAL/MOL
REMARK 924 INTRA-LIGAND FREE ENERGY PREDICTED BY IDOCK:    0.09 KCAL/MOL
REMARK 927      BINDING AFFINITY PREDICTED BY RF-SCORE:    0.00 PKD
ROOT
HETATM    1 CA   UNL     1     -11.923   6.430  69.676  1.00  0.00    -0.351 Ca 
HETATM    2  O   UNL     2     -11.609   8.726  71.262  1.00  0.00    -0.265 OA 
HETATM    3  O   UNL     3      -9.749   2.642  67.714  1.00  0.00    -0.344 OA 
HETATM    4  C   UNL     2     -10.484   8.408  72.147  1.00  0.00    -0.326 C  
HETATM    5  H   UNL     2     -12.065   9.426  71.713  1.00  0.00     0.000 HD 
HETATM    6  H   UNL     3      -9.892   1.704  67.658  1.00  0.00     0.000 HD 
HETATM    7  C   UNL     3      -9.453   3.050  69.044  1.00  0.00    -0.101 C  
ENDROOT
BRANCH   4   8
HETATM    8  C   UNL     2      -9.756   7.290  71.427  1.00  0.00    -0.164 C  
HETATM    9  H   UNL     2      -9.675   6.695  69.571  1.00  0.00     0.000 HD 
HETATM   10  O   UNL     2     -10.131   7.396  70.021  1.00  0.00    -0.187 OA 
BRANCH   8  11
HETATM   11  C   UNL     2      -9.875   5.898  72.007  1.00  0.00    -0.157 C  
HETATM   12  O   UNL     2     -11.449   4.636  73.264  1.00  0.00    -0.320 OA 
HETATM   13  H   UNL     2      -8.906   4.888  73.362  1.00  0.00     0.000 HD 
HETATM   14  O   UNL     2     -12.169   6.384  71.950  1.00  0.00    -0.346 OA 
HETATM   15  O   UNL     2      -8.832   5.762  72.998  1.00  0.00    -0.124 OA 
HETATM   16  C   UNL     2     -11.305   5.617  72.506  1.00  0.00    -0.294 C  
ENDBRANCH   8  11
ENDBRANCH   4   8
BRANCH   7  17
HETATM   17  C   UNL     3      -9.221   4.566  69.135  1.00  0.00    -0.134 C  
HETATM   18  O   UNL     3     -10.152   5.267  68.225  1.00  0.00    -0.165 OA 
HETATM   19  H   UNL     3     -10.009   6.204  68.281  1.00  0.00     0.000 HD 
BRANCH  17  20
HETATM   20  C   UNL     3      -7.772   5.046  68.978  1.00  0.00    -0.080 C  
HETATM   21  C   UNL     3      -7.317   4.647  67.551  1.00  0.00    -0.074 C  
HETATM   22  O   UNL     3      -6.981   4.468  70.056  1.00  0.00    -0.043 OA 
HETATM   23  O   UNL     3      -8.135   5.087  66.664  1.00  0.00    -0.107 OA 
HETATM   24  O   UNL     3      -6.340   3.882  67.423  1.00  0.00    -0.035 OA 
HETATM   25  H   UNL     3      -6.083   4.765  69.960  1.00  0.00     0.000 HD 
ENDBRANCH  17  20
ENDBRANCH   7  17
TORSDOF 4
ENDMDL
MODEL      214
REMARK 921   NORMALIZED FREE ENERGY PREDICTED BY IDOCK:   -1.90 KCAL/MOL
REMARK 922        TOTAL FREE ENERGY PREDICTED BY IDOCK:   -3.53 KCAL/MOL
REMARK 923 INTER-LIGAND FREE ENERGY PREDICTED BY IDOCK:   -3.34 KCAL/MOL
REMARK 924 INTRA-LIGAND FREE ENERGY PREDICTED BY IDOCK:   -0.19 KCAL/MOL
REMARK 927      BINDING AFFINITY PREDICTED BY RF-SCORE:    0.00 PKD
ROOT
HETATM    1 CA   UNL     1      -7.549   9.215  71.326  1.00  0.00    -0.084 Ca 
HETATM    2  O   UNL     2      -6.008   6.946  70.725  1.00  0.00    -0.027 OA 
HETATM    3  O   UNL     3     -11.048  12.132  69.851  1.00  0.00    -0.469 OA 
HETATM    4  C   UNL     2      -6.877   6.129  69.873  1.00  0.00    -0.058 C  
HETATM    5  H   UNL     2      -5.372   6.328  71.064  1.00  0.00     0.000 HD 
HETATM    6  H   UNL     3     -11.847  12.503  70.208  1.00  0.00     0.000 HD 
HETATM    7  C   UNL     3     -11.150  10.724  69.688  1.00  0.00    -0.279 C  
ENDROOT
BRANCH   4   8
HETATM    8  C   UNL     2      -7.893   7.116  69.332  1.00  0.00    -0.113 C  
HETATM    9  H   UNL     2      -9.408   8.068  70.108  1.00  0.00     0.000 HD 
HETATM   10  O   UNL     2      -8.772   7.450  70.447  1.00  0.00    -0.142 OA 
BRANCH   8  11
HETATM   11  C   UNL     2      -8.612   6.742  68.055  1.00  0.00    -0.122 C  
HETATM   12  O   UNL     2      -9.733   4.853  67.145  1.00  0.00    -0.151 OA 
HETATM   13  H   UNL     2      -8.088   6.560  66.187  1.00  0.00     0.000 HD 
HETATM   14  O   UNL     2      -9.602   5.119  69.429  1.00  0.00    -0.135 OA 
HETATM   15  O   UNL     2      -7.636   6.795  66.989  1.00  0.00    -0.092 OA 
HETATM   16  C   UNL     2      -9.362   5.404  68.202  1.00  0.00    -0.114 C  
ENDBRANCH   8  11
ENDBRANCH   4   8
BRANCH   7  17
HETATM   17  C   UNL     3      -9.858  10.124  69.110  1.00  0.00    -0.214 C  
HETATM   18  O   UNL     3      -8.703  10.548  69.930  1.00  0.00    -0.373 OA 
HETATM   19  H   UNL     3      -7.905  10.177  69.573  1.00  0.00     0.000 HD 
BRANCH  17  20
HETATM   20  C   UNL     3      -9.621  10.330  67.607  1.00  0.00    -0.152 C  
HETATM   21  C   UNL     3      -9.621  11.860  67.358  1.00  0.00    -0.174 C  
HETATM   22  O   UNL     3     -10.643   9.592  66.879  1.00  0.00    -0.231 OA 
HETATM   23  O   UNL     3      -8.783  12.456  68.128  1.00  0.00    -0.179 OA 
HETATM   24  O   UNL     3     -10.468  12.343  66.579  1.00  0.00    -0.227 OA 
HETATM   25  H   UNL     3     -10.497   9.719  65.949  1.00  0.00     0.000 HD 
ENDBRANCH  17  20
ENDBRANCH   7  17
TORSDOF 4
ENDMDL
MODEL      215
REMARK 921   NORMALIZED FREE ENERGY PREDICTED BY IDOCK:   -1.90 KCAL/MOL
REMARK 922        TOTAL FREE ENERGY PREDICTED BY IDOCK:   -3.52 KCAL/MOL
REMARK 923 INTER-LIGAND FREE ENERGY PREDICTED BY IDOCK:   -3.67 KCAL/MOL
REMARK 924 INTRA-LIGAND FREE ENERGY PREDICTED BY IDOCK:    0.14 KCAL/MOL
REMARK 927      BINDING AFFINITY PREDICTED BY RF-SCORE:    0.00 PKD
ROOT
HETATM    1 CA   UNL     1     -12.128  11.170  66.132  1.00  0.00    -0.080 Ca 
HETATM    2  O   UNL     2     -12.979  13.832  65.854  1.00  0.00    -0.407 OA 
HETATM    3  O   UNL     3      -8.490   8.273  67.272  1.00  0.00    -0.122 OA 
HETATM    4  C   UNL     2     -12.155  14.581  66.807  1.00  0.00    -0.288 C  
HETATM    5  H   UNL     2     -13.729  14.395  65.706  1.00  0.00     0.000 HD 
HETATM    6  H   UNL     3      -8.345   7.519  67.831  1.00  0.00     0.000 HD 
HETATM    7  C   UNL     3      -8.759   9.445  68.030  1.00  0.00    -0.124 C  
ENDROOT
BRANCH   4   8
HETATM    8  C   UNL     2     -10.958  13.681  67.043  1.00  0.00    -0.289 C  
HETATM    9  H   UNL     2     -10.130  12.912  68.634  1.00  0.00     0.000 HD 
HETATM   10  O   UNL     2     -10.880  13.475  68.486  1.00  0.00    -0.248 OA 
BRANCH   8  11
HETATM   11  C   UNL     2      -9.652  14.079  66.393  1.00  0.00    -0.283 C  
HETATM   12  O   UNL     2      -8.160  15.930  66.410  1.00  0.00    -0.265 OA 
HETATM   13  H   UNL     2      -9.077  14.417  64.563  1.00  0.00     0.000 HD 
HETATM   14  O   UNL     2      -9.513  15.531  68.230  1.00  0.00    -0.196 OA 
HETATM   15  O   UNL     2      -9.897  14.168  64.971  1.00  0.00    -0.250 OA 
HETATM   16  C   UNL     2      -9.060  15.343  67.045  1.00  0.00    -0.227 C  
ENDBRANCH   8  11
ENDBRANCH   4   8
BRANCH   7  17
HETATM   17  C   UNL     3      -8.993  10.666  67.126  1.00  0.00    -0.136 C  
HETATM   18  O   UNL     3     -10.056  10.361  66.144  1.00  0.00    -0.222 OA 
HETATM   19  H   UNL     3     -10.201  11.115  65.585  1.00  0.00     0.000 HD 
BRANCH  17  20
HETATM   20  C   UNL     3      -7.748  11.282  66.474  1.00  0.00    -0.125 C  
HETATM   21  C   UNL     3      -7.047  10.148  65.682  1.00  0.00    -0.133 C  
HETATM   22  O   UNL     3      -6.936  11.887  67.521  1.00  0.00    -0.101 OA 
HETATM   23  O   UNL     3      -7.863   9.578  64.869  1.00  0.00    -0.110 OA 
HETATM   24  O   UNL     3      -5.878   9.837  65.983  1.00  0.00    -0.058 OA 
HETATM   25  H   UNL     3      -6.165  12.269  67.118  1.00  0.00     0.000 HD 
ENDBRANCH  17  20
ENDBRANCH   7  17
TORSDOF 4
ENDMDL
MODEL      216
REMARK 921   NORMALIZED FREE ENERGY PREDICTED BY IDOCK:   -1.86 KCAL/MOL
REMARK 922        TOTAL FREE ENERGY PREDICTED BY IDOCK:   -3.48 KCAL/MOL
REMARK 923 INTER-LIGAND FREE ENERGY PREDICTED BY IDOCK:   -3.44 KCAL/MOL
REMARK 924 INTRA-LIGAND FREE ENERGY PREDICTED BY IDOCK:   -0.03 KCAL/MOL
REMARK 927      BINDING AFFINITY PREDICTED BY RF-SCORE:    0.00 PKD
ROOT
HETATM    1 CA   UNL     1      -7.652   3.855  71.652  1.00  0.00    -0.045 Ca 
HETATM    2  O   UNL     2      -9.185   2.238  73.361  1.00  0.00    -0.078 OA 
HETATM    3  O   UNL     3      -7.742   7.122  68.152  1.00  0.00    -0.111 OA 
HETATM    4  C   UNL     2     -10.439   2.976  73.535  1.00  0.00    -0.160 C  
HETATM    5  H   UNL     2      -9.156   1.654  74.109  1.00  0.00     0.000 HD 
HETATM    6  H   UNL     3      -7.342   7.964  67.971  1.00  0.00     0.000 HD 
HETATM    7  C   UNL     3      -8.646   7.195  69.247  1.00  0.00    -0.137 C  
ENDROOT
BRANCH   4   8
HETATM    8  C   UNL     2     -10.485   3.909  72.341  1.00  0.00    -0.071 C  
HETATM    9  H   UNL     2      -9.496   4.016  70.662  1.00  0.00     0.000 HD 
HETATM   10  O   UNL     2      -9.468   3.432  71.410  1.00  0.00    -0.129 OA 
BRANCH   8  11
HETATM   11  C   UNL     2     -10.435   5.394  72.619  1.00  0.00    -0.217 C  
HETATM   12  O   UNL     2      -9.568   6.854  74.284  1.00  0.00    -0.241 OA 
HETATM   13  H   UNL     2     -11.768   6.768  72.983  1.00  0.00     0.000 HD 
HETATM   14  O   UNL     2      -8.600   4.791  73.949  1.00  0.00    -0.103 OA 
HETATM   15  O   UNL     2     -11.799   5.834  72.809  1.00  0.00    -0.237 OA 
HETATM   16  C   UNL     2      -9.467   5.720  73.772  1.00  0.00    -0.140 C  
ENDBRANCH   8  11
ENDBRANCH   4   8
BRANCH   7  17
HETATM   17  C   UNL     3      -9.294   5.833  69.541  1.00  0.00    -0.130 C  
HETATM   18  O   UNL     3      -8.344   4.749  69.215  1.00  0.00    -0.080 OA 
HETATM   19  H   UNL     3      -8.744   3.907  69.396  1.00  0.00     0.000 HD 
BRANCH  17  20
HETATM   20  C   UNL     3     -10.687   5.596  68.941  1.00  0.00    -0.209 C  
HETATM   21  C   UNL     3     -10.563   5.821  67.412  1.00  0.00    -0.265 C  
HETATM   22  O   UNL     3     -11.631   6.477  69.614  1.00  0.00    -0.568 OA 
HETATM   23  O   UNL     3      -9.624   5.101  66.912  1.00  0.00    -0.130 OA 
HETATM   24  O   UNL     3     -11.252   6.714  66.877  1.00  0.00    -0.391 OA 
HETATM   25  H   UNL     3     -12.493   6.331  69.243  1.00  0.00     0.000 HD 
ENDBRANCH  17  20
ENDBRANCH   7  17
TORSDOF 4
ENDMDL
MODEL      217
REMARK 921   NORMALIZED FREE ENERGY PREDICTED BY IDOCK:   -1.86 KCAL/MOL
REMARK 922        TOTAL FREE ENERGY PREDICTED BY IDOCK:   -3.47 KCAL/MOL
REMARK 923 INTER-LIGAND FREE ENERGY PREDICTED BY IDOCK:   -3.91 KCAL/MOL
REMARK 924 INTRA-LIGAND FREE ENERGY PREDICTED BY IDOCK:    0.44 KCAL/MOL
REMARK 927      BINDING AFFINITY PREDICTED BY RF-SCORE:    0.00 PKD
ROOT
HETATM    1 CA   UNL     1      -8.988   9.627  70.378  1.00  0.00    -0.149 Ca 
HETATM    2  O   UNL     2      -9.009   8.733  73.040  1.00  0.00    -0.309 OA 
HETATM    3  O   UNL     3      -9.633   8.422  65.789  1.00  0.00    -0.438 OA 
HETATM    4  C   UNL     2      -9.975   7.631  73.048  1.00  0.00    -0.285 C  
HETATM    5  H   UNL     2      -8.959   9.002  73.949  1.00  0.00     0.000 HD 
HETATM    6  H   UNL     3     -10.110   8.756  65.038  1.00  0.00     0.000 HD 
HETATM    7  C   UNL     3     -10.511   7.949  66.802  1.00  0.00    -0.247 C  
ENDROOT
BRANCH   4   8
HETATM    8  C   UNL     2     -10.055   7.202  71.596  1.00  0.00    -0.185 C  
HETATM    9  H   UNL     2     -10.829   7.989  69.988  1.00  0.00     0.000 HD 
HETATM   10  O   UNL     2     -10.779   8.258  70.897  1.00  0.00    -0.211 OA 
BRANCH   8  11
HETATM   11  C   UNL     2     -10.553   5.803  71.312  1.00  0.00    -0.257 C  
HETATM   12  O   UNL     2      -9.641   3.686  70.727  1.00  0.00    -0.161 OA 
HETATM   13  H   UNL     2     -11.693   5.001  69.951  1.00  0.00     0.000 HD 
HETATM   14  O   UNL     2      -8.348   5.218  71.860  1.00  0.00    -0.119 OA 
HETATM   15  O   UNL     2     -11.379   5.880  70.129  1.00  0.00    -0.338 OA 
HETATM   16  C   UNL     2      -9.390   4.794  71.244  1.00  0.00    -0.148 C  
ENDBRANCH   8  11
ENDBRANCH   4   8
BRANCH   7  17
HETATM   17  C   UNL     3      -9.739   7.408  68.016  1.00  0.00    -0.144 C  
HETATM   18  O   UNL     3      -9.064   8.523  68.713  1.00  0.00    -0.142 OA 
HETATM   19  H   UNL     3      -8.587   8.189  69.463  1.00  0.00     0.000 HD 
BRANCH  17  20
HETATM   20  C   UNL     3      -8.801   6.222  67.756  1.00  0.00    -0.111 C  
HETATM   21  C   UNL     3      -9.689   5.040  67.289  1.00  0.00    -0.162 C  
HETATM   22  O   UNL     3      -8.036   5.969  68.969  1.00  0.00    -0.105 OA 
HETATM   23  O   UNL     3     -10.428   5.380  66.293  1.00  0.00    -0.243 OA 
HETATM   24  O   UNL     3      -9.694   3.988  67.960  1.00  0.00    -0.154 OA 
HETATM   25  H   UNL     3      -7.455   5.234  68.808  1.00  0.00     0.000 HD 
ENDBRANCH  17  20
ENDBRANCH   7  17
TORSDOF 4
ENDMDL
MODEL      218
REMARK 921   NORMALIZED FREE ENERGY PREDICTED BY IDOCK:   -1.85 KCAL/MOL
REMARK 922        TOTAL FREE ENERGY PREDICTED BY IDOCK:   -3.47 KCAL/MOL
REMARK 923 INTER-LIGAND FREE ENERGY PREDICTED BY IDOCK:   -3.36 KCAL/MOL
REMARK 924 INTRA-LIGAND FREE ENERGY PREDICTED BY IDOCK:   -0.10 KCAL/MOL
REMARK 927      BINDING AFFINITY PREDICTED BY RF-SCORE:    0.00 PKD
ROOT
HETATM    1 CA   UNL     1      -8.225   4.972  71.486  1.00  0.00    -0.091 Ca 
HETATM    2  O   UNL     2     -10.231   4.985  73.451  1.00  0.00    -0.162 OA 
HETATM    3  O   UNL     3      -7.251   5.399  66.817  1.00  0.00    -0.075 OA 
HETATM    4  C   UNL     2     -11.275   5.855  72.903  1.00  0.00    -0.253 C  
HETATM    5  H   UNL     2     -10.402   4.981  74.386  1.00  0.00     0.000 HD 
HETATM    6  H   UNL     3      -6.643   5.883  66.271  1.00  0.00     0.000 HD 
HETATM    7  C   UNL     3      -8.187   6.259  67.453  1.00  0.00    -0.109 C  
ENDROOT
BRANCH   4   8
HETATM    8  C   UNL     2     -11.001   5.862  71.412  1.00  0.00    -0.263 C  
HETATM    9  H   UNL     2      -9.927   4.749  70.223  1.00  0.00     0.000 HD 
HETATM   10  O   UNL     2     -10.098   4.745  71.157  1.00  0.00    -0.197 OA 
BRANCH   8  11
HETATM   11  C   UNL     2     -10.572   7.172  70.791  1.00  0.00    -0.222 C  
HETATM   12  O   UNL     2      -9.144   8.998  71.325  1.00  0.00    -0.235 OA 
HETATM   13  H   UNL     2     -11.482   8.824  70.303  1.00  0.00     0.000 HD 
HETATM   14  O   UNL     2      -8.737   6.920  72.231  1.00  0.00    -0.126 OA 
HETATM   15  O   UNL     2     -11.752   8.001  70.693  1.00  0.00    -0.254 OA 
HETATM   16  C   UNL     2      -9.386   7.795  71.553  1.00  0.00    -0.137 C  
ENDBRANCH   8  11
ENDBRANCH   4   8
BRANCH   7  17
HETATM   17  C   UNL     3      -9.171   5.475  68.337  1.00  0.00    -0.112 C  
HETATM   18  O   UNL     3      -8.474   4.333  68.964  1.00  0.00    -0.080 OA 
HETATM   19  H   UNL     3      -9.081   3.848  69.510  1.00  0.00     0.000 HD 
BRANCH  17  20
HETATM   20  C   UNL     3     -10.500   5.069  67.685  1.00  0.00    -0.005 C  
HETATM   21  C   UNL     3     -10.148   4.315  66.377  1.00  0.00    -0.152 C  
HETATM   22  O   UNL     3     -11.304   6.269  67.501  1.00  0.00    -0.600 OA 
HETATM   23  O   UNL     3      -9.334   3.347  66.604  1.00  0.00    -0.174 OA 
HETATM   24  O   UNL     3     -10.559   4.770  65.291  1.00  0.00    -0.114 OA 
HETATM   25  H   UNL     3     -12.127   6.018  67.098  1.00  0.00     0.000 HD 
ENDBRANCH  17  20
ENDBRANCH   7  17
TORSDOF 4
ENDMDL
MODEL      219
REMARK 921   NORMALIZED FREE ENERGY PREDICTED BY IDOCK:   -1.85 KCAL/MOL
REMARK 922        TOTAL FREE ENERGY PREDICTED BY IDOCK:   -3.46 KCAL/MOL
REMARK 923 INTER-LIGAND FREE ENERGY PREDICTED BY IDOCK:   -3.48 KCAL/MOL
REMARK 924 INTRA-LIGAND FREE ENERGY PREDICTED BY IDOCK:    0.02 KCAL/MOL
REMARK 927      BINDING AFFINITY PREDICTED BY RF-SCORE:    0.00 PKD
ROOT
HETATM    1 CA   UNL     1     -11.536   8.453  71.349  1.00  0.00    -0.245 Ca 
HETATM    2  O   UNL     2     -12.679  10.364  69.638  1.00  0.00    -0.619 OA 
HETATM    3  O   UNL     3      -8.028   5.245  71.924  1.00  0.00    -0.108 OA 
HETATM    4  C   UNL     2     -11.557  10.850  68.831  1.00  0.00    -0.309 C  
HETATM    5  H   UNL     2     -13.328  11.054  69.569  1.00  0.00     0.000 HD 
HETATM    6  H   UNL     3      -7.381   5.026  72.584  1.00  0.00     0.000 HD 
HETATM    7  C   UNL     3      -7.772   6.514  71.336  1.00  0.00    -0.099 C  
ENDROOT
BRANCH   4   8
HETATM    8  C   UNL     2     -10.521   9.750  68.943  1.00  0.00    -0.214 C  
HETATM    9  H   UNL     2      -8.881   9.526  69.977  1.00  0.00     0.000 HD 
HETATM   10  O   UNL     2      -9.530  10.216  69.907  1.00  0.00    -0.204 OA 
BRANCH   8  11
HETATM   11  C   UNL     2      -9.939   9.211  67.655  1.00  0.00    -0.195 C  
HETATM   12  O   UNL     2      -9.231  10.053  65.547  1.00  0.00    -0.170 OA 
HETATM   13  H   UNL     2     -10.566   7.994  66.269  1.00  0.00     0.000 HD 
HETATM   14  O   UNL     2      -9.213  11.426  67.394  1.00  0.00    -0.161 OA 
HETATM   15  O   UNL     2     -10.931   8.333  67.077  1.00  0.00    -0.134 OA 
HETATM   16  C   UNL     2      -9.447  10.349  66.740  1.00  0.00    -0.166 C  
ENDBRANCH   8  11
ENDBRANCH   4   8
BRANCH   7  17
HETATM   17  C   UNL     3      -8.819   6.867  70.268  1.00  0.00    -0.148 C  
HETATM   18  O   UNL     3     -10.173   6.565  70.778  1.00  0.00    -0.184 OA 
HETATM   19  H   UNL     3     -10.820   6.783  70.118  1.00  0.00     0.000 HD 
BRANCH  17  20
HETATM   20  C   UNL     3      -8.579   6.298  68.862  1.00  0.00    -0.125 C  
HETATM   21  C   UNL     3      -8.552   4.755  69.000  1.00  0.00    -0.080 C  
HETATM   22  O   UNL     3      -7.355   6.886  68.335  1.00  0.00    -0.088 OA 
HETATM   23  O   UNL     3      -9.609   4.323  69.589  1.00  0.00    -0.175 OA 
HETATM   24  O   UNL     3      -7.520   4.138  68.665  1.00  0.00    -0.055 OA 
HETATM   25  H   UNL     3      -7.206   6.535  67.465  1.00  0.00     0.000 HD 
ENDBRANCH  17  20
ENDBRANCH   7  17
TORSDOF 4
ENDMDL
MODEL      220
REMARK 921   NORMALIZED FREE ENERGY PREDICTED BY IDOCK:   -1.85 KCAL/MOL
REMARK 922        TOTAL FREE ENERGY PREDICTED BY IDOCK:   -3.46 KCAL/MOL
REMARK 923 INTER-LIGAND FREE ENERGY PREDICTED BY IDOCK:   -3.74 KCAL/MOL
REMARK 924 INTRA-LIGAND FREE ENERGY PREDICTED BY IDOCK:    0.28 KCAL/MOL
REMARK 927      BINDING AFFINITY PREDICTED BY RF-SCORE:    0.00 PKD
ROOT
HETATM    1 CA   UNL     1     -10.332   9.846  68.267  1.00  0.00    -0.156 Ca 
HETATM    2  O   UNL     2      -9.810   9.071  65.619  1.00  0.00    -0.461 OA 
HETATM    3  O   UNL     3     -10.674   8.409  72.822  1.00  0.00    -0.307 OA 
HETATM    4  C   UNL     2      -8.906   7.924  65.745  1.00  0.00    -0.119 C  
HETATM    5  H   UNL     2      -9.664   9.382  64.734  1.00  0.00     0.000 HD 
HETATM    6  H   UNL     3     -10.346   8.685  73.669  1.00  0.00     0.000 HD 
HETATM    7  C   UNL     3      -9.629   7.938  71.981  1.00  0.00    -0.186 C  
ENDROOT
BRANCH   4   8
HETATM    8  C   UNL     2      -9.138   7.428  67.159  1.00  0.00    -0.130 C  
HETATM    9  H   UNL     2      -8.420   7.917  68.905  1.00  0.00     0.000 HD 
HETATM   10  O   UNL     2      -8.274   8.228  68.020  1.00  0.00    -0.125 OA 
BRANCH   8  11
HETATM   11  C   UNL     2      -9.052   5.936  67.393  1.00  0.00    -0.110 C  
HETATM   12  O   UNL     2      -7.596   4.140  66.839  1.00  0.00    -0.082 OA 
HETATM   13  H   UNL     2     -10.140   4.402  66.885  1.00  0.00     0.000 HD 
HETATM   14  O   UNL     2      -6.777   6.289  66.948  1.00  0.00    -0.056 OA 
HETATM   15  O   UNL     2     -10.194   5.339  66.737  1.00  0.00    -0.195 OA 
HETATM   16  C   UNL     2      -7.679   5.378  66.974  1.00  0.00    -0.100 C  
ENDBRANCH   8  11
ENDBRANCH   4   8
BRANCH   7  17
HETATM   17  C   UNL     3     -10.161   7.490  70.610  1.00  0.00    -0.202 C  
HETATM   18  O   UNL     3     -10.827   8.627  69.939  1.00  0.00    -0.236 OA 
HETATM   19  H   UNL     3     -11.155   8.351  69.092  1.00  0.00     0.000 HD 
BRANCH  17  20
HETATM   20  C   UNL     3     -11.013   6.214  70.591  1.00  0.00    -0.311 C  
HETATM   21  C   UNL     3     -10.051   5.026  70.850  1.00  0.00    -0.232 C  
HETATM   22  O   UNL     3     -11.725   6.158  69.322  1.00  0.00    -0.384 OA 
HETATM   23  O   UNL     3      -9.366   5.210  71.922  1.00  0.00    -0.139 OA 
HETATM   24  O   UNL     3      -9.950   4.134  69.985  1.00  0.00    -0.213 OA 
HETATM   25  H   UNL     3     -12.253   5.368  69.310  1.00  0.00     0.000 HD 
ENDBRANCH  17  20
ENDBRANCH   7  17
TORSDOF 4
ENDMDL
MODEL      221
REMARK 921   NORMALIZED FREE ENERGY PREDICTED BY IDOCK:   -1.84 KCAL/MOL
REMARK 922        TOTAL FREE ENERGY PREDICTED BY IDOCK:   -3.45 KCAL/MOL
REMARK 923 INTER-LIGAND FREE ENERGY PREDICTED BY IDOCK:   -3.42 KCAL/MOL
REMARK 924 INTRA-LIGAND FREE ENERGY PREDICTED BY IDOCK:   -0.02 KCAL/MOL
REMARK 927      BINDING AFFINITY PREDICTED BY RF-SCORE:    0.00 PKD
ROOT
HETATM    1 CA   UNL     1     -10.937   7.216  68.231  1.00  0.00    -0.193 Ca 
HETATM    2  O   UNL     2      -9.251   5.894  66.416  1.00  0.00    -0.143 OA 
HETATM    3  O   UNL     3     -12.067   7.861  72.840  1.00  0.00    -0.617 OA 
HETATM    4  C   UNL     2      -8.014   5.663  67.167  1.00  0.00    -0.102 C  
HETATM    5  H   UNL     2      -8.982   5.837  65.507  1.00  0.00     0.000 HD 
HETATM    6  H   UNL     3     -12.217   8.592  73.427  1.00  0.00     0.000 HD 
HETATM    7  C   UNL     3     -10.711   7.794  72.420  1.00  0.00    -0.290 C  
ENDROOT
BRANCH   4   8
HETATM    8  C   UNL     2      -8.443   5.754  68.618  1.00  0.00    -0.107 C  
HETATM    9  H   UNL     2      -7.719   6.645  70.195  1.00  0.00     0.000 HD 
HETATM   10  O   UNL     2      -7.450   6.588  69.286  1.00  0.00    -0.090 OA 
BRANCH   8  11
HETATM   11  C   UNL     2      -8.760   4.459  69.331  1.00  0.00    -0.086 C  
HETATM   12  O   UNL     2      -7.698   2.377  69.770  1.00  0.00    -0.043 OA 
HETATM   13  H   UNL     2     -10.071   3.040  69.082  1.00  0.00     0.000 HD 
HETATM   14  O   UNL     2      -6.424   4.257  69.390  1.00  0.00    -0.031 OA 
HETATM   15  O   UNL     2      -9.872   3.853  68.634  1.00  0.00    -0.098 OA 
HETATM   16  C   UNL     2      -7.506   3.575  69.476  1.00  0.00    -0.048 C  
ENDBRANCH   8  11
ENDBRANCH   4   8
BRANCH   7  17
HETATM   17  C   UNL     3     -10.468   6.611  71.469  1.00  0.00    -0.215 C  
HETATM   18  O   UNL     3     -11.668   6.388  70.635  1.00  0.00    -0.373 OA 
HETATM   19  H   UNL     3     -11.518   5.658  70.047  1.00  0.00     0.000 HD 
BRANCH  17  20
HETATM   20  C   UNL     3      -9.946   5.316  72.108  1.00  0.00    -0.184 C  
HETATM   21  C   UNL     3     -10.922   4.957  73.258  1.00  0.00    -0.320 C  
HETATM   22  O   UNL     3      -8.568   5.535  72.523  1.00  0.00    -0.121 OA 
HETATM   23  O   UNL     3     -12.136   4.908  72.838  1.00  0.00    -0.099 OA 
HETATM   24  O   UNL     3     -10.480   4.885  74.422  1.00  0.00    -0.264 OA 
HETATM   25  H   UNL     3      -8.244   4.734  72.918  1.00  0.00     0.000 HD 
ENDBRANCH  17  20
ENDBRANCH   7  17
TORSDOF 4
ENDMDL
MODEL      222
REMARK 921   NORMALIZED FREE ENERGY PREDICTED BY IDOCK:   -1.81 KCAL/MOL
REMARK 922        TOTAL FREE ENERGY PREDICTED BY IDOCK:   -3.41 KCAL/MOL
REMARK 923 INTER-LIGAND FREE ENERGY PREDICTED BY IDOCK:   -3.20 KCAL/MOL
REMARK 924 INTRA-LIGAND FREE ENERGY PREDICTED BY IDOCK:   -0.21 KCAL/MOL
REMARK 927      BINDING AFFINITY PREDICTED BY RF-SCORE:    0.00 PKD
ROOT
HETATM    1 CA   UNL     1     -12.473   5.333  71.959  1.00  0.00    -0.060 Ca 
HETATM    2  O   UNL     2     -14.168   7.287  70.867  1.00  0.00    -0.538 OA 
HETATM    3  O   UNL     3      -8.110   4.394  73.693  1.00  0.00    -0.092 OA 
HETATM    4  C   UNL     2     -13.683   8.549  71.432  1.00  0.00    -0.241 C  
HETATM    5  H   UNL     2     -15.060   7.482  70.603  1.00  0.00     0.000 HD 
HETATM    6  H   UNL     3      -7.737   3.976  74.461  1.00  0.00     0.000 HD 
HETATM    7  C   UNL     3      -8.789   5.598  74.028  1.00  0.00    -0.119 C  
ENDROOT
BRANCH   4   8
HETATM    8  C   UNL     2     -12.260   8.239  71.854  1.00  0.00    -0.337 C  
HETATM    9  H   UNL     2     -11.044   8.988  73.183  1.00  0.00     0.000 HD 
HETATM   10  O   UNL     2     -11.935   9.182  72.919  1.00  0.00     0.273 OA 
BRANCH   8  11
HETATM   11  C   UNL     2     -11.218   8.138  70.763  1.00  0.00    -0.261 C  
HETATM   12  O   UNL     2     -10.634   9.288  68.765  1.00  0.00    -0.217 OA 
HETATM   13  H   UNL     2     -10.778   6.815  69.403  1.00  0.00     0.000 HD 
HETATM   14  O   UNL     2     -11.755  10.399  70.442  1.00  0.00    -0.280 OA 
HETATM   15  O   UNL     2     -11.433   6.879  70.088  1.00  0.00    -0.312 OA 
HETATM   16  C   UNL     2     -11.227   9.386  69.859  1.00  0.00    -0.155 C  
ENDBRANCH   8  11
ENDBRANCH   4   8
BRANCH   7  17
HETATM   17  C   UNL     3      -9.392   6.274  72.786  1.00  0.00    -0.144 C  
HETATM   18  O   UNL     3      -9.505   5.289  71.689  1.00  0.00    -0.145 OA 
HETATM   19  H   UNL     3      -9.878   5.707  70.922  1.00  0.00     0.000 HD 
BRANCH  17  20
HETATM   20  C   UNL     3      -8.733   7.585  72.335  1.00  0.00    -0.123 C  
HETATM   21  C   UNL     3      -7.216   7.302  72.195  1.00  0.00    -0.068 C  
HETATM   22  O   UNL     3      -9.075   8.622  73.298  1.00  0.00    -0.246 OA 
HETATM   23  O   UNL     3      -7.001   6.292  71.429  1.00  0.00    -0.071 OA 
HETATM   24  O   UNL     3      -6.414   7.955  72.893  1.00  0.00    -0.063 OA 
HETATM   25  H   UNL     3      -8.668   9.434  73.019  1.00  0.00     0.000 HD 
ENDBRANCH  17  20
ENDBRANCH   7  17
TORSDOF 4
ENDMDL
MODEL      223
REMARK 921   NORMALIZED FREE ENERGY PREDICTED BY IDOCK:   -1.78 KCAL/MOL
REMARK 922        TOTAL FREE ENERGY PREDICTED BY IDOCK:   -3.37 KCAL/MOL
REMARK 923 INTER-LIGAND FREE ENERGY PREDICTED BY IDOCK:   -3.65 KCAL/MOL
REMARK 924 INTRA-LIGAND FREE ENERGY PREDICTED BY IDOCK:    0.28 KCAL/MOL
REMARK 927      BINDING AFFINITY PREDICTED BY RF-SCORE:    0.00 PKD
ROOT
HETATM    1 CA   UNL     1      -8.919  12.560  64.807  1.00  0.00    -0.409 Ca 
HETATM    2  O   UNL     2      -8.732  14.788  66.506  1.00  0.00    -0.405 OA 
HETATM    3  O   UNL     3      -8.467   7.807  64.442  1.00  0.00    -0.364 OA 
HETATM    4  C   UNL     2      -9.020  14.255  67.840  1.00  0.00    -0.186 C  
HETATM    5  H   UNL     2      -8.904  15.718  66.587  1.00  0.00     0.000 HD 
HETATM    6  H   UNL     3      -8.977   7.079  64.107  1.00  0.00     0.000 HD 
HETATM    7  C   UNL     3      -9.081   8.400  65.579  1.00  0.00    -0.049 C  
ENDROOT
BRANCH   4   8
HETATM    8  C   UNL     2      -8.746  12.770  67.710  1.00  0.00    -0.184 C  
HETATM    9  H   UNL     2      -7.631  11.693  66.525  1.00  0.00     0.000 HD 
HETATM   10  O   UNL     2      -7.803  12.624  66.606  1.00  0.00     0.081 OA 
BRANCH   8  11
HETATM   11  C   UNL     2      -9.942  11.847  67.642  1.00  0.00    -0.189 C  
HETATM   12  O   UNL     2     -12.254  11.985  67.107  1.00  0.00    -0.505 OA 
HETATM   13  H   UNL     2     -10.934  10.789  68.942  1.00  0.00     0.000 HD 
HETATM   14  O   UNL     2     -10.776  13.505  66.208  1.00  0.00    -0.284 OA 
HETATM   15  O   UNL     2     -10.184  11.369  68.985  1.00  0.00    -0.193 OA 
HETATM   16  C   UNL     2     -11.141  12.527  66.954  1.00  0.00    -0.278 C  
ENDBRANCH   8  11
ENDBRANCH   4   8
BRANCH   7  17
HETATM   17  C   UNL     3      -8.255   9.577  66.122  1.00  0.00    -0.115 C  
HETATM   18  O   UNL     3      -7.825  10.441  65.002  1.00  0.00    -0.152 OA 
HETATM   19  H   UNL     3      -7.315  11.169  65.338  1.00  0.00     0.000 HD 
BRANCH  17  20
HETATM   20  C   UNL     3      -7.101   9.222  67.069  1.00  0.00    -0.086 C  
HETATM   21  C   UNL     3      -7.683   9.218  68.506  1.00  0.00    -0.085 C  
HETATM   22  O   UNL     3      -6.021  10.173  66.850  1.00  0.00    -0.053 OA 
HETATM   23  O   UNL     3      -8.712   8.452  68.588  1.00  0.00    -0.131 OA 
HETATM   24  O   UNL     3      -7.208  10.004  69.350  1.00  0.00    -0.067 OA 
HETATM   25  H   UNL     3      -5.306   9.954  67.437  1.00  0.00     0.000 HD 
ENDBRANCH  17  20
ENDBRANCH   7  17
TORSDOF 4
ENDMDL
MODEL      224
REMARK 921   NORMALIZED FREE ENERGY PREDICTED BY IDOCK:   -1.77 KCAL/MOL
REMARK 922        TOTAL FREE ENERGY PREDICTED BY IDOCK:   -3.36 KCAL/MOL
REMARK 923 INTER-LIGAND FREE ENERGY PREDICTED BY IDOCK:   -3.43 KCAL/MOL
REMARK 924 INTRA-LIGAND FREE ENERGY PREDICTED BY IDOCK:    0.07 KCAL/MOL
REMARK 927      BINDING AFFINITY PREDICTED BY RF-SCORE:    0.00 PKD
ROOT
HETATM    1 CA   UNL     1      -9.004   7.837  73.980  1.00  0.00    -0.160 Ca 
HETATM    2  O   UNL     2      -7.423   5.562  74.444  1.00  0.00    -0.088 OA 
HETATM    3  O   UNL     3     -11.156  10.560  70.682  1.00  0.00    -0.404 OA 
HETATM    4  C   UNL     2      -7.736   4.666  73.327  1.00  0.00    -0.088 C  
HETATM    5  H   UNL     2      -7.071   4.985  75.110  1.00  0.00     0.000 HD 
HETATM    6  H   UNL     3     -12.016  10.939  70.540  1.00  0.00     0.000 HD 
HETATM    7  C   UNL     3     -11.187   9.142  70.595  1.00  0.00    -0.270 C  
ENDROOT
BRANCH   4   8
HETATM    8  C   UNL     2      -8.299   5.587  72.264  1.00  0.00    -0.119 C  
HETATM    9  H   UNL     2      -8.192   7.507  71.934  1.00  0.00     0.000 HD 
HETATM   10  O   UNL     2      -7.839   6.930  72.600  1.00  0.00    -0.097 OA 
BRANCH   8  11
HETATM   11  C   UNL     2      -9.779   5.485  71.970  1.00  0.00    -0.160 C  
HETATM   12  O   UNL     2     -11.787   5.005  73.150  1.00  0.00    -0.279 OA 
HETATM   13  H   UNL     2     -10.881   4.327  70.856  1.00  0.00     0.000 HD 
HETATM   14  O   UNL     2      -9.969   5.855  74.278  1.00  0.00    -0.201 OA 
HETATM   15  O   UNL     2      -9.951   4.391  71.041  1.00  0.00    -0.193 OA 
HETATM   16  C   UNL     2     -10.606   5.391  73.267  1.00  0.00    -0.249 C  
ENDBRANCH   8  11
ENDBRANCH   4   8
BRANCH   7  17
HETATM   17  C   UNL     3      -9.796   8.528  70.824  1.00  0.00    -0.182 C  
HETATM   18  O   UNL     3      -9.223   9.050  72.083  1.00  0.00    -0.365 OA 
HETATM   19  H   UNL     3      -8.364   8.671  72.225  1.00  0.00     0.000 HD 
BRANCH  17  20
HETATM   20  C   UNL     3      -8.811   8.611  69.650  1.00  0.00    -0.137 C  
HETATM   21  C   UNL     3      -8.749   7.198  69.015  1.00  0.00    -0.132 C  
HETATM   22  O   UNL     3      -7.540   9.110  70.154  1.00  0.00    -0.069 OA 
HETATM   23  O   UNL     3      -9.924   6.773  68.713  1.00  0.00    -0.141 OA 
HETATM   24  O   UNL     3      -7.654   6.601  68.980  1.00  0.00    -0.096 OA 
HETATM   25  H   UNL     3      -6.930   9.162  69.427  1.00  0.00     0.000 HD 
ENDBRANCH  17  20
ENDBRANCH   7  17
TORSDOF 4
ENDMDL
MODEL      225
REMARK 921   NORMALIZED FREE ENERGY PREDICTED BY IDOCK:   -1.73 KCAL/MOL
REMARK 922        TOTAL FREE ENERGY PREDICTED BY IDOCK:   -3.32 KCAL/MOL
REMARK 923 INTER-LIGAND FREE ENERGY PREDICTED BY IDOCK:   -4.52 KCAL/MOL
REMARK 924 INTRA-LIGAND FREE ENERGY PREDICTED BY IDOCK:    1.20 KCAL/MOL
REMARK 927      BINDING AFFINITY PREDICTED BY RF-SCORE:    0.00 PKD
ROOT
HETATM    1 CA   UNL     1     -10.303  12.528  64.429  1.00  0.00    -0.261 Ca 
HETATM    2  O   UNL     2     -10.416  15.293  64.905  1.00  0.00    -0.422 OA 
HETATM    3  O   UNL     3     -10.059   8.174  66.408  1.00  0.00    -0.418 OA 
HETATM    4  C   UNL     2     -11.063  15.413  66.215  1.00  0.00    -0.226 C  
HETATM    5  H   UNL     2     -10.547  16.145  64.505  1.00  0.00     0.000 HD 
HETATM    6  H   UNL     3     -10.512   7.343  66.327  1.00  0.00     0.000 HD 
HETATM    7  C   UNL     3     -10.903   9.181  66.952  1.00  0.00     0.056 C  
ENDROOT
BRANCH   4   8
HETATM    8  C   UNL     2     -10.854  14.054  66.852  1.00  0.00    -0.290 C  
HETATM    9  H   UNL     2     -12.025  12.544  67.248  1.00  0.00     0.000 HD 
HETATM   10  O   UNL     2     -12.156  13.396  66.848  1.00  0.00    -0.388 OA 
BRANCH   8  11
HETATM   11  C   UNL     2     -10.134  14.014  68.182  1.00  0.00    -0.244 C  
HETATM   12  O   UNL     2      -9.936  15.368  70.126  1.00  0.00    -0.258 OA 
HETATM   13  H   UNL     2      -8.265  14.025  68.731  1.00  0.00     0.000 HD 
HETATM   14  O   UNL     2     -11.821  15.516  68.813  1.00  0.00    -0.356 OA 
HETATM   15  O   UNL     2      -8.717  14.050  67.896  1.00  0.00    -0.165 OA 
HETATM   16  C   UNL     2     -10.647  15.111  69.133  1.00  0.00    -0.256 C  
ENDBRANCH   8  11
ENDBRANCH   4   8
BRANCH   7  17
HETATM   17  C   UNL     3     -10.171  10.527  67.083  1.00  0.00    -0.223 C  
HETATM   18  O   UNL     3     -10.946  11.583  66.399  1.00  0.00    -0.282 OA 
HETATM   19  H   UNL     3     -10.494  12.414  66.480  1.00  0.00     0.000 HD 
BRANCH  17  20
HETATM   20  C   UNL     3      -8.687  10.537  66.692  1.00  0.00    -0.133 C  
HETATM   21  C   UNL     3      -7.874  10.500  68.012  1.00  0.00    -0.105 C  
HETATM   22  O   UNL     3      -8.443  11.704  65.857  1.00  0.00    -0.371 OA 
HETATM   23  O   UNL     3      -8.236   9.515  68.753  1.00  0.00    -0.108 OA 
HETATM   24  O   UNL     3      -7.094  11.441  68.265  1.00  0.00    -0.071 OA 
HETATM   25  H   UNL     3      -7.524  11.711  65.615  1.00  0.00     0.000 HD 
ENDBRANCH  17  20
ENDBRANCH   7  17
TORSDOF 4
ENDMDL
MODEL      226
REMARK 921   NORMALIZED FREE ENERGY PREDICTED BY IDOCK:   -1.66 KCAL/MOL
REMARK 922        TOTAL FREE ENERGY PREDICTED BY IDOCK:   -3.22 KCAL/MOL
REMARK 923 INTER-LIGAND FREE ENERGY PREDICTED BY IDOCK:   -4.29 KCAL/MOL
REMARK 924 INTRA-LIGAND FREE ENERGY PREDICTED BY IDOCK:    1.07 KCAL/MOL
REMARK 927      BINDING AFFINITY PREDICTED BY RF-SCORE:    0.00 PKD
ROOT
HETATM    1 CA   UNL     1     -13.505  14.087  69.119  1.00  0.00    -0.244 Ca 
HETATM    2  O   UNL     2     -12.833  16.087  70.972  1.00  0.00    -0.574 OA 
HETATM    3  O   UNL     3     -12.203  11.785  65.128  1.00  0.00    -0.241 OA 
HETATM    4  C   UNL     2     -11.369  16.136  70.942  1.00  0.00    -0.359 C  
HETATM    5  H   UNL     2     -13.059  16.480  71.807  1.00  0.00     0.000 HD 
HETATM    6  H   UNL     3     -12.119  10.885  64.835  1.00  0.00     0.000 HD 
HETATM    7  C   UNL     3     -11.251  12.100  66.136  1.00  0.00    -0.338 C  
ENDROOT
BRANCH   4   8
HETATM    8  C   UNL     2     -11.008  15.510  69.610  1.00  0.00    -0.286 C  
HETATM    9  H   UNL     2     -10.421  13.733  69.059  1.00  0.00     0.000 HD 
HETATM   10  O   UNL     2     -10.647  14.125  69.893  1.00  0.00     0.097 OA 
BRANCH   8  11
HETATM   11  C   UNL     2     -10.018  16.252  68.739  1.00  0.00    -0.237 C  
HETATM   12  O   UNL     2      -7.687  16.718  68.715  1.00  0.00    -0.220 OA 
HETATM   13  H   UNL     2      -9.773  18.113  68.220  1.00  0.00     0.000 HD 
HETATM   14  O   UNL     2      -8.470  14.844  69.800  1.00  0.00    -0.029 OA 
HETATM   15  O   UNL     2     -10.394  17.648  68.767  1.00  0.00    -0.362 OA 
HETATM   16  C   UNL     2      -8.566  15.947  69.152  1.00  0.00    -0.252 C  
ENDBRANCH   8  11
ENDBRANCH   4   8
BRANCH   7  17
HETATM   17  C   UNL     3     -11.387  13.556  66.610  1.00  0.00    -0.322 C  
HETATM   18  O   UNL     3     -12.262  13.613  67.799  1.00  0.00    -0.349 OA 
HETATM   19  H   UNL     3     -12.346  14.512  68.092  1.00  0.00     0.000 HD 
BRANCH  17  20
HETATM   20  C   UNL     3     -11.774  14.588  65.542  1.00  0.00    -0.343 C  
HETATM   21  C   UNL     3     -10.592  15.584  65.428  1.00  0.00    -0.408 C  
HETATM   22  O   UNL     3     -13.044  15.189  65.928  1.00  0.00     0.511 OA 
HETATM   23  O   UNL     3      -9.485  14.966  65.213  1.00  0.00    -0.084 OA 
HETATM   24  O   UNL     3     -10.795  16.791  65.668  1.00  0.00    -0.248 OA 
HETATM   25  H   UNL     3     -13.284  15.828  65.267  1.00  0.00     0.000 HD 
ENDBRANCH  17  20
ENDBRANCH   7  17
TORSDOF 4
ENDMDL
MODEL      227
REMARK 921   NORMALIZED FREE ENERGY PREDICTED BY IDOCK:   -1.63 KCAL/MOL
REMARK 922        TOTAL FREE ENERGY PREDICTED BY IDOCK:   -3.19 KCAL/MOL
REMARK 923 INTER-LIGAND FREE ENERGY PREDICTED BY IDOCK:   -3.12 KCAL/MOL
REMARK 924 INTRA-LIGAND FREE ENERGY PREDICTED BY IDOCK:   -0.07 KCAL/MOL
REMARK 927      BINDING AFFINITY PREDICTED BY RF-SCORE:    0.00 PKD
ROOT
HETATM    1 CA   UNL     1      -6.380   8.192  68.788  1.00  0.00    -0.035 Ca 
HETATM    2  O   UNL     2      -5.689  10.896  69.097  1.00  0.00    -0.041 OA 
HETATM    3  O   UNL     3      -9.837   4.910  69.240  1.00  0.00    -0.172 OA 
HETATM    4  C   UNL     2      -6.951  11.619  68.921  1.00  0.00    -0.109 C  
HETATM    5  H   UNL     2      -5.023  11.551  68.926  1.00  0.00     0.000 HD 
HETATM    6  H   UNL     3     -10.224   4.224  68.708  1.00  0.00     0.000 HD 
HETATM    7  C   UNL     3     -10.116   6.202  68.715  1.00  0.00    -0.169 C  
ENDROOT
BRANCH   4   8
HETATM    8  C   UNL     2      -8.014  10.573  69.194  1.00  0.00    -0.145 C  
HETATM    9  H   UNL     2      -8.015   8.837  70.085  1.00  0.00     0.000 HD 
HETATM   10  O   UNL     2      -7.349   9.492  69.914  1.00  0.00    -0.076 OA 
BRANCH   8  11
HETATM   11  C   UNL     2      -8.860  10.121  68.024  1.00  0.00    -0.125 C  
HETATM   12  O   UNL     2     -11.126   9.538  67.602  1.00  0.00    -0.183 OA 
HETATM   13  H   UNL     2      -8.882   8.551  66.871  1.00  0.00     0.000 HD 
HETATM   14  O   UNL     2     -10.612  10.956  69.342  1.00  0.00    -0.220 OA 
HETATM   15  O   UNL     2      -8.351   8.834  67.606  1.00  0.00    -0.113 OA 
HETATM   16  C   UNL     2     -10.361  10.162  68.366  1.00  0.00    -0.183 C  
ENDBRANCH   8  11
ENDBRANCH   4   8
BRANCH   7  17
HETATM   17  C   UNL     3      -9.489   7.311  69.575  1.00  0.00    -0.155 C  
HETATM   18  O   UNL     3      -8.074   6.988  69.850  1.00  0.00    -0.121 OA 
HETATM   19  H   UNL     3      -7.687   7.674  70.381  1.00  0.00     0.000 HD 
BRANCH  17  20
HETATM   20  C   UNL     3     -10.260   7.711  70.841  1.00  0.00    -0.199 C  
HETATM   21  C   UNL     3     -10.366   6.440  71.723  1.00  0.00    -0.203 C  
HETATM   22  O   UNL     3     -11.536   8.283  70.438  1.00  0.00    -0.438 OA 
HETATM   23  O   UNL     3      -9.209   5.921  71.930  1.00  0.00    -0.147 OA 
HETATM   24  O   UNL     3     -11.497   6.004  72.017  1.00  0.00    -0.288 OA 
HETATM   25  H   UNL     3     -12.014   8.531  71.222  1.00  0.00     0.000 HD 
ENDBRANCH  17  20
ENDBRANCH   7  17
TORSDOF 4
ENDMDL
MODEL      228
REMARK 921   NORMALIZED FREE ENERGY PREDICTED BY IDOCK:   -1.59 KCAL/MOL
REMARK 922        TOTAL FREE ENERGY PREDICTED BY IDOCK:   -3.15 KCAL/MOL
REMARK 923 INTER-LIGAND FREE ENERGY PREDICTED BY IDOCK:   -3.42 KCAL/MOL
REMARK 924 INTRA-LIGAND FREE ENERGY PREDICTED BY IDOCK:    0.27 KCAL/MOL
REMARK 927      BINDING AFFINITY PREDICTED BY RF-SCORE:    0.00 PKD
ROOT
HETATM    1 CA   UNL     1      -8.278  10.291  66.289  1.00  0.00    -0.112 Ca 
HETATM    2  O   UNL     2      -9.098  12.445  67.893  1.00  0.00    -0.176 OA 
HETATM    3  O   UNL     3      -8.184   5.528  65.796  1.00  0.00    -0.114 OA 
HETATM    4  C   UNL     2     -10.284  11.947  68.595  1.00  0.00    -0.191 C  
HETATM    5  H   UNL     2      -9.183  13.390  67.939  1.00  0.00     0.000 HD 
HETATM    6  H   UNL     3      -8.389   4.891  65.123  1.00  0.00     0.000 HD 
HETATM    7  C   UNL     3      -9.351   6.195  66.261  1.00  0.00    -0.134 C  
ENDROOT
BRANCH   4   8
HETATM    8  C   UNL     2     -10.148  10.439  68.521  1.00  0.00    -0.171 C  
HETATM    9  H   UNL     2     -10.543   9.105  67.153  1.00  0.00     0.000 HD 
HETATM   10  O   UNL     2     -10.628  10.050  67.199  1.00  0.00    -0.241 OA 
BRANCH   8  11
HETATM   11  C   UNL     2     -10.727   9.633  69.662  1.00  0.00    -0.240 C  
HETATM   12  O   UNL     2     -12.518   9.803  71.216  1.00  0.00    -0.319 OA 
HETATM   13  H   UNL     2     -10.077   9.064  71.408  1.00  0.00     0.000 HD 
HETATM   14  O   UNL     2     -12.653  10.886  69.189  1.00  0.00    -0.361 OA 
HETATM   15  O   UNL     2      -9.714   9.571  70.692  1.00  0.00    -0.261 OA 
HETATM   16  C   UNL     2     -12.093  10.189  70.108  1.00  0.00    -0.149 C  
ENDBRANCH   8  11
ENDBRANCH   4   8
BRANCH   7  17
HETATM   17  C   UNL     3      -9.020   7.227  67.351  1.00  0.00    -0.122 C  
HETATM   18  O   UNL     3      -8.145   8.278  66.792  1.00  0.00    -0.100 OA 
HETATM   19  H   UNL     3      -7.940   8.916  67.465  1.00  0.00     0.000 HD 
BRANCH  17  20
HETATM   20  C   UNL     3      -8.495   6.670  68.682  1.00  0.00    -0.122 C  
HETATM   21  C   UNL     3      -9.698   6.005  69.398  1.00  0.00    -0.142 C  
HETATM   22  O   UNL     3      -7.872   7.760  69.420  1.00  0.00    -0.110 OA 
HETATM   23  O   UNL     3     -10.274   5.145  68.635  1.00  0.00    -0.171 OA 
HETATM   24  O   UNL     3     -10.045   6.433  70.517  1.00  0.00    -0.182 OA 
HETATM   25  H   UNL     3      -7.547   7.416  70.243  1.00  0.00     0.000 HD 
ENDBRANCH  17  20
ENDBRANCH   7  17
TORSDOF 4
ENDMDL
MODEL      229
REMARK 921   NORMALIZED FREE ENERGY PREDICTED BY IDOCK:   -1.59 KCAL/MOL
REMARK 922        TOTAL FREE ENERGY PREDICTED BY IDOCK:   -3.14 KCAL/MOL
REMARK 923 INTER-LIGAND FREE ENERGY PREDICTED BY IDOCK:   -3.23 KCAL/MOL
REMARK 924 INTRA-LIGAND FREE ENERGY PREDICTED BY IDOCK:    0.09 KCAL/MOL
REMARK 927      BINDING AFFINITY PREDICTED BY RF-SCORE:    0.00 PKD
ROOT
HETATM    1 CA   UNL     1      -7.807   7.918  66.558  1.00  0.00    -0.083 Ca 
HETATM    2  O   UNL     2      -9.550   5.945  65.581  1.00  0.00    -0.369 OA 
HETATM    3  O   UNL     3      -6.885  10.976  70.125  1.00  0.00    -0.337 OA 
HETATM    4  C   UNL     2     -10.132   5.343  66.784  1.00  0.00    -0.214 C  
HETATM    5  H   UNL     2      -9.678   5.286  64.909  1.00  0.00     0.000 HD 
HETATM    6  H   UNL     3      -6.145  11.209  70.673  1.00  0.00     0.000 HD 
HETATM    7  C   UNL     3      -7.339   9.655  70.391  1.00  0.00    -0.149 C  
ENDROOT
BRANCH   4   8
HETATM    8  C   UNL     2      -9.928   6.395  67.856  1.00  0.00    -0.131 C  
HETATM    9  H   UNL     2      -9.507   8.300  67.828  1.00  0.00     0.000 HD 
HETATM   10  O   UNL     2      -9.635   7.641  67.156  1.00  0.00    -0.144 OA 
BRANCH   8  11
HETATM   11  C   UNL     2      -8.970   6.064  68.979  1.00  0.00    -0.124 C  
HETATM   12  O   UNL     2      -6.968   4.819  69.286  1.00  0.00    -0.049 OA 
HETATM   13  H   UNL     2      -9.109   5.088  70.659  1.00  0.00     0.000 HD 
HETATM   14  O   UNL     2      -7.487   5.662  67.207  1.00  0.00    -0.082 OA 
HETATM   15  O   UNL     2      -9.711   5.295  69.953  1.00  0.00    -0.162 OA 
HETATM   16  C   UNL     2      -7.686   5.400  68.446  1.00  0.00    -0.081 C  
ENDBRANCH   8  11
ENDBRANCH   4   8
BRANCH   7  17
HETATM   17  C   UNL     3      -8.537   9.277  69.505  1.00  0.00    -0.147 C  
HETATM   18  O   UNL     3      -8.279   9.699  68.112  1.00  0.00    -0.105 OA 
HETATM   19  H   UNL     3      -9.019   9.466  67.564  1.00  0.00     0.000 HD 
BRANCH  17  20
HETATM   20  C   UNL     3      -9.921   9.714  70.005  1.00  0.00    -0.247 C  
HETATM   21  C   UNL     3     -10.477   8.549  70.864  1.00  0.00    -0.203 C  
HETATM   22  O   UNL     3     -10.736  10.063  68.850  1.00  0.00    -0.203 OA 
HETATM   23  O   UNL     3      -9.645   8.213  71.784  1.00  0.00    -0.160 OA 
HETATM   24  O   UNL     3     -11.545   8.004  70.521  1.00  0.00    -0.241 OA 
HETATM   25  H   UNL     3     -11.593  10.333  69.159  1.00  0.00     0.000 HD 
ENDBRANCH  17  20
ENDBRANCH   7  17
TORSDOF 4
ENDMDL
MODEL      230
REMARK 921   NORMALIZED FREE ENERGY PREDICTED BY IDOCK:   -1.53 KCAL/MOL
REMARK 922        TOTAL FREE ENERGY PREDICTED BY IDOCK:   -3.06 KCAL/MOL
REMARK 923 INTER-LIGAND FREE ENERGY PREDICTED BY IDOCK:   -3.86 KCAL/MOL
REMARK 924 INTRA-LIGAND FREE ENERGY PREDICTED BY IDOCK:    0.80 KCAL/MOL
REMARK 927      BINDING AFFINITY PREDICTED BY RF-SCORE:    0.00 PKD
ROOT
HETATM    1 CA   UNL     1      -9.462   9.787  71.279  1.00  0.00    -0.228 Ca 
HETATM    2  O   UNL     2      -9.872   7.942  73.357  1.00  0.00    -0.304 OA 
HETATM    3  O   UNL     3      -9.729  10.564  66.562  1.00  0.00    -0.179 OA 
HETATM    4  C   UNL     2     -10.947   7.075  72.869  1.00  0.00    -0.302 C  
HETATM    5  H   UNL     2      -9.893   7.827  74.299  1.00  0.00     0.000 HD 
HETATM    6  H   UNL     3     -10.082  11.228  65.981  1.00  0.00     0.000 HD 
HETATM    7  C   UNL     3     -10.759   9.866  67.249  1.00  0.00    -0.238 C  
ENDROOT
BRANCH   4   8
HETATM    8  C   UNL     2     -10.914   7.259  71.364  1.00  0.00    -0.232 C  
HETATM    9  H   UNL     2     -11.921   8.360  70.108  1.00  0.00     0.000 HD 
HETATM   10  O   UNL     2     -11.943   8.245  71.050  1.00  0.00    -0.296 OA 
BRANCH   8  11
HETATM   11  C   UNL     2     -10.957   6.011  70.511  1.00  0.00    -0.319 C  
HETATM   12  O   UNL     2      -9.418   4.533  69.462  1.00  0.00    -0.139 OA 
HETATM   13  H   UNL     2     -11.631   5.587  68.734  1.00  0.00     0.000 HD 
HETATM   14  O   UNL     2      -8.772   5.734  71.318  1.00  0.00    -0.130 OA 
HETATM   15  O   UNL     2     -11.604   6.371  69.269  1.00  0.00    -0.354 OA 
HETATM   16  C   UNL     2      -9.560   5.376  70.371  1.00  0.00    -0.175 C  
ENDBRANCH   8  11
ENDBRANCH   4   8
BRANCH   7  17
HETATM   17  C   UNL     3     -10.188   8.792  68.189  1.00  0.00    -0.205 C  
HETATM   18  O   UNL     3     -10.460   9.163  69.593  1.00  0.00    -0.210 OA 
HETATM   19  H   UNL     3     -10.108   8.499  70.174  1.00  0.00     0.000 HD 
BRANCH  17  20
HETATM   20  C   UNL     3      -8.724   8.391  67.958  1.00  0.00    -0.139 C  
HETATM   21  C   UNL     3      -8.732   7.221  66.942  1.00  0.00    -0.126 C  
HETATM   22  O   UNL     3      -8.128   8.076  69.249  1.00  0.00    -0.114 OA 
HETATM   23  O   UNL     3      -9.386   7.533  65.881  1.00  0.00    -0.065 OA 
HETATM   24  O   UNL     3      -8.249   6.123  67.284  1.00  0.00    -0.106 OA 
HETATM   25  H   UNL     3      -7.222   7.828  69.107  1.00  0.00     0.000 HD 
ENDBRANCH  17  20
ENDBRANCH   7  17
TORSDOF 4
ENDMDL
MODEL      231
REMARK 921   NORMALIZED FREE ENERGY PREDICTED BY IDOCK:   -1.51 KCAL/MOL
REMARK 922        TOTAL FREE ENERGY PREDICTED BY IDOCK:   -3.04 KCAL/MOL
REMARK 923 INTER-LIGAND FREE ENERGY PREDICTED BY IDOCK:   -4.02 KCAL/MOL
REMARK 924 INTRA-LIGAND FREE ENERGY PREDICTED BY IDOCK:    0.98 KCAL/MOL
REMARK 927      BINDING AFFINITY PREDICTED BY RF-SCORE:    0.00 PKD
ROOT
HETATM    1 CA   UNL     1     -12.211  11.129  66.423  1.00  0.00    -0.000 Ca 
HETATM    2  O   UNL     2     -10.872  12.189  64.193  1.00  0.00    -0.303 OA 
HETATM    3  O   UNL     3     -11.747   9.316  70.830  1.00  0.00    -0.279 OA 
HETATM    4  C   UNL     2      -9.659  12.795  64.749  1.00  0.00     0.243 C  
HETATM    5  H   UNL     2     -10.982  12.622  63.355  1.00  0.00     0.000 HD 
HETATM    6  H   UNL     3     -12.135   9.451  71.687  1.00  0.00     0.000 HD 
HETATM    7  C   UNL     3     -10.983  10.441  70.416  1.00  0.00    -0.248 C  
ENDROOT
BRANCH   4   8
HETATM    8  C   UNL     2      -9.484  12.104  66.087  1.00  0.00    -0.224 C  
HETATM    9  H   UNL     2     -10.205  10.473  66.879  1.00  0.00     0.000 HD 
HETATM   10  O   UNL     2     -10.315  10.906  66.041  1.00  0.00    -0.243 OA 
BRANCH   8  11
HETATM   11  C   UNL     2      -9.661  12.945  67.331  1.00  0.00    -0.203 C  
HETATM   12  O   UNL     2     -11.277  14.430  68.246  1.00  0.00    -0.254 OA 
HETATM   13  H   UNL     2      -8.724  14.468  68.104  1.00  0.00     0.000 HD 
HETATM   14  O   UNL     2     -11.930  12.802  66.755  1.00  0.00    -0.399 OA 
HETATM   15  O   UNL     2      -8.613  13.940  67.322  1.00  0.00    -0.193 OA 
HETATM   16  C   UNL     2     -11.096  13.494  67.440  1.00  0.00    -0.281 C  
ENDBRANCH   8  11
ENDBRANCH   4   8
BRANCH   7  17
HETATM   17  C   UNL     3     -10.355  10.223  69.030  1.00  0.00    -0.211 C  
HETATM   18  O   UNL     3     -11.296   9.476  68.169  1.00  0.00    -0.510 OA 
HETATM   19  H   UNL     3     -10.908   9.341  67.313  1.00  0.00     0.000 HD 
BRANCH  17  20
HETATM   20  C   UNL     3      -8.939   9.630  69.008  1.00  0.00    -0.148 C  
HETATM   21  C   UNL     3      -9.087   8.103  69.229  1.00  0.00    -0.151 C  
HETATM   22  O   UNL     3      -8.141  10.318  70.013  1.00  0.00    -0.325 OA 
HETATM   23  O   UNL     3      -9.906   7.590  68.382  1.00  0.00    -0.156 OA 
HETATM   24  O   UNL     3      -8.535   7.581  70.218  1.00  0.00    -0.134 OA 
HETATM   25  H   UNL     3      -7.264   9.952  70.000  1.00  0.00     0.000 HD 
ENDBRANCH  17  20
ENDBRANCH   7  17
TORSDOF 4
ENDMDL
MODEL      232
REMARK 921   NORMALIZED FREE ENERGY PREDICTED BY IDOCK:   -1.49 KCAL/MOL
REMARK 922        TOTAL FREE ENERGY PREDICTED BY IDOCK:   -3.02 KCAL/MOL
REMARK 923 INTER-LIGAND FREE ENERGY PREDICTED BY IDOCK:   -3.42 KCAL/MOL
REMARK 924 INTRA-LIGAND FREE ENERGY PREDICTED BY IDOCK:    0.40 KCAL/MOL
REMARK 927      BINDING AFFINITY PREDICTED BY RF-SCORE:    0.00 PKD
ROOT
HETATM    1 CA   UNL     1     -12.581   6.246  72.653  1.00  0.00    -0.430 Ca 
HETATM    2  O   UNL     2     -12.465   8.793  71.475  1.00  0.00    -0.307 OA 
HETATM    3  O   UNL     3     -10.058   2.523  74.298  1.00  0.00    -0.104 OA 
HETATM    4  C   UNL     2     -11.183   9.345  71.923  1.00  0.00    -0.163 C  
HETATM    5  H   UNL     2     -12.971   9.557  71.228  1.00  0.00     0.000 HD 
HETATM    6  H   UNL     3     -10.033   1.987  75.082  1.00  0.00     0.000 HD 
HETATM    7  C   UNL     3      -9.651   3.859  74.563  1.00  0.00    -0.114 C  
ENDROOT
BRANCH   4   8
HETATM    8  C   UNL     2     -10.376   8.124  72.318  1.00  0.00    -0.292 C  
HETATM    9  H   UNL     2     -10.322   6.984  73.900  1.00  0.00     0.000 HD 
HETATM   10  O   UNL     2     -10.828   7.748  73.653  1.00  0.00    -0.259 OA 
BRANCH   8  11
HETATM   11  C   UNL     2      -8.873   8.206  72.163  1.00  0.00    -0.178 C  
HETATM   12  O   UNL     2      -6.975   8.615  73.535  1.00  0.00    -0.296 OA 
HETATM   13  H   UNL     2      -7.656   9.373  71.189  1.00  0.00     0.000 HD 
HETATM   14  O   UNL     2      -8.902   7.770  74.468  1.00  0.00    -0.144 OA 
HETATM   15  O   UNL     2      -8.599   9.322  71.286  1.00  0.00    -0.310 OA 
HETATM   16  C   UNL     2      -8.168   8.249  73.532  1.00  0.00    -0.185 C  
ENDBRANCH   8  11
ENDBRANCH   4   8
BRANCH   7  17
HETATM   17  C   UNL     3      -9.691   4.728  73.295  1.00  0.00    -0.136 C  
HETATM   18  O   UNL     3     -10.940   4.463  72.550  1.00  0.00    -0.100 OA 
HETATM   19  H   UNL     3     -10.965   4.999  71.767  1.00  0.00     0.000 HD 
BRANCH  17  20
HETATM   20  C   UNL     3      -8.448   4.682  72.396  1.00  0.00    -0.115 C  
HETATM   21  C   UNL     3      -8.241   3.200  71.989  1.00  0.00    -0.062 C  
HETATM   22  O   UNL     3      -7.336   5.276  73.124  1.00  0.00    -0.088 OA 
HETATM   23  O   UNL     3      -9.309   2.709  71.469  1.00  0.00    -0.104 OA 
HETATM   24  O   UNL     3      -7.176   2.633  72.303  1.00  0.00    -0.036 OA 
HETATM   25  H   UNL     3      -6.566   5.248  72.568  1.00  0.00     0.000 HD 
ENDBRANCH  17  20
ENDBRANCH   7  17
TORSDOF 4
ENDMDL
MODEL      233
REMARK 921   NORMALIZED FREE ENERGY PREDICTED BY IDOCK:   -1.45 KCAL/MOL
REMARK 922        TOTAL FREE ENERGY PREDICTED BY IDOCK:   -2.97 KCAL/MOL
REMARK 923 INTER-LIGAND FREE ENERGY PREDICTED BY IDOCK:   -4.16 KCAL/MOL
REMARK 924 INTRA-LIGAND FREE ENERGY PREDICTED BY IDOCK:    1.19 KCAL/MOL
REMARK 927      BINDING AFFINITY PREDICTED BY RF-SCORE:    0.00 PKD
ROOT
HETATM    1 CA   UNL     1      -9.401  10.367  64.413  1.00  0.00    -0.166 Ca 
HETATM    2  O   UNL     2     -10.068  12.942  63.515  1.00  0.00    -0.661 OA 
HETATM    3  O   UNL     3      -8.439   7.623  68.218  1.00  0.00    -0.124 OA 
HETATM    4  C   UNL     2     -10.798  13.543  64.635  1.00  0.00    -0.405 C  
HETATM    5  H   UNL     2     -10.338  13.456  62.763  1.00  0.00     0.000 HD 
HETATM    6  H   UNL     3      -8.719   6.784  68.564  1.00  0.00     0.000 HD 
HETATM    7  C   UNL     3      -9.489   8.581  68.251  1.00  0.00    -0.134 C  
ENDROOT
BRANCH   4   8
HETATM    8  C   UNL     2     -10.368  12.722  65.835  1.00  0.00    -0.283 C  
HETATM    9  H   UNL     2     -11.230  11.348  66.919  1.00  0.00     0.000 HD 
HETATM   10  O   UNL     2     -11.499  11.862  66.168  1.00  0.00    -0.343 OA 
BRANCH   8  11
HETATM   11  C   UNL     2      -9.777  13.467  67.010  1.00  0.00    -0.239 C  
HETATM   12  O   UNL     2     -10.548  14.732  68.870  1.00  0.00    -0.236 OA 
HETATM   13  H   UNL     2      -8.626  15.025  67.209  1.00  0.00     0.000 HD 
HETATM   14  O   UNL     2     -11.914  13.139  67.921  1.00  0.00    -0.349 OA 
HETATM   15  O   UNL     2      -8.997  14.558  66.470  1.00  0.00    -0.246 OA 
HETATM   16  C   UNL     2     -10.863  13.867  68.027  1.00  0.00    -0.246 C  
ENDBRANCH   8  11
ENDBRANCH   4   8
BRANCH   7  17
HETATM   17  C   UNL     3      -9.037   9.940  67.692  1.00  0.00    -0.131 C  
HETATM   18  O   UNL     3      -9.484  10.074  66.289  1.00  0.00    -0.172 OA 
HETATM   19  H   UNL     3      -9.204  10.913  65.944  1.00  0.00     0.000 HD 
BRANCH  17  20
HETATM   20  C   UNL     3      -7.554  10.294  67.875  1.00  0.00    -0.089 C  
HETATM   21  C   UNL     3      -7.447  11.117  69.184  1.00  0.00    -0.109 C  
HETATM   22  O   UNL     3      -7.100  10.987  66.677  1.00  0.00    -0.125 OA 
HETATM   23  O   UNL     3      -7.984  10.493  70.170  1.00  0.00    -0.001 OA 
HETATM   24  O   UNL     3      -6.997  12.280  69.129  1.00  0.00    -0.098 OA 
HETATM   25  H   UNL     3      -6.182  11.207  66.790  1.00  0.00     0.000 HD 
ENDBRANCH  17  20
ENDBRANCH   7  17
TORSDOF 4
ENDMDL
MODEL      234
REMARK 921   NORMALIZED FREE ENERGY PREDICTED BY IDOCK:   -1.41 KCAL/MOL
REMARK 922        TOTAL FREE ENERGY PREDICTED BY IDOCK:   -2.92 KCAL/MOL
REMARK 923 INTER-LIGAND FREE ENERGY PREDICTED BY IDOCK:   -2.96 KCAL/MOL
REMARK 924 INTRA-LIGAND FREE ENERGY PREDICTED BY IDOCK:    0.04 KCAL/MOL
REMARK 927      BINDING AFFINITY PREDICTED BY RF-SCORE:    0.00 PKD
ROOT
HETATM    1 CA   UNL     1      -7.578   5.290  70.902  1.00  0.00    -0.066 Ca 
HETATM    2  O   UNL     2      -9.919   5.268  72.453  1.00  0.00    -0.168 OA 
HETATM    3  O   UNL     3      -5.663   6.304  66.632  1.00  0.00    -0.015 OA 
HETATM    4  C   UNL     2     -10.738   6.347  71.894  1.00  0.00    -0.224 C  
HETATM    5  H   UNL     2     -10.270   5.141  73.326  1.00  0.00     0.000 HD 
HETATM    6  H   UNL     3      -4.913   6.781  66.297  1.00  0.00     0.000 HD 
HETATM    7  C   UNL     3      -6.612   7.174  67.236  1.00  0.00    -0.059 C  
ENDROOT
BRANCH   4   8
HETATM    8  C   UNL     2     -10.177   6.549  70.500  1.00  0.00    -0.190 C  
HETATM    9  H   UNL     2      -9.071   5.468  69.310  1.00  0.00     0.000 HD 
HETATM   10  O   UNL     2      -9.423   5.341  70.183  1.00  0.00    -0.145 OA 
BRANCH   8  11
HETATM   11  C   UNL     2      -9.437   7.841  70.230  1.00  0.00    -0.160 C  
HETATM   12  O   UNL     2      -8.000   9.332  71.398  1.00  0.00    -0.335 OA 
HETATM   13  H   UNL     2      -9.971   9.665  69.803  1.00  0.00     0.000 HD 
HETATM   14  O   UNL     2      -8.113   7.120  72.027  1.00  0.00    -0.099 OA 
HETATM   15  O   UNL     2     -10.436   8.854  69.973  1.00  0.00    -0.200 OA 
HETATM   16  C   UNL     2      -8.440   8.165  71.359  1.00  0.00    -0.126 C  
ENDBRANCH   8  11
ENDBRANCH   4   8
BRANCH   7  17
HETATM   17  C   UNL     3      -7.826   6.403  67.777  1.00  0.00    -0.104 C  
HETATM   18  O   UNL     3      -7.369   5.193  68.493  1.00  0.00    -0.068 OA 
HETATM   19  H   UNL     3      -8.119   4.716  68.827  1.00  0.00     0.000 HD 
BRANCH  17  20
HETATM   20  C   UNL     3      -8.949   6.105  66.774  1.00  0.00    -0.124 C  
HETATM   21  C   UNL     3      -9.959   7.277  66.867  1.00  0.00    -0.232 C  
HETATM   22  O   UNL     3      -9.503   4.794  67.084  1.00  0.00    -0.131 OA 
HETATM   23  O   UNL     3      -9.372   8.409  66.708  1.00  0.00    -0.160 OA 
HETATM   24  O   UNL     3     -11.138   7.031  67.194  1.00  0.00    -0.350 OA 
HETATM   25  H   UNL     3     -10.198   4.609  66.463  1.00  0.00     0.000 HD 
ENDBRANCH  17  20
ENDBRANCH   7  17
TORSDOF 4
ENDMDL
MODEL      235
REMARK 921   NORMALIZED FREE ENERGY PREDICTED BY IDOCK:   -1.40 KCAL/MOL
REMARK 922        TOTAL FREE ENERGY PREDICTED BY IDOCK:   -2.91 KCAL/MOL
REMARK 923 INTER-LIGAND FREE ENERGY PREDICTED BY IDOCK:   -5.08 KCAL/MOL
REMARK 924 INTRA-LIGAND FREE ENERGY PREDICTED BY IDOCK:    2.17 KCAL/MOL
REMARK 927      BINDING AFFINITY PREDICTED BY RF-SCORE:    0.00 PKD
ROOT
HETATM    1 CA   UNL     1      -7.942  12.388  66.004  1.00  0.00    -0.364 Ca 
HETATM    2  O   UNL     2      -7.898   9.869  64.763  1.00  0.00    -0.129 OA 
HETATM    3  O   UNL     3     -10.642  16.135  67.271  1.00  0.00    -0.307 OA 
HETATM    4  C   UNL     2      -9.248   9.338  64.967  1.00  0.00    -0.178 C  
HETATM    5  H   UNL     2      -7.371   9.098  64.591  1.00  0.00     0.000 HD 
HETATM    6  H   UNL     3     -10.794  16.656  68.050  1.00  0.00     0.000 HD 
HETATM    7  C   UNL     3     -11.115  14.803  67.428  1.00  0.00    -0.324 C  
ENDROOT
BRANCH   4   8
HETATM    8  C   UNL     2     -10.089  10.569  65.243  1.00  0.00    -0.300 C  
HETATM    9  H   UNL     2      -9.984  12.438  64.692  1.00  0.00     0.000 HD 
HETATM   10  O   UNL     2      -9.457  11.667  64.519  1.00  0.00    -0.161 OA 
BRANCH   8  11
HETATM   11  C   UNL     2     -10.419  10.875  66.687  1.00  0.00    -0.254 C  
HETATM   12  O   UNL     2     -10.418   9.744  68.778  1.00  0.00    -0.202 OA 
HETATM   13  H   UNL     2     -12.039  11.368  67.650  1.00  0.00     0.000 HD 
HETATM   14  O   UNL     2      -9.013   9.042  67.094  1.00  0.00    -0.128 OA 
HETATM   15  O   UNL     2     -11.832  11.176  66.743  1.00  0.00    -0.271 OA 
HETATM   16  C   UNL     2      -9.943   9.748  67.624  1.00  0.00    -0.174 C  
ENDBRANCH   8  11
ENDBRANCH   4   8
BRANCH   7  17
HETATM   17  C   UNL     3     -10.869  13.960  66.166  1.00  0.00    -0.290 C  
HETATM   18  O   UNL     3      -9.423  13.691  66.021  1.00  0.00    -0.456 OA 
HETATM   19  H   UNL     3      -9.271  13.170  65.242  1.00  0.00     0.000 HD 
BRANCH  17  20
HETATM   20  C   UNL     3     -11.506  14.473  64.867  1.00  0.00    -0.396 C  
HETATM   21  C   UNL     3     -10.814  15.818  64.528  1.00  0.00    -0.070 C  
HETATM   22  O   UNL     3     -12.946  14.560  65.068  1.00  0.00    -0.564 OA 
HETATM   23  O   UNL     3      -9.536  15.687  64.494  1.00  0.00     0.543 OA 
HETATM   24  O   UNL     3     -11.510  16.851  64.454  1.00  0.00    -1.052 OA 
HETATM   25  H   UNL     3     -13.341  14.877  64.264  1.00  0.00     0.000 HD 
ENDBRANCH  17  20
ENDBRANCH   7  17
TORSDOF 4
ENDMDL
MODEL      236
REMARK 921   NORMALIZED FREE ENERGY PREDICTED BY IDOCK:   -1.36 KCAL/MOL
REMARK 922        TOTAL FREE ENERGY PREDICTED BY IDOCK:   -2.86 KCAL/MOL
REMARK 923 INTER-LIGAND FREE ENERGY PREDICTED BY IDOCK:   -3.25 KCAL/MOL
REMARK 924 INTRA-LIGAND FREE ENERGY PREDICTED BY IDOCK:    0.39 KCAL/MOL
REMARK 927      BINDING AFFINITY PREDICTED BY RF-SCORE:    0.00 PKD
ROOT
HETATM    1 CA   UNL     1     -10.974   5.348  70.925  1.00  0.00    -0.227 Ca 
HETATM    2  O   UNL     2      -9.307   3.637  69.448  1.00  0.00    -0.149 OA 
HETATM    3  O   UNL     3     -12.240   9.888  71.771  1.00  0.00    -0.389 OA 
HETATM    4  C   UNL     2      -9.052   4.363  68.201  1.00  0.00    -0.127 C  
HETATM    5  H   UNL     2      -9.122   2.732  69.229  1.00  0.00     0.000 HD 
HETATM    6  H   UNL     3     -13.043  10.391  71.829  1.00  0.00     0.000 HD 
HETATM    7  C   UNL     3     -12.002   9.427  70.447  1.00  0.00    -0.029 C  
ENDROOT
BRANCH   4   8
HETATM    8  C   UNL     2      -9.346   5.808  68.550  1.00  0.00    -0.121 C  
HETATM    9  H   UNL     2     -10.978   6.810  68.924  1.00  0.00     0.000 HD 
HETATM   10  O   UNL     2     -10.794   5.904  68.705  1.00  0.00    -0.273 OA 
BRANCH   8  11
HETATM   11  C   UNL     2      -8.736   6.874  67.667  1.00  0.00    -0.120 C  
HETATM   12  O   UNL     2      -8.017   7.102  65.412  1.00  0.00    -0.111 OA 
HETATM   13  H   UNL     2      -7.052   7.851  67.659  1.00  0.00     0.000 HD 
HETATM   14  O   UNL     2      -9.634   5.554  65.948  1.00  0.00    -0.144 OA 
HETATM   15  O   UNL     2      -7.434   7.182  68.213  1.00  0.00    -0.097 OA 
HETATM   16  C   UNL     2      -8.751   6.453  66.184  1.00  0.00    -0.146 C  
ENDBRANCH   8  11
ENDBRANCH   4   8
BRANCH   7  17
HETATM   17  C   UNL     3     -10.702   8.613  70.353  1.00  0.00    -0.224 C  
HETATM   18  O   UNL     3     -10.780   7.445  71.254  1.00  0.00    -0.221 OA 
HETATM   19  H   UNL     3      -9.976   6.942  71.196  1.00  0.00     0.000 HD 
BRANCH  17  20
HETATM   20  C   UNL     3      -9.392   9.398  70.517  1.00  0.00    -0.262 C  
HETATM   21  C   UNL     3      -9.304  10.382  69.322  1.00  0.00    -0.187 C  
HETATM   22  O   UNL     3      -8.296   8.443  70.604  1.00  0.00    -0.112 OA 
HETATM   23  O   UNL     3     -10.365  11.103  69.236  1.00  0.00    -0.203 OA 
HETATM   24  O   UNL     3      -8.337  10.293  68.540  1.00  0.00    -0.107 OA 
HETATM   25  H   UNL     3      -7.485   8.928  70.706  1.00  0.00     0.000 HD 
ENDBRANCH  17  20
ENDBRANCH   7  17
TORSDOF 4
ENDMDL
MODEL      237
REMARK 921   NORMALIZED FREE ENERGY PREDICTED BY IDOCK:   -1.30 KCAL/MOL
REMARK 922        TOTAL FREE ENERGY PREDICTED BY IDOCK:   -2.78 KCAL/MOL
REMARK 923 INTER-LIGAND FREE ENERGY PREDICTED BY IDOCK:   -2.99 KCAL/MOL
REMARK 924 INTRA-LIGAND FREE ENERGY PREDICTED BY IDOCK:    0.20 KCAL/MOL
REMARK 927      BINDING AFFINITY PREDICTED BY RF-SCORE:    0.00 PKD
ROOT
HETATM    1 CA   UNL     1      -9.345   8.577  64.613  1.00  0.00    -0.380 Ca 
HETATM    2  O   UNL     2      -7.668  10.405  65.929  1.00  0.00    -0.134 OA 
HETATM    3  O   UNL     3     -10.647   3.988  64.193  1.00  0.00    -0.370 OA 
HETATM    4  C   UNL     2      -7.422   9.798  67.240  1.00  0.00    -0.088 C  
HETATM    5  H   UNL     2      -7.476  11.326  66.062  1.00  0.00     0.000 HD 
HETATM    6  H   UNL     3     -11.454   3.488  64.179  1.00  0.00     0.000 HD 
HETATM    7  C   UNL     3     -10.409   4.569  65.469  1.00  0.00    -0.229 C  
ENDROOT
BRANCH   4   8
HETATM    8  C   UNL     2      -7.728   8.329  67.027  1.00  0.00    -0.096 C  
HETATM    9  H   UNL     2      -7.963   7.204  65.450  1.00  0.00     0.000 HD 
HETATM   10  O   UNL     2      -7.772   8.125  65.583  1.00  0.00    -0.083 OA 
BRANCH   8  11
HETATM   11  C   UNL     2      -8.905   7.749  67.780  1.00  0.00    -0.126 C  
HETATM   12  O   UNL     2     -10.851   8.536  68.896  1.00  0.00    -0.123 OA 
HETATM   13  H   UNL     2      -9.114   6.737  69.431  1.00  0.00     0.000 HD 
HETATM   14  O   UNL     2      -9.903   9.796  67.219  1.00  0.00    -0.165 OA 
HETATM   15  O   UNL     2      -8.375   7.101  68.959  1.00  0.00    -0.124 OA 
HETATM   16  C   UNL     2      -9.988   8.814  68.038  1.00  0.00    -0.182 C  
ENDBRANCH   8  11
ENDBRANCH   4   8
BRANCH   7  17
HETATM   17  C   UNL     3      -9.102   5.377  65.491  1.00  0.00    -0.118 C  
HETATM   18  O   UNL     3      -8.852   5.955  64.153  1.00  0.00    -0.347 OA 
HETATM   19  H   UNL     3      -8.044   6.454  64.167  1.00  0.00     0.000 HD 
BRANCH  17  20
HETATM   20  C   UNL     3      -7.869   4.666  66.066  1.00  0.00    -0.095 C  
HETATM   21  C   UNL     3      -7.745   3.310  65.326  1.00  0.00    -0.081 C  
HETATM   22  O   UNL     3      -8.035   4.562  67.509  1.00  0.00    -0.098 OA 
HETATM   23  O   UNL     3      -7.734   3.477  64.051  1.00  0.00    -0.077 OA 
HETATM   24  O   UNL     3      -7.797   2.255  65.989  1.00  0.00    -0.074 OA 
HETATM   25  H   UNL     3      -7.272   4.122  67.866  1.00  0.00     0.000 HD 
ENDBRANCH  17  20
ENDBRANCH   7  17
TORSDOF 4
ENDMDL
MODEL      238
REMARK 921   NORMALIZED FREE ENERGY PREDICTED BY IDOCK:   -1.27 KCAL/MOL
REMARK 922        TOTAL FREE ENERGY PREDICTED BY IDOCK:   -2.75 KCAL/MOL
REMARK 923 INTER-LIGAND FREE ENERGY PREDICTED BY IDOCK:   -2.82 KCAL/MOL
REMARK 924 INTRA-LIGAND FREE ENERGY PREDICTED BY IDOCK:    0.08 KCAL/MOL
REMARK 927      BINDING AFFINITY PREDICTED BY RF-SCORE:    0.00 PKD
ROOT
HETATM    1 CA   UNL     1      -8.934   8.512  72.677  1.00  0.00    -0.143 Ca 
HETATM    2  O   UNL     2      -7.585   6.109  73.215  1.00  0.00    -0.096 OA 
HETATM    3  O   UNL     3     -10.101  11.738  69.335  1.00  0.00    -0.407 OA 
HETATM    4  C   UNL     2      -7.627   5.374  71.948  1.00  0.00    -0.098 C  
HETATM    5  H   UNL     2      -7.430   5.435  73.866  1.00  0.00     0.000 HD 
HETATM    6  H   UNL     3     -10.885  12.182  69.035  1.00  0.00     0.000 HD 
HETATM    7  C   UNL     3     -10.146  10.344  69.057  1.00  0.00    -0.213 C  
ENDROOT
BRANCH   4   8
HETATM    8  C   UNL     2      -7.875   6.450  70.908  1.00  0.00    -0.107 C  
HETATM    9  H   UNL     2      -7.707   8.393  70.897  1.00  0.00     0.000 HD 
HETATM   10  O   UNL     2      -7.552   7.720  71.549  1.00  0.00    -0.076 OA 
BRANCH   8  11
HETATM   11  C   UNL     2      -9.206   6.428  70.192  1.00  0.00    -0.158 C  
HETATM   12  O   UNL     2     -11.407   5.613  70.575  1.00  0.00    -0.143 OA 
HETATM   13  H   UNL     2      -9.862   5.636  68.537  1.00  0.00     0.000 HD 
HETATM   14  O   UNL     2     -10.041   6.110  72.361  1.00  0.00    -0.177 OA 
HETATM   15  O   UNL     2      -9.026   5.649  68.987  1.00  0.00    -0.111 OA 
HETATM   16  C   UNL     2     -10.340   5.956  71.123  1.00  0.00    -0.221 C  
ENDBRANCH   8  11
ENDBRANCH   4   8
BRANCH   7  17
HETATM   17  C   UNL     3      -8.876   9.626  69.543  1.00  0.00    -0.190 C  
HETATM   18  O   UNL     3      -8.418  10.230  70.812  1.00  0.00    -0.152 OA 
HETATM   19  H   UNL     3      -7.634   9.786  71.112  1.00  0.00     0.000 HD 
BRANCH  17  20
HETATM   20  C   UNL     3      -7.743   9.476  68.519  1.00  0.00    -0.081 C  
HETATM   21  C   UNL     3      -7.553  10.861  67.850  1.00  0.00    -0.095 C  
HETATM   22  O   UNL     3      -8.094   8.399  67.604  1.00  0.00    -0.115 OA 
HETATM   23  O   UNL     3      -7.375  11.781  68.730  1.00  0.00    -0.109 OA 
HETATM   24  O   UNL     3      -7.711  10.961  66.617  1.00  0.00    -0.133 OA 
HETATM   25  H   UNL     3      -7.392   8.305  66.970  1.00  0.00     0.000 HD 
ENDBRANCH  17  20
ENDBRANCH   7  17
TORSDOF 4
ENDMDL
MODEL      239
REMARK 921   NORMALIZED FREE ENERGY PREDICTED BY IDOCK:   -1.22 KCAL/MOL
REMARK 922        TOTAL FREE ENERGY PREDICTED BY IDOCK:   -2.69 KCAL/MOL
REMARK 923 INTER-LIGAND FREE ENERGY PREDICTED BY IDOCK:   -3.61 KCAL/MOL
REMARK 924 INTRA-LIGAND FREE ENERGY PREDICTED BY IDOCK:    0.93 KCAL/MOL
REMARK 927      BINDING AFFINITY PREDICTED BY RF-SCORE:    0.00 PKD
ROOT
HETATM    1 CA   UNL     1      -8.354  11.866  68.972  1.00  0.00    -0.138 Ca 
HETATM    2  O   UNL     2      -7.660  14.315  70.157  1.00  0.00    -0.204 OA 
HETATM    3  O   UNL     3     -10.023   9.699  65.041  1.00  0.00    -0.425 OA 
HETATM    4  C   UNL     2      -7.263  15.166  69.033  1.00  0.00    -0.149 C  
HETATM    5  H   UNL     2      -7.252  14.724  70.911  1.00  0.00     0.000 HD 
HETATM    6  H   UNL     3      -9.781   8.963  64.492  1.00  0.00     0.000 HD 
HETATM    7  C   UNL     3      -9.077  10.757  64.950  1.00  0.00    -0.198 C  
ENDROOT
BRANCH   4   8
HETATM    8  C   UNL     2      -7.915  14.512  67.830  1.00  0.00    -0.159 C  
HETATM    9  H   UNL     2      -7.336  13.177  66.531  1.00  0.00     0.000 HD 
HETATM   10  O   UNL     2      -6.928  13.586  67.284  1.00  0.00    -0.128 OA 
BRANCH   8  11
HETATM   11  C   UNL     2      -8.555  15.423  66.807  1.00  0.00    -0.273 C  
HETATM   12  O   UNL     2      -8.348  17.674  66.068  1.00  0.00    -0.497 OA 
HETATM   13  H   UNL     2     -10.344  16.147  66.543  1.00  0.00     0.000 HD 
HETATM   14  O   UNL     2      -6.548  16.615  67.037  1.00  0.00    -0.171 OA 
HETATM   15  O   UNL     2      -9.942  15.575  67.186  1.00  0.00    -0.237 OA 
HETATM   16  C   UNL     2      -7.764  16.736  66.647  1.00  0.00    -0.273 C  
ENDBRANCH   8  11
ENDBRANCH   4   8
BRANCH   7  17
HETATM   17  C   UNL     3      -9.469  11.948  65.839  1.00  0.00    -0.214 C  
HETATM   18  O   UNL     3      -8.922  11.756  67.198  1.00  0.00    -0.166 OA 
HETATM   19  H   UNL     3      -9.164  12.492  67.747  1.00  0.00     0.000 HD 
BRANCH  17  20
HETATM   20  C   UNL     3     -10.956  12.331  65.850  1.00  0.00    -0.302 C  
HETATM   21  C   UNL     3     -11.503  11.968  67.254  1.00  0.00    -0.335 C  
HETATM   22  O   UNL     3     -11.612  11.650  64.743  1.00  0.00    -0.221 OA 
HETATM   23  O   UNL     3     -10.794  12.505  68.182  1.00  0.00    -0.206 OA 
HETATM   24  O   UNL     3     -12.435  11.143  67.342  1.00  0.00     0.683 OA 
HETATM   25  H   UNL     3     -12.532  11.887  64.750  1.00  0.00     0.000 HD 
ENDBRANCH  17  20
ENDBRANCH   7  17
TORSDOF 4
ENDMDL
MODEL      240
REMARK 921   NORMALIZED FREE ENERGY PREDICTED BY IDOCK:   -1.20 KCAL/MOL
REMARK 922        TOTAL FREE ENERGY PREDICTED BY IDOCK:   -2.66 KCAL/MOL
REMARK 923 INTER-LIGAND FREE ENERGY PREDICTED BY IDOCK:   -2.89 KCAL/MOL
REMARK 924 INTRA-LIGAND FREE ENERGY PREDICTED BY IDOCK:    0.24 KCAL/MOL
REMARK 927      BINDING AFFINITY PREDICTED BY RF-SCORE:    0.00 PKD
ROOT
HETATM    1 CA   UNL     1      -9.244   5.126  73.299  1.00  0.00    -0.124 Ca 
HETATM    2  O   UNL     2      -6.466   4.960  72.918  1.00  0.00    -0.043 OA 
HETATM    3  O   UNL     3     -13.354   7.008  71.721  1.00  0.00    -0.448 OA 
HETATM    4  C   UNL     2      -6.281   5.177  71.480  1.00  0.00    -0.030 C  
HETATM    5  H   UNL     2      -5.671   4.518  73.188  1.00  0.00     0.000 HD 
HETATM    6  H   UNL     3     -14.225   6.701  71.502  1.00  0.00     0.000 HD 
HETATM    7  C   UNL     3     -12.378   6.513  70.813  1.00  0.00    -0.034 C  
ENDROOT
BRANCH   4   8
HETATM    8  C   UNL     2      -7.551   5.883  71.049  1.00  0.00    -0.096 C  
HETATM    9  H   UNL     2      -8.974   6.821  71.998  1.00  0.00     0.000 HD 
HETATM   10  O   UNL     2      -8.178   6.378  72.269  1.00  0.00    -0.108 OA 
BRANCH   8  11
HETATM   11  C   UNL     2      -8.482   5.133  70.123  1.00  0.00    -0.100 C  
HETATM   12  O   UNL     2      -9.373   2.939  69.909  1.00  0.00    -0.142 OA 
HETATM   13  H   UNL     2      -8.439   4.636  68.240  1.00  0.00     0.000 HD 
HETATM   14  O   UNL     2      -8.710   3.711  71.974  1.00  0.00    -0.088 OA 
HETATM   15  O   UNL     2      -7.854   5.107  68.821  1.00  0.00    -0.078 OA 
HETATM   16  C   UNL     2      -8.865   3.758  70.702  1.00  0.00    -0.079 C  
ENDBRANCH   8  11
ENDBRANCH   4   8
BRANCH   7  17
HETATM   17  C   UNL     3     -10.968   7.011  71.168  1.00  0.00    -0.247 C  
HETATM   18  O   UNL     3     -10.678   6.716  72.587  1.00  0.00    -0.215 OA 
HETATM   19  H   UNL     3      -9.807   7.024  72.806  1.00  0.00     0.000 HD 
BRANCH  17  20
HETATM   20  C   UNL     3     -10.640   8.462  70.788  1.00  0.00    -0.207 C  
HETATM   21  C   UNL     3      -9.864   8.412  69.447  1.00  0.00    -0.185 C  
HETATM   22  O   UNL     3      -9.912   9.069  71.893  1.00  0.00    -0.332 OA 
HETATM   23  O   UNL     3     -10.515   7.749  68.559  1.00  0.00    -0.202 OA 
HETATM   24  O   UNL     3      -8.707   8.876  69.404  1.00  0.00    -0.136 OA 
HETATM   25  H   UNL     3      -9.709   9.968  71.659  1.00  0.00     0.000 HD 
ENDBRANCH  17  20
ENDBRANCH   7  17
TORSDOF 4
ENDMDL
MODEL      241
REMARK 921   NORMALIZED FREE ENERGY PREDICTED BY IDOCK:   -1.17 KCAL/MOL
REMARK 922        TOTAL FREE ENERGY PREDICTED BY IDOCK:   -2.63 KCAL/MOL
REMARK 923 INTER-LIGAND FREE ENERGY PREDICTED BY IDOCK:   -4.00 KCAL/MOL
REMARK 924 INTRA-LIGAND FREE ENERGY PREDICTED BY IDOCK:    1.37 KCAL/MOL
REMARK 927      BINDING AFFINITY PREDICTED BY RF-SCORE:    0.00 PKD
ROOT
HETATM    1 CA   UNL     1     -12.890   7.006  70.968  1.00  0.00    -0.315 Ca 
HETATM    2  O   UNL     2     -14.368   9.380  70.724  1.00  0.00    -0.343 OA 
HETATM    3  O   UNL     3      -8.609   4.930  70.419  1.00  0.00    -0.096 OA 
HETATM    4  C   UNL     2     -13.381  10.447  70.907  1.00  0.00    -0.129 C  
HETATM    5  H   UNL     2     -15.199   9.800  70.914  1.00  0.00     0.000 HD 
HETATM    6  H   UNL     3      -8.026   4.383  70.932  1.00  0.00     0.000 HD 
HETATM    7  C   UNL     3      -8.726   6.235  70.970  1.00  0.00    -0.136 C  
ENDROOT
BRANCH   4   8
HETATM    8  C   UNL     2     -12.055   9.776  70.604  1.00  0.00    -0.230 C  
HETATM    9  H   UNL     2     -10.590   9.105  71.703  1.00  0.00     0.000 HD 
HETATM   10  O   UNL     2     -11.420   9.526  71.893  1.00  0.00    -0.355 OA 
BRANCH   8  11
HETATM   11  C   UNL     2     -11.161  10.437  69.579  1.00  0.00    -0.264 C  
HETATM   12  O   UNL     2     -10.888  12.583  68.594  1.00  0.00    -0.235 OA 
HETATM   13  H   UNL     2     -10.849  10.198  67.672  1.00  0.00     0.000 HD 
HETATM   14  O   UNL     2     -11.825  12.395  70.688  1.00  0.00    -0.219 OA 
HETATM   15  O   UNL     2     -11.412   9.783  68.315  1.00  0.00    -0.001 OA 
HETATM   16  C   UNL     2     -11.338  11.968  69.582  1.00  0.00    -0.179 C  
ENDBRANCH   8  11
ENDBRANCH   4   8
BRANCH   7  17
HETATM   17  C   UNL     3      -9.670   7.120  70.140  1.00  0.00    -0.171 C  
HETATM   18  O   UNL     3     -10.811   7.550  70.974  1.00  0.00    -0.230 OA 
HETATM   19  H   UNL     3     -11.395   8.097  70.461  1.00  0.00     0.000 HD 
BRANCH  17  20
HETATM   20  C   UNL     3     -10.111   6.560  68.780  1.00  0.00    -0.161 C  
HETATM   21  C   UNL     3      -9.104   7.090  67.727  1.00  0.00    -0.126 C  
HETATM   22  O   UNL     3     -11.495   6.950  68.553  1.00  0.00    -0.525 OA 
HETATM   23  O   UNL     3      -7.894   6.817  68.063  1.00  0.00    -0.109 OA 
HETATM   24  O   UNL     3      -9.529   7.794  66.789  1.00  0.00    -0.172 OA 
HETATM   25  H   UNL     3     -11.769   6.604  67.712  1.00  0.00     0.000 HD 
ENDBRANCH  17  20
ENDBRANCH   7  17
TORSDOF 4
ENDMDL
MODEL      242
REMARK 921   NORMALIZED FREE ENERGY PREDICTED BY IDOCK:   -1.12 KCAL/MOL
REMARK 922        TOTAL FREE ENERGY PREDICTED BY IDOCK:   -2.56 KCAL/MOL
REMARK 923 INTER-LIGAND FREE ENERGY PREDICTED BY IDOCK:   -3.72 KCAL/MOL
REMARK 924 INTRA-LIGAND FREE ENERGY PREDICTED BY IDOCK:    1.16 KCAL/MOL
REMARK 927      BINDING AFFINITY PREDICTED BY RF-SCORE:    0.00 PKD
ROOT
HETATM    1 CA   UNL     1      -9.721   5.606  72.160  1.00  0.00    -0.147 Ca 
HETATM    2  O   UNL     2     -12.149   6.119  70.847  1.00  0.00    -0.073 OA 
HETATM    3  O   UNL     3      -5.808   7.526  74.145  1.00  0.00    -0.070 OA 
HETATM    4  C   UNL     2     -12.554   7.442  71.329  1.00  0.00    -0.340 C  
HETATM    5  H   UNL     2     -12.957   5.732  70.531  1.00  0.00     0.000 HD 
HETATM    6  H   UNL     3      -5.324   7.443  74.958  1.00  0.00     0.000 HD 
HETATM    7  C   UNL     3      -7.093   8.098  74.353  1.00  0.00    -0.167 C  
ENDROOT
BRANCH   4   8
HETATM    8  C   UNL     2     -11.264   8.059  71.834  1.00  0.00    -0.280 C  
HETATM    9  H   UNL     2     -10.522   8.394  73.606  1.00  0.00     0.000 HD 
HETATM   10  O   UNL     2     -11.330   8.008  73.290  1.00  0.00    -0.270 OA 
BRANCH   8  11
HETATM   11  C   UNL     2     -10.871   9.405  71.269  1.00  0.00    -0.361 C  
HETATM   12  O   UNL     2     -11.946  11.357  70.439  1.00  0.00    -0.340 OA 
HETATM   13  H   UNL     2      -9.915  10.001  69.679  1.00  0.00     0.000 HD 
HETATM   14  O   UNL     2     -13.038   9.998  71.943  1.00  0.00    -0.412 OA 
HETATM   15  O   UNL     2     -10.163   9.155  70.033  1.00  0.00    -0.185 OA 
HETATM   16  C   UNL     2     -12.086  10.346  71.158  1.00  0.00    -0.386 C  
ENDBRANCH   8  11
ENDBRANCH   4   8
BRANCH   7  17
HETATM   17  C   UNL     3      -7.876   8.232  73.038  1.00  0.00    -0.132 C  
HETATM   18  O   UNL     3      -8.965   7.233  73.004  1.00  0.00    -0.127 OA 
HETATM   19  H   UNL     3      -9.449   7.316  72.191  1.00  0.00     0.000 HD 
BRANCH  17  20
HETATM   20  C   UNL     3      -7.046   8.243  71.747  1.00  0.00    -0.085 C  
HETATM   21  C   UNL     3      -6.378   6.849  71.629  1.00  0.00    -0.042 C  
HETATM   22  O   UNL     3      -6.116   9.362  71.811  1.00  0.00    -0.191 OA 
HETATM   23  O   UNL     3      -7.251   5.908  71.708  1.00  0.00    -0.086 OA 
HETATM   24  O   UNL     3      -5.133   6.777  71.601  1.00  0.00    -0.026 OA 
HETATM   25  H   UNL     3      -5.602   9.369  71.012  1.00  0.00     0.000 HD 
ENDBRANCH  17  20
ENDBRANCH   7  17
TORSDOF 4
ENDMDL
MODEL      243
REMARK 921   NORMALIZED FREE ENERGY PREDICTED BY IDOCK:   -1.05 KCAL/MOL
REMARK 922        TOTAL FREE ENERGY PREDICTED BY IDOCK:   -2.47 KCAL/MOL
REMARK 923 INTER-LIGAND FREE ENERGY PREDICTED BY IDOCK:   -2.78 KCAL/MOL
REMARK 924 INTRA-LIGAND FREE ENERGY PREDICTED BY IDOCK:    0.31 KCAL/MOL
REMARK 927      BINDING AFFINITY PREDICTED BY RF-SCORE:    0.00 PKD
ROOT
HETATM    1 CA   UNL     1      -9.491   4.920  73.068  1.00  0.00    -0.127 Ca 
HETATM    2  O   UNL     2      -7.767   2.951  72.049  1.00  0.00    -0.051 OA 
HETATM    3  O   UNL     3     -11.764   9.040  72.180  1.00  0.00    -0.356 OA 
HETATM    4  C   UNL     2      -7.996   2.978  70.602  1.00  0.00    -0.046 C  
HETATM    5  H   UNL     2      -7.388   2.095  72.207  1.00  0.00     0.000 HD 
HETATM    6  H   UNL     3     -12.645   9.385  72.265  1.00  0.00     0.000 HD 
HETATM    7  C   UNL     3     -11.695   8.014  71.198  1.00  0.00    -0.284 C  
ENDROOT
BRANCH   4   8
HETATM    8  C   UNL     2      -8.601   4.344  70.351  1.00  0.00    -0.077 C  
HETATM    9  H   UNL     2     -10.376   5.113  70.611  1.00  0.00     0.000 HD 
HETATM   10  O   UNL     2      -9.997   4.256  70.768  1.00  0.00    -0.200 OA 
BRANCH   8  11
HETATM   11  C   UNL     2      -8.391   4.956  68.985  1.00  0.00    -0.082 C  
HETATM   12  O   UNL     2      -8.316   4.239  66.719  1.00  0.00    -0.101 OA 
HETATM   13  H   UNL     2      -6.914   5.870  68.102  1.00  0.00     0.000 HD 
HETATM   14  O   UNL     2      -9.515   3.027  68.266  1.00  0.00    -0.197 OA 
HETATM   15  O   UNL     2      -7.046   5.485  68.961  1.00  0.00    -0.064 OA 
HETATM   16  C   UNL     2      -8.731   3.957  67.862  1.00  0.00    -0.103 C  
ENDBRANCH   8  11
ENDBRANCH   4   8
BRANCH   7  17
HETATM   17  C   UNL     3     -10.270   7.455  71.059  1.00  0.00    -0.191 C  
HETATM   18  O   UNL     3      -9.858   6.823  72.330  1.00  0.00    -0.159 OA 
HETATM   19  H   UNL     3      -8.977   6.478  72.245  1.00  0.00     0.000 HD 
BRANCH  17  20
HETATM   20  C   UNL     3      -9.209   8.418  70.508  1.00  0.00    -0.151 C  
HETATM   21  C   UNL     3      -9.604   8.731  69.042  1.00  0.00    -0.162 C  
HETATM   22  O   UNL     3      -7.902   7.798  70.670  1.00  0.00    -0.092 OA 
HETATM   23  O   UNL     3     -10.816   9.153  68.968  1.00  0.00    -0.191 OA 
HETATM   24  O   UNL     3      -8.807   8.439  68.128  1.00  0.00    -0.141 OA 
HETATM   25  H   UNL     3      -7.245   8.393  70.328  1.00  0.00     0.000 HD 
ENDBRANCH  17  20
ENDBRANCH   7  17
TORSDOF 4
ENDMDL
MODEL      244
REMARK 921   NORMALIZED FREE ENERGY PREDICTED BY IDOCK:   -0.99 KCAL/MOL
REMARK 922        TOTAL FREE ENERGY PREDICTED BY IDOCK:   -2.41 KCAL/MOL
REMARK 923 INTER-LIGAND FREE ENERGY PREDICTED BY IDOCK:   -3.61 KCAL/MOL
REMARK 924 INTRA-LIGAND FREE ENERGY PREDICTED BY IDOCK:    1.21 KCAL/MOL
REMARK 927      BINDING AFFINITY PREDICTED BY RF-SCORE:    0.00 PKD
ROOT
HETATM    1 CA   UNL     1     -10.122  13.484  69.401  1.00  0.00    -0.357 Ca 
HETATM    2  O   UNL     2     -12.599  13.545  68.079  1.00  0.00    -0.104 OA 
HETATM    3  O   UNL     3      -5.620  11.853  69.306  1.00  0.00    -0.055 OA 
HETATM    4  C   UNL     2     -12.261  13.385  66.662  1.00  0.00    -0.334 C  
HETATM    5  H   UNL     2     -13.462  13.941  68.066  1.00  0.00     0.000 HD 
HETATM    6  H   UNL     3      -4.746  12.208  69.413  1.00  0.00     0.000 HD 
HETATM    7  C   UNL     3      -6.247  12.346  68.129  1.00  0.00    -0.065 C  
ENDROOT
BRANCH   4   8
HETATM    8  C   UNL     2     -10.883  12.754  66.682  1.00  0.00    -0.264 C  
HETATM    9  H   UNL     2      -9.838  11.816  68.036  1.00  0.00     0.000 HD 
HETATM   10  O   UNL     2     -10.701  12.212  68.024  1.00  0.00    -0.200 OA 
BRANCH   8  11
HETATM   11  C   UNL     2      -9.729  13.593  66.181  1.00  0.00    -0.255 C  
HETATM   12  O   UNL     2      -8.836  15.767  66.540  1.00  0.00    -0.254 OA 
HETATM   13  H   UNL     2      -9.221  14.338  64.454  1.00  0.00     0.000 HD 
HETATM   14  O   UNL     2     -10.070  14.747  68.194  1.00  0.00    -0.215 OA 
HETATM   15  O   UNL     2      -9.947  13.812  64.769  1.00  0.00    -0.295 OA 
HETATM   16  C   UNL     2      -9.547  14.866  67.029  1.00  0.00    -0.238 C  
ENDBRANCH   8  11
ENDBRANCH   4   8
BRANCH   7  17
HETATM   17  C   UNL     3      -7.662  11.772  67.956  1.00  0.00    -0.123 C  
HETATM   18  O   UNL     3      -8.434  11.966  69.202  1.00  0.00    -0.353 OA 
HETATM   19  H   UNL     3      -9.308  11.612  69.095  1.00  0.00     0.000 HD 
BRANCH  17  20
HETATM   20  C   UNL     3      -7.757  10.336  67.422  1.00  0.00    -0.095 C  
HETATM   21  C   UNL     3      -8.053   9.422  68.639  1.00  0.00    -0.104 C  
HETATM   22  O   UNL     3      -6.521  10.030  66.715  1.00  0.00    -0.068 OA 
HETATM   23  O   UNL     3      -9.085   9.832  69.286  1.00  0.00    -0.160 OA 
HETATM   24  O   UNL     3      -7.242   8.518  68.925  1.00  0.00    -0.074 OA 
HETATM   25  H   UNL     3      -6.579   9.140  66.384  1.00  0.00     0.000 HD 
ENDBRANCH  17  20
ENDBRANCH   7  17
TORSDOF 4
ENDMDL
MODEL      245
REMARK 921   NORMALIZED FREE ENERGY PREDICTED BY IDOCK:   -0.91 KCAL/MOL
REMARK 922        TOTAL FREE ENERGY PREDICTED BY IDOCK:   -2.30 KCAL/MOL
REMARK 923 INTER-LIGAND FREE ENERGY PREDICTED BY IDOCK:   -2.85 KCAL/MOL
REMARK 924 INTRA-LIGAND FREE ENERGY PREDICTED BY IDOCK:    0.55 KCAL/MOL
REMARK 927      BINDING AFFINITY PREDICTED BY RF-SCORE:    0.00 PKD
ROOT
HETATM    1 CA   UNL     1     -10.850   5.704  71.457  1.00  0.00    -0.206 Ca 
HETATM    2  O   UNL     2     -12.445   7.925  70.818  1.00  0.00    -0.513 OA 
HETATM    3  O   UNL     3      -6.871   3.253  70.416  1.00  0.00    -0.033 OA 
HETATM    4  C   UNL     2     -11.504   8.905  70.269  1.00  0.00    -0.105 C  
HETATM    5  H   UNL     2     -13.191   8.448  71.086  1.00  0.00     0.000 HD 
HETATM    6  H   UNL     3      -6.129   2.892  70.886  1.00  0.00     0.000 HD 
HETATM    7  C   UNL     3      -6.871   4.674  70.444  1.00  0.00    -0.037 C  
ENDROOT
BRANCH   4   8
HETATM    8  C   UNL     2     -10.314   8.071  69.841  1.00  0.00    -0.221 C  
HETATM    9  H   UNL     2      -8.440   7.999  70.381  1.00  0.00     0.000 HD 
HETATM   10  O   UNL     2      -9.186   8.522  70.649  1.00  0.00    -0.148 OA 
BRANCH   8  11
HETATM   11  C   UNL     2     -10.027   7.979  68.359  1.00  0.00    -0.185 C  
HETATM   12  O   UNL     2     -10.226   6.373  66.616  1.00  0.00    -0.187 OA 
HETATM   13  H   UNL     2      -8.418   8.062  67.264  1.00  0.00     0.000 HD 
HETATM   14  O   UNL     2     -11.605   6.246  68.455  1.00  0.00    -0.077 OA 
HETATM   15  O   UNL     2      -8.598   8.120  68.194  1.00  0.00    -0.128 OA 
HETATM   16  C   UNL     2     -10.643   6.707  67.744  1.00  0.00    -0.252 C  
ENDBRANCH   8  11
ENDBRANCH   4   8
BRANCH   7  17
HETATM   17  C   UNL     3      -8.072   5.258  69.683  1.00  0.00    -0.091 C  
HETATM   18  O   UNL     3      -8.950   5.985  70.623  1.00  0.00    -0.143 OA 
HETATM   19  H   UNL     3      -9.693   6.346  70.154  1.00  0.00     0.000 HD 
BRANCH  17  20
HETATM   20  C   UNL     3      -8.848   4.286  68.783  1.00  0.00    -0.101 C  
HETATM   21  C   UNL     3      -9.298   3.104  69.680  1.00  0.00    -0.151 C  
HETATM   22  O   UNL     3      -7.990   3.915  67.667  1.00  0.00    -0.088 OA 
HETATM   23  O   UNL     3      -9.940   3.523  70.711  1.00  0.00    -0.115 OA 
HETATM   24  O   UNL     3      -8.908   1.953  69.399  1.00  0.00    -0.065 OA 
HETATM   25  H   UNL     3      -8.470   3.313  67.109  1.00  0.00     0.000 HD 
ENDBRANCH  17  20
ENDBRANCH   7  17
TORSDOF 4
ENDMDL
MODEL      246
REMARK 921   NORMALIZED FREE ENERGY PREDICTED BY IDOCK:   -0.73 KCAL/MOL
REMARK 922        TOTAL FREE ENERGY PREDICTED BY IDOCK:   -2.08 KCAL/MOL
REMARK 923 INTER-LIGAND FREE ENERGY PREDICTED BY IDOCK:   -2.44 KCAL/MOL
REMARK 924 INTRA-LIGAND FREE ENERGY PREDICTED BY IDOCK:    0.36 KCAL/MOL
REMARK 927      BINDING AFFINITY PREDICTED BY RF-SCORE:    0.00 PKD
ROOT
HETATM    1 CA   UNL     1      -8.616  12.319  65.233  1.00  0.00    -0.387 Ca 
HETATM    2  O   UNL     2      -8.904  13.768  67.621  1.00  0.00    -0.169 OA 
HETATM    3  O   UNL     3      -7.402   8.127  63.264  1.00  0.00    -0.093 OA 
HETATM    4  C   UNL     2      -9.203  12.750  68.632  1.00  0.00     0.041 C  
HETATM    5  H   UNL     2      -9.225  14.575  68.005  1.00  0.00     0.000 HD 
HETATM    6  H   UNL     3      -7.766   7.519  62.631  1.00  0.00     0.000 HD 
HETATM    7  C   UNL     3      -8.183   8.181  64.451  1.00  0.00    -0.101 C  
ENDROOT
BRANCH   4   8
HETATM    8  C   UNL     2      -8.691  11.462  68.019  1.00  0.00    -0.148 C  
HETATM    9  H   UNL     2      -9.401  10.208  66.703  1.00  0.00     0.000 HD 
HETATM   10  O   UNL     2      -9.721  11.015  67.087  1.00  0.00    -0.171 OA 
BRANCH   8  11
HETATM   11  C   UNL     2      -8.192  10.393  68.965  1.00  0.00    -0.141 C  
HETATM   12  O   UNL     2      -8.895   9.350  70.983  1.00  0.00    -0.250 OA 
HETATM   13  H   UNL     2      -6.641  10.204  70.128  1.00  0.00     0.000 HD 
HETATM   14  O   UNL     2     -10.457  10.277  69.567  1.00  0.00    -0.214 OA 
HETATM   15  O   UNL     2      -6.954  10.876  69.534  1.00  0.00    -0.108 OA 
HETATM   16  C   UNL     2      -9.278   9.990  69.982  1.00  0.00    -0.101 C  
ENDBRANCH   8  11
ENDBRANCH   4   8
BRANCH   7  17
HETATM   17  C   UNL     3      -7.592   9.163  65.475  1.00  0.00    -0.090 C  
HETATM   18  O   UNL     3      -7.763  10.549  64.991  1.00  0.00    -0.254 OA 
HETATM   19  H   UNL     3      -7.399  11.157  65.623  1.00  0.00     0.000 HD 
BRANCH  17  20
HETATM   20  C   UNL     3      -6.161   8.877  65.950  1.00  0.00    -0.056 C  
HETATM   21  C   UNL     3      -6.256   7.752  67.012  1.00  0.00    -0.053 C  
HETATM   22  O   UNL     3      -5.582  10.123  66.431  1.00  0.00    -0.047 OA 
HETATM   23  O   UNL     3      -6.892   6.734  66.553  1.00  0.00    -0.058 OA 
HETATM   24  O   UNL     3      -5.847   7.979  68.168  1.00  0.00    -0.038 OA 
HETATM   25  H   UNL     3      -4.695   9.947  66.725  1.00  0.00     0.000 HD 
ENDBRANCH  17  20
ENDBRANCH   7  17
TORSDOF 4
ENDMDL
MODEL      247
REMARK 921   NORMALIZED FREE ENERGY PREDICTED BY IDOCK:   -0.41 KCAL/MOL
REMARK 922        TOTAL FREE ENERGY PREDICTED BY IDOCK:   -1.69 KCAL/MOL
REMARK 923 INTER-LIGAND FREE ENERGY PREDICTED BY IDOCK:   -4.41 KCAL/MOL
REMARK 924 INTRA-LIGAND FREE ENERGY PREDICTED BY IDOCK:    2.72 KCAL/MOL
REMARK 927      BINDING AFFINITY PREDICTED BY RF-SCORE:    0.00 PKD
ROOT
HETATM    1 CA   UNL     1      -8.003  14.892  65.609  1.00  0.00    -0.123 Ca 
HETATM    2  O   UNL     2      -9.276  16.911  67.088  1.00  0.00    -0.222 OA 
HETATM    3  O   UNL     3      -8.515  10.670  63.409  1.00  0.00    -0.231 OA 
HETATM    4  C   UNL     2     -10.676  16.851  66.659  1.00  0.00    -0.094 C  
HETATM    5  H   UNL     2      -9.183  17.784  67.449  1.00  0.00     0.000 HD 
HETATM    6  H   UNL     3      -8.303  10.291  62.565  1.00  0.00     0.000 HD 
HETATM    7  C   UNL     3      -9.508  11.681  63.296  1.00  0.00    -0.240 C  
ENDROOT
BRANCH   4   8
HETATM    8  C   UNL     2     -10.824  15.457  66.082  1.00  0.00    -0.313 C  
HETATM    9  H   UNL     2      -9.769  14.380  64.844  1.00  0.00     0.000 HD 
HETATM   10  O   UNL     2      -9.676  15.253  65.205  1.00  0.00    -0.271 OA 
BRANCH   8  11
HETATM   11  C   UNL     2     -12.158  15.099  65.466  1.00  0.00     0.194 C  
HETATM   12  O   UNL     2     -13.617  13.224  65.377  1.00  0.00    -0.299 OA 
HETATM   13  H   UNL     2     -12.828  14.932  63.645  1.00  0.00     0.000 HD 
HETATM   14  O   UNL     2     -12.172  13.468  67.153  1.00  0.00    -0.362 OA 
HETATM   15  O   UNL     2     -11.990  15.156  64.032  1.00  0.00    -0.460 OA 
HETATM   16  C   UNL     2     -12.692  13.763  66.019  1.00  0.00    -0.354 C  
ENDBRANCH   8  11
ENDBRANCH   4   8
BRANCH   7  17
HETATM   17  C   UNL     3      -9.853  12.295  64.663  1.00  0.00    -0.100 C  
HETATM   18  O   UNL     3      -9.725  13.765  64.594  1.00  0.00    -0.558 OA 
HETATM   19  H   UNL     3      -9.938  14.145  65.438  1.00  0.00     0.000 HD 
BRANCH  17  20
HETATM   20  C   UNL     3      -9.135  11.696  65.880  1.00  0.00    -0.149 C  
HETATM   21  C   UNL     3     -10.106  10.669  66.516  1.00  0.00    -0.223 C  
HETATM   22  O   UNL     3      -8.739  12.788  66.759  1.00  0.00    -0.313 OA 
HETATM   23  O   UNL     3     -10.510   9.813  65.646  1.00  0.00    -0.106 OA 
HETATM   24  O   UNL     3     -10.476  10.839  67.695  1.00  0.00    -0.190 OA 
HETATM   25  H   UNL     3      -8.295  12.418  67.513  1.00  0.00     0.000 HD 
ENDBRANCH  17  20
ENDBRANCH   7  17
TORSDOF 4
ENDMDL
MODEL      248
REMARK 921   NORMALIZED FREE ENERGY PREDICTED BY IDOCK:   -0.27 KCAL/MOL
REMARK 922        TOTAL FREE ENERGY PREDICTED BY IDOCK:   -1.51 KCAL/MOL
REMARK 923 INTER-LIGAND FREE ENERGY PREDICTED BY IDOCK:   -4.92 KCAL/MOL
REMARK 924 INTRA-LIGAND FREE ENERGY PREDICTED BY IDOCK:    3.41 KCAL/MOL
REMARK 927      BINDING AFFINITY PREDICTED BY RF-SCORE:    0.00 PKD
ROOT
HETATM    1 CA   UNL     1     -10.251  13.709  69.476  1.00  0.00    -0.369 Ca 
HETATM    2  O   UNL     2     -10.411  10.915  69.701  1.00  0.00    -0.415 OA 
HETATM    3  O   UNL     3      -9.305  17.403  66.580  1.00  0.00    -0.256 OA 
HETATM    4  C   UNL     2     -10.742  10.457  68.349  1.00  0.00    -0.225 C  
HETATM    5  H   UNL     2     -10.680  10.195  70.260  1.00  0.00     0.000 HD 
HETATM    6  H   UNL     3      -9.715  18.225  66.338  1.00  0.00     0.000 HD 
HETATM    7  C   UNL     3     -10.057  16.286  66.122  1.00  0.00    -0.344 C  
ENDROOT
BRANCH   4   8
HETATM    8  C   UNL     2     -10.314  11.606  67.458  1.00  0.00    -0.197 C  
HETATM    9  H   UNL     2     -11.196  12.644  66.061  1.00  0.00     0.000 HD 
HETATM   10  O   UNL     2     -11.465  11.925  66.620  1.00  0.00    -0.365 OA 
BRANCH   8  11
HETATM   11  C   UNL     2      -9.011  11.451  66.705  1.00  0.00    -0.176 C  
HETATM   12  O   UNL     2      -7.965   9.850  65.292  1.00  0.00    -0.125 OA 
HETATM   13  H   UNL     2      -7.137  11.315  67.218  1.00  0.00     0.000 HD 
HETATM   14  O   UNL     2     -10.262   9.929  65.432  1.00  0.00    -0.273 OA 
HETATM   15  O   UNL     2      -7.955  11.412  67.691  1.00  0.00    -0.115 OA 
HETATM   16  C   UNL     2      -9.059  10.254  65.736  1.00  0.00    -0.170 C  
ENDBRANCH   8  11
ENDBRANCH   4   8
BRANCH   7  17
HETATM   17  C   UNL     3      -9.393  14.956  66.514  1.00  0.00    -0.282 C  
HETATM   18  O   UNL     3      -9.869  13.880  65.619  1.00  0.00    -0.422 OA 
HETATM   19  H   UNL     3      -9.459  13.058  65.860  1.00  0.00     0.000 HD 
BRANCH  17  20
HETATM   20  C   UNL     3      -9.469  14.565  67.996  1.00  0.00    -0.209 C  
HETATM   21  C   UNL     3     -10.786  15.164  68.553  1.00  0.00    -0.247 C  
HETATM   22  O   UNL     3      -8.258  15.035  68.655  1.00  0.00    -0.139 OA 
HETATM   23  O   UNL     3     -11.795  14.806  67.842  1.00  0.00    -0.345 OA 
HETATM   24  O   UNL     3     -10.726  15.982  69.492  1.00  0.00    -0.250 OA 
HETATM   25  H   UNL     3      -8.304  14.793  69.573  1.00  0.00     0.000 HD 
ENDBRANCH  17  20
ENDBRANCH   7  17
TORSDOF 4
ENDMDL
MODEL      249
REMARK 921   NORMALIZED FREE ENERGY PREDICTED BY IDOCK:   -0.08 KCAL/MOL
REMARK 922        TOTAL FREE ENERGY PREDICTED BY IDOCK:   -1.28 KCAL/MOL
REMARK 923 INTER-LIGAND FREE ENERGY PREDICTED BY IDOCK:   -2.90 KCAL/MOL
REMARK 924 INTRA-LIGAND FREE ENERGY PREDICTED BY IDOCK:    1.62 KCAL/MOL
REMARK 927      BINDING AFFINITY PREDICTED BY RF-SCORE:    0.00 PKD
ROOT
HETATM    1 CA   UNL     1      -9.646  10.318  70.808  1.00  0.00    -0.312 Ca 
HETATM    2  O   UNL     2     -12.278  10.856  69.989  1.00  0.00    -0.315 OA 
HETATM    3  O   UNL     3      -5.166   9.393  69.392  1.00  0.00    -0.035 OA 
HETATM    4  C   UNL     2     -12.129  11.506  68.684  1.00  0.00    -0.129 C  
HETATM    5  H   UNL     2     -13.143  11.119  70.280  1.00  0.00     0.000 HD 
HETATM    6  H   UNL     3      -4.292   9.712  69.583  1.00  0.00     0.000 HD 
HETATM    7  C   UNL     3      -5.954  10.380  68.737  1.00  0.00    -0.040 C  
ENDROOT
BRANCH   4   8
HETATM    8  C   UNL     2     -10.748  11.086  68.220  1.00  0.00    -0.196 C  
HETATM    9  H   UNL     2      -9.189  10.325  69.112  1.00  0.00     0.000 HD 
HETATM   10  O   UNL     2     -10.053  10.588  69.403  1.00  0.00    -0.222 OA 
BRANCH   8  11
HETATM   11  C   UNL     2      -9.959  12.082  67.400  1.00  0.00    -0.191 C  
HETATM   12  O   UNL     2      -9.778  14.442  67.180  1.00  0.00    -0.237 OA 
HETATM   13  H   UNL     2      -9.843  12.512  65.504  1.00  0.00     0.000 HD 
HETATM   14  O   UNL     2     -10.499  13.528  69.166  1.00  0.00    -0.118 OA 
HETATM   15  O   UNL     2     -10.339  11.887  66.019  1.00  0.00    -0.220 OA 
HETATM   16  C   UNL     2     -10.128  13.515  67.939  1.00  0.00    -0.248 C  
ENDBRANCH   8  11
ENDBRANCH   4   8
BRANCH   7  17
HETATM   17  C   UNL     3      -7.368   9.865  68.427  1.00  0.00    -0.078 C  
HETATM   18  O   UNL     3      -7.904   9.145  69.601  1.00  0.00    -0.075 OA 
HETATM   19  H   UNL     3      -8.778   8.826  69.410  1.00  0.00     0.000 HD 
BRANCH  17  20
HETATM   20  C   UNL     3      -7.535   9.072  67.123  1.00  0.00    -0.087 C  
HETATM   21  C   UNL     3      -8.040   7.660  67.516  1.00  0.00    -0.120 C  
HETATM   22  O   UNL     3      -6.265   9.091  66.411  1.00  0.00    -0.062 OA 
HETATM   23  O   UNL     3      -9.092   7.731  68.250  1.00  0.00    -0.132 OA 
HETATM   24  O   UNL     3      -7.348   6.667  67.211  1.00  0.00    -0.086 OA 
HETATM   25  H   UNL     3      -6.368   8.601  65.603  1.00  0.00     0.000 HD 
ENDBRANCH  17  20
ENDBRANCH   7  17
TORSDOF 4
ENDMDL
MODEL      250
REMARK 921   NORMALIZED FREE ENERGY PREDICTED BY IDOCK:    0.56 KCAL/MOL
REMARK 922        TOTAL FREE ENERGY PREDICTED BY IDOCK:   -0.49 KCAL/MOL
REMARK 923 INTER-LIGAND FREE ENERGY PREDICTED BY IDOCK:   -3.84 KCAL/MOL
REMARK 924 INTRA-LIGAND FREE ENERGY PREDICTED BY IDOCK:    3.35 KCAL/MOL
REMARK 927      BINDING AFFINITY PREDICTED BY RF-SCORE:    0.00 PKD
ROOT
HETATM    1 CA   UNL     1      -9.493  14.323  69.716  1.00  0.00    -0.375 Ca 
HETATM    2  O   UNL     2     -11.091  16.622  69.928  1.00  0.00    -0.405 OA 
HETATM    3  O   UNL     3      -6.112  12.067  67.185  1.00  0.00    -0.136 OA 
HETATM    4  C   UNL     2     -10.300  17.677  69.287  1.00  0.00    -0.105 C  
HETATM    5  H   UNL     2     -11.700  17.096  70.481  1.00  0.00     0.000 HD 
HETATM    6  H   UNL     3      -5.284  11.632  67.354  1.00  0.00     0.000 HD 
HETATM    7  C   UNL     3      -6.032  13.465  67.433  1.00  0.00     0.090 C  
ENDROOT
BRANCH   4   8
HETATM    8  C   UNL     2      -9.327  16.922  68.404  1.00  0.00    -0.255 C  
HETATM    9  H   UNL     2      -7.400  17.018  68.113  1.00  0.00     0.000 HD 
HETATM   10  O   UNL     2      -8.010  17.491  68.667  1.00  0.00    -0.266 OA 
BRANCH   8  11
HETATM   11  C   UNL     2      -9.676  16.793  66.938  1.00  0.00    -0.257 C  
HETATM   12  O   UNL     2     -10.668  18.122  65.234  1.00  0.00    -0.605 OA 
HETATM   13  H   UNL     2     -10.884  15.665  65.909  1.00  0.00     0.000 HD 
HETATM   14  O   UNL     2      -9.624  19.137  67.018  1.00  0.00    -0.305 OA 
HETATM   15  O   UNL     2     -10.666  15.746  66.829  1.00  0.00    -0.315 OA 
HETATM   16  C   UNL     2     -10.079  18.152  66.334  1.00  0.00    -0.389 C  
ENDBRANCH   8  11
ENDBRANCH   4   8
BRANCH   7  17
HETATM   17  C   UNL     3      -7.371  14.168  67.159  1.00  0.00     0.167 C  
HETATM   18  O   UNL     3      -7.410  15.459  67.877  1.00  0.00    -0.119 OA 
HETATM   19  H   UNL     3      -8.238  15.894  67.708  1.00  0.00     0.000 HD 
BRANCH  17  20
HETATM   20  C   UNL     3      -8.639  13.332  67.379  1.00  0.00    -0.204 C  
HETATM   21  C   UNL     3      -8.271  12.213  68.386  1.00  0.00    -0.145 C  
HETATM   22  O   UNL     3      -9.105  12.859  66.083  1.00  0.00    -0.441 OA 
HETATM   23  O   UNL     3      -7.748  12.702  69.454  1.00  0.00     0.345 OA 
HETATM   24  O   UNL     3      -8.390  11.022  68.033  1.00  0.00    -0.117 OA 
HETATM   25  H   UNL     3      -9.890  12.341  66.219  1.00  0.00     0.000 HD 
ENDBRANCH  17  20
ENDBRANCH   7  17
TORSDOF 4
ENDMDL
MODEL      251
REMARK 921   NORMALIZED FREE ENERGY PREDICTED BY IDOCK:    0.60 KCAL/MOL
REMARK 922        TOTAL FREE ENERGY PREDICTED BY IDOCK:   -0.44 KCAL/MOL
REMARK 923 INTER-LIGAND FREE ENERGY PREDICTED BY IDOCK:   -3.60 KCAL/MOL
REMARK 924 INTRA-LIGAND FREE ENERGY PREDICTED BY IDOCK:    3.16 KCAL/MOL
REMARK 927      BINDING AFFINITY PREDICTED BY RF-SCORE:    0.00 PKD
ROOT
HETATM    1 CA   UNL     1      -8.476  12.780  65.745  1.00  0.00    -0.384 Ca 
HETATM    2  O   UNL     2      -9.519  15.357  65.348  1.00  0.00    -0.298 OA 
HETATM    3  O   UNL     3      -7.071   9.529  68.968  1.00  0.00    -0.064 OA 
HETATM    4  C   UNL     2     -10.308  15.622  66.554  1.00  0.00    -0.291 C  
HETATM    5  H   UNL     2      -9.871  15.961  64.705  1.00  0.00     0.000 HD 
HETATM    6  H   UNL     3      -7.222   8.608  69.144  1.00  0.00     0.000 HD 
HETATM    7  C   UNL     3      -8.246  10.303  69.171  1.00  0.00    -0.152 C  
ENDROOT
BRANCH   4   8
HETATM    8  C   UNL     2      -9.747  14.658  67.579  1.00  0.00    -0.210 C  
HETATM    9  H   UNL     2     -10.019  12.763  67.954  1.00  0.00     0.000 HD 
HETATM   10  O   UNL     2     -10.371  13.367  67.311  1.00  0.00    -0.242 OA 
BRANCH   8  11
HETATM   11  C   UNL     2      -9.786  15.086  69.029  1.00  0.00    -0.229 C  
HETATM   12  O   UNL     2     -11.316  16.122  70.526  1.00  0.00    -0.371 OA 
HETATM   13  H   UNL     2      -8.807  16.382  70.105  1.00  0.00     0.000 HD 
HETATM   14  O   UNL     2     -12.105  14.956  68.705  1.00  0.00    -0.266 OA 
HETATM   15  O   UNL     2      -8.782  16.113  69.194  1.00  0.00    -0.244 OA 
HETATM   16  C   UNL     2     -11.212  15.477  69.463  1.00  0.00    -0.299 C  
ENDBRANCH   8  11
ENDBRANCH   4   8
BRANCH   7  17
HETATM   17  C   UNL     3      -8.002  11.793  68.887  1.00  0.00     0.009 C  
HETATM   18  O   UNL     3      -9.085  12.321  68.031  1.00  0.00    -0.178 OA 
HETATM   19  H   UNL     3      -8.934  13.242  67.855  1.00  0.00     0.000 HD 
BRANCH  17  20
HETATM   20  C   UNL     3      -6.606  12.170  68.370  1.00  0.00    -0.059 C  
HETATM   21  C   UNL     3      -6.240  11.141  67.270  1.00  0.00    -0.073 C  
HETATM   22  O   UNL     3      -5.693  12.203  69.504  1.00  0.00    -0.072 OA 
HETATM   23  O   UNL     3      -7.156  11.078  66.371  1.00  0.00    -0.134 OA 
HETATM   24  O   UNL     3      -5.226  10.431  67.424  1.00  0.00    -0.040 OA 
HETATM   25  H   UNL     3      -4.829  12.436  69.185  1.00  0.00     0.000 HD 
ENDBRANCH  17  20
ENDBRANCH   7  17
TORSDOF 4
ENDMDL
MODEL      252
REMARK 921   NORMALIZED FREE ENERGY PREDICTED BY IDOCK:    0.88 KCAL/MOL
REMARK 922        TOTAL FREE ENERGY PREDICTED BY IDOCK:   -0.10 KCAL/MOL
REMARK 923 INTER-LIGAND FREE ENERGY PREDICTED BY IDOCK:   -3.84 KCAL/MOL
REMARK 924 INTRA-LIGAND FREE ENERGY PREDICTED BY IDOCK:    3.74 KCAL/MOL
REMARK 927      BINDING AFFINITY PREDICTED BY RF-SCORE:    0.00 PKD
ROOT
HETATM    1 CA   UNL     1      -7.057   9.394  65.646  1.00  0.00    -0.078 Ca 
HETATM    2  O   UNL     2      -7.891  11.979  66.359  1.00  0.00    -0.380 OA 
HETATM    3  O   UNL     3      -8.080   4.718  65.796  1.00  0.00    -0.108 OA 
HETATM    4  C   UNL     2      -9.353  11.891  66.409  1.00  0.00    -0.226 C  
HETATM    5  H   UNL     2      -7.720  12.907  66.252  1.00  0.00     0.000 HD 
HETATM    6  H   UNL     3      -8.117   3.990  65.187  1.00  0.00     0.000 HD 
HETATM    7  C   UNL     3      -9.090   5.682  65.525  1.00  0.00    -0.059 C  
ENDROOT
BRANCH   4   8
HETATM    8  C   UNL     2      -9.626  10.410  66.580  1.00  0.00    -0.177 C  
HETATM    9  H   UNL     2     -10.526   9.060  65.496  1.00  0.00     0.000 HD 
HETATM   10  O   UNL     2     -10.355   9.988  65.389  1.00  0.00    -0.245 OA 
BRANCH   8  11
HETATM   11  C   UNL     2     -10.244   9.964  67.886  1.00  0.00    -0.193 C  
HETATM   12  O   UNL     2     -11.817  10.786  69.469  1.00  0.00    -0.287 OA 
HETATM   13  H   UNL     2      -9.562   9.597  69.673  1.00  0.00     0.000 HD 
HETATM   14  O   UNL     2     -11.921  11.487  67.278  1.00  0.00    -0.605 OA 
HETATM   15  O   UNL     2      -9.173   9.877  68.853  1.00  0.00    -0.146 OA 
HETATM   16  C   UNL     2     -11.428  10.866  68.286  1.00  0.00    -0.305 C  
ENDBRANCH   8  11
ENDBRANCH   4   8
BRANCH   7  17
HETATM   17  C   UNL     3      -9.031   6.860  66.511  1.00  0.00    -0.150 C  
HETATM   18  O   UNL     3     -10.336   7.554  66.535  1.00  0.00    -0.474 OA 
HETATM   19  H   UNL     3     -10.300   8.282  67.144  1.00  0.00     0.000 HD 
BRANCH  17  20
HETATM   20  C   UNL     3      -7.851   7.828  66.348  1.00  0.00    -0.094 C  
HETATM   21  C   UNL     3      -7.150   7.463  65.014  1.00  0.00    -0.064 C  
HETATM   22  O   UNL     3      -7.008   7.723  67.530  1.00  0.00    -0.073 OA 
HETATM   23  O   UNL     3      -7.986   7.452  64.038  1.00  0.00    -0.136 OA 
HETATM   24  O   UNL     3      -5.953   7.112  65.040  1.00  0.00    -0.036 OA 
HETATM   25  H   UNL     3      -6.277   8.323  67.430  1.00  0.00     0.000 HD 
ENDBRANCH  17  20
ENDBRANCH   7  17
TORSDOF 4
ENDMDL
MODEL      253
REMARK 921   NORMALIZED FREE ENERGY PREDICTED BY IDOCK:    1.49 KCAL/MOL
REMARK 922        TOTAL FREE ENERGY PREDICTED BY IDOCK:    0.65 KCAL/MOL
REMARK 923 INTER-LIGAND FREE ENERGY PREDICTED BY IDOCK:   -5.14 KCAL/MOL
REMARK 924 INTRA-LIGAND FREE ENERGY PREDICTED BY IDOCK:    5.80 KCAL/MOL
REMARK 927      BINDING AFFINITY PREDICTED BY RF-SCORE:    0.00 PKD
ROOT
HETATM    1 CA   UNL     1     -10.164  17.337  67.628  1.00  0.00    -0.258 Ca 
HETATM    2  O   UNL     2      -8.841  19.545  66.504  1.00  0.00    -0.324 OA 
HETATM    3  O   UNL     3     -10.581  12.567  67.666  1.00  0.00    -0.212 OA 
HETATM    4  C   UNL     2      -7.527  19.025  66.118  1.00  0.00    -0.270 C  
HETATM    5  H   UNL     2      -8.709  20.483  66.564  1.00  0.00     0.000 HD 
HETATM    6  H   UNL     3     -10.599  11.871  68.313  1.00  0.00     0.000 HD 
HETATM    7  C   UNL     3      -9.305  13.191  67.601  1.00  0.00    -0.205 C  
ENDROOT
BRANCH   4   8
HETATM    8  C   UNL     2      -7.737  17.527  66.022  1.00  0.00    -0.202 C  
HETATM    9  H   UNL     2      -9.310  16.384  65.860  1.00  0.00     0.000 HD 
HETATM   10  O   UNL     2      -9.178  17.323  65.920  1.00  0.00    -0.507 OA 
BRANCH   8  11
HETATM   11  C   UNL     2      -7.051  16.663  67.056  1.00  0.00    -0.203 C  
HETATM   12  O   UNL     2      -6.450  16.794  69.353  1.00  0.00    -0.210 OA 
HETATM   13  H   UNL     2      -5.258  15.930  67.261  1.00  0.00     0.000 HD 
HETATM   14  O   UNL     2      -8.218  18.036  68.558  1.00  0.00    -0.296 OA 
HETATM   15  O   UNL     2      -5.688  16.474  66.612  1.00  0.00    -0.338 OA 
HETATM   16  C   UNL     2      -7.212  17.245  68.474  1.00  0.00    -0.224 C  
ENDBRANCH   8  11
ENDBRANCH   4   8
BRANCH   7  17
HETATM   17  C   UNL     3      -9.276  14.316  66.554  1.00  0.00    -0.235 C  
HETATM   18  O   UNL     3      -7.961  14.991  66.586  1.00  0.00    -0.331 OA 
HETATM   19  H   UNL     3      -7.943  15.687  65.940  1.00  0.00     0.000 HD 
BRANCH  17  20
HETATM   20  C   UNL     3     -10.448  15.307  66.584  1.00  0.00    -0.290 C  
HETATM   21  C   UNL     3     -11.066  15.230  68.003  1.00  0.00    -0.312 C  
HETATM   22  O   UNL     3     -11.360  14.967  65.501  1.00  0.00    -0.347 OA 
HETATM   23  O   UNL     3     -10.174  15.415  68.909  1.00  0.00    -0.203 OA 
HETATM   24  O   UNL     3     -12.261  14.892  68.122  1.00  0.00    -0.173 OA 
HETATM   25  H   UNL     3     -12.086  15.580  65.518  1.00  0.00     0.000 HD 
ENDBRANCH  17  20
ENDBRANCH   7  17
TORSDOF 4
ENDMDL
MODEL      254
REMARK 921   NORMALIZED FREE ENERGY PREDICTED BY IDOCK:    2.10 KCAL/MOL
REMARK 922        TOTAL FREE ENERGY PREDICTED BY IDOCK:    1.42 KCAL/MOL
REMARK 923 INTER-LIGAND FREE ENERGY PREDICTED BY IDOCK:   -1.79 KCAL/MOL
REMARK 924 INTRA-LIGAND FREE ENERGY PREDICTED BY IDOCK:    3.20 KCAL/MOL
REMARK 927      BINDING AFFINITY PREDICTED BY RF-SCORE:    0.00 PKD
ROOT
HETATM    1 CA   UNL     1      -9.921  12.825  64.072  1.00  0.00    -0.312 Ca 
HETATM    2  O   UNL     2     -12.382  12.155  62.898  1.00  0.00    -0.614 OA 
HETATM    3  O   UNL     3      -7.715  15.395  67.457  1.00  0.00    -0.148 OA 
HETATM    4  C   UNL     2     -13.358  12.312  63.980  1.00  0.00     0.409 C  
HETATM    5  H   UNL     2     -12.816  11.580  62.279  1.00  0.00     0.000 HD 
HETATM    6  H   UNL     3      -7.071  15.246  68.140  1.00  0.00     0.000 HD 
HETATM    7  C   UNL     3      -8.935  14.717  67.729  1.00  0.00    -0.182 C  
ENDROOT
BRANCH   4   8
HETATM    8  C   UNL     2     -12.666  13.230  64.968  1.00  0.00    -0.375 C  
HETATM    9  H   UNL     2     -11.550  14.821  64.793  1.00  0.00     0.000 HD 
HETATM   10  O   UNL     2     -11.983  14.246  64.174  1.00  0.00    -0.435 OA 
BRANCH   8  11
HETATM   11  C   UNL     2     -11.808  12.583  66.033  1.00  0.00    -0.418 C  
HETATM   12  O   UNL     2     -11.402  12.825  68.363  1.00  0.00    -0.253 OA 
HETATM   13  H   UNL     2      -9.892  12.419  66.339  1.00  0.00     0.000 HD 
HETATM   14  O   UNL     2     -13.416  13.500  67.475  1.00  0.00     2.905 OA 
HETATM   15  O   UNL     2     -10.430  12.825  65.670  1.00  0.00    -0.268 OA 
HETATM   16  C   UNL     2     -12.215  13.050  67.444  1.00  0.00    -0.097 C  
ENDBRANCH   8  11
ENDBRANCH   4   8
BRANCH   7  17
HETATM   17  C   UNL     3      -9.977  14.958  66.624  1.00  0.00    -0.258 C  
HETATM   18  O   UNL     3      -9.292  15.156  65.329  1.00  0.00    -0.310 OA 
HETATM   19  H   UNL     3      -9.935  15.304  64.647  1.00  0.00     0.000 HD 
BRANCH  17  20
HETATM   20  C   UNL     3     -11.032  16.037  66.904  1.00  0.00    -0.124 C  
HETATM   21  C   UNL     3     -10.273  17.286  67.418  1.00  0.00    -0.325 C  
HETATM   22  O   UNL     3     -12.009  15.489  67.835  1.00  0.00    -0.353 OA 
HETATM   23  O   UNL     3      -9.342  17.632  66.602  1.00  0.00    -0.262 OA 
HETATM   24  O   UNL     3     -10.536  17.725  68.556  1.00  0.00    -0.366 OA 
HETATM   25  H   UNL     3     -12.663  16.157  68.008  1.00  0.00     0.000 HD 
ENDBRANCH  17  20
ENDBRANCH   7  17
TORSDOF 4
ENDMDL
MODEL      255
REMARK 921   NORMALIZED FREE ENERGY PREDICTED BY IDOCK:    5.01 KCAL/MOL
REMARK 922        TOTAL FREE ENERGY PREDICTED BY IDOCK:    5.01 KCAL/MOL
REMARK 923 INTER-LIGAND FREE ENERGY PREDICTED BY IDOCK:   -2.90 KCAL/MOL
REMARK 924 INTRA-LIGAND FREE ENERGY PREDICTED BY IDOCK:    7.90 KCAL/MOL
REMARK 927      BINDING AFFINITY PREDICTED BY RF-SCORE:    0.00 PKD
ROOT
HETATM    1 CA   UNL     1     -11.011  12.747  67.650  1.00  0.00    -0.212 Ca 
HETATM    2  O   UNL     2     -11.036  15.217  68.986  1.00  0.00    -0.231 OA 
HETATM    3  O   UNL     3     -10.213  10.494  63.500  1.00  0.00    -0.478 OA 
HETATM    4  C   UNL     2     -10.042  16.026  68.276  1.00  0.00    -0.229 C  
HETATM    5  H   UNL     2     -11.117  15.641  69.832  1.00  0.00     0.000 HD 
HETATM    6  H   UNL     3      -9.725   9.738  63.198  1.00  0.00     0.000 HD 
HETATM    7  C   UNL     3      -9.350  11.531  63.950  1.00  0.00    -0.030 C  
ENDROOT
BRANCH   4   8
HETATM    8  C   UNL     2      -9.913  15.349  66.926  1.00  0.00    -0.243 C  
HETATM    9  H   UNL     2      -8.772  15.630  65.369  1.00  0.00     0.000 HD 
HETATM   10  O   UNL     2      -8.853  16.055  66.214  1.00  0.00    -0.295 OA 
BRANCH   8  11
HETATM   11  C   UNL     2     -11.181  15.148  66.127  1.00  0.00    -0.271 C  
HETATM   12  O   UNL     2     -12.176  16.005  64.145  1.00  0.00    -0.664 OA 
HETATM   13  H   UNL     2     -13.078  15.429  66.468  1.00  0.00     0.000 HD 
HETATM   14  O   UNL     2      -9.888  16.054  64.392  1.00  0.00     0.854 OA 
HETATM   15  O   UNL     2     -12.282  15.556  66.970  1.00  0.00     0.457 OA 
HETATM   16  C   UNL     2     -11.100  15.847  64.756  1.00  0.00    -0.384 C  
ENDBRANCH   8  11
ENDBRANCH   4   8
BRANCH   7  17
HETATM   17  C   UNL     3     -10.139  12.756  64.440  1.00  0.00    -0.249 C  
HETATM   18  O   UNL     3      -9.305  13.969  64.312  1.00  0.00     0.495 OA 
HETATM   19  H   UNL     3      -9.793  14.726  64.614  1.00  0.00     0.000 HD 
BRANCH  17  20
HETATM   20  C   UNL     3     -10.798  12.636  65.821  1.00  0.00    -0.274 C  
HETATM   21  C   UNL     3      -9.864  11.755  66.690  1.00  0.00    -0.202 C  
HETATM   22  O   UNL     3     -12.143  12.107  65.642  1.00  0.00    -0.545 OA 
HETATM   23  O   UNL     3      -8.664  12.217  66.696  1.00  0.00    -0.192 OA 
HETATM   24  O   UNL     3     -10.307  10.688  67.160  1.00  0.00    -0.206 OA 
HETATM   25  H   UNL     3     -12.551  12.033  66.497  1.00  0.00     0.000 HD 
ENDBRANCH  17  20
ENDBRANCH   7  17
TORSDOF 4
ENDMDL
MODEL      256
REMARK 921   NORMALIZED FREE ENERGY PREDICTED BY IDOCK:   10.48 KCAL/MOL
REMARK 922        TOTAL FREE ENERGY PREDICTED BY IDOCK:   11.75 KCAL/MOL
REMARK 923 INTER-LIGAND FREE ENERGY PREDICTED BY IDOCK:    0.59 KCAL/MOL
REMARK 924 INTRA-LIGAND FREE ENERGY PREDICTED BY IDOCK:   11.16 KCAL/MOL
REMARK 927      BINDING AFFINITY PREDICTED BY RF-SCORE:    0.00 PKD
ROOT
HETATM    1 CA   UNL     1      -7.141  10.560  66.177  1.00  0.00    -0.088 Ca 
HETATM    2  O   UNL     2      -7.469   8.266  67.763  1.00  0.00    -0.091 OA 
HETATM    3  O   UNL     3      -6.347  15.282  66.156  1.00  0.00     1.757 OA 
HETATM    4  C   UNL     2      -6.696   8.547  68.976  1.00  0.00    -0.052 C  
HETATM    5  H   UNL     2      -7.544   7.319  67.752  1.00  0.00     0.000 HD 
HETATM    6  H   UNL     3      -5.767  15.892  65.717  1.00  0.00     0.000 HD 
HETATM    7  C   UNL     3      -5.637  14.423  67.039  1.00  0.00     1.297 C  
ENDROOT
BRANCH   4   8
HETATM    8  C   UNL     2      -6.575  10.058  68.993  1.00  0.00    -0.052 C  
HETATM    9  H   UNL     2      -6.965  11.437  70.316  1.00  0.00     0.000 HD 
HETATM   10  O   UNL     2      -7.041  10.490  70.306  1.00  0.00    -0.228 OA 
BRANCH   8  11
HETATM   11  C   UNL     2      -7.177  10.815  67.831  1.00  0.00    -0.087 C  
HETATM   12  O   UNL     2      -9.331  11.213  66.906  1.00  0.00    -0.171 OA 
HETATM   13  H   UNL     2      -7.043  10.688  65.892  1.00  0.00     0.000 HD 
HETATM   14  O   UNL     2      -9.119  10.708  69.142  1.00  0.00    -0.181 OA 
HETATM   15  O   UNL     2      -6.665  10.211  66.621  1.00  0.00    -0.074 OA 
HETATM   16  C   UNL     2      -8.713  10.885  67.939  1.00  0.00    -0.131 C  
ENDBRANCH   8  11
ENDBRANCH   4   8
BRANCH   7  17
HETATM   17  C   UNL     3      -6.577  13.436  67.750  1.00  0.00    -0.164 C  
HETATM   18  O   UNL     3      -7.580  12.926  66.792  1.00  0.00    -0.375 OA 
HETATM   19  H   UNL     3      -8.161  12.317  67.231  1.00  0.00     0.000 HD 
BRANCH  17  20
HETATM   20  C   UNL     3      -7.209  13.920  69.063  1.00  0.00    -0.078 C  
HETATM   21  C   UNL     3      -6.684  15.358  69.312  1.00  0.00    -0.150 C  
HETATM   22  O   UNL     3      -6.881  12.961  70.108  1.00  0.00    -0.279 OA 
HETATM   23  O   UNL     3      -6.897  16.112  68.293  1.00  0.00    -0.118 OA 
HETATM   24  O   UNL     3      -6.036  15.590  70.352  1.00  0.00    -0.140 OA 
HETATM   25  H   UNL     3      -7.272  13.260  70.921  1.00  0.00     0.000 HD 
ENDBRANCH  17  20
ENDBRANCH   7  17
TORSDOF 4
ENDMDL
MODEL      257
REMARK 921   NORMALIZED FREE ENERGY PREDICTED BY IDOCK:   12.47 KCAL/MOL
REMARK 922        TOTAL FREE ENERGY PREDICTED BY IDOCK:   14.21 KCAL/MOL
REMARK 923 INTER-LIGAND FREE ENERGY PREDICTED BY IDOCK:    5.07 KCAL/MOL
REMARK 924 INTRA-LIGAND FREE ENERGY PREDICTED BY IDOCK:    9.14 KCAL/MOL
REMARK 927      BINDING AFFINITY PREDICTED BY RF-SCORE:    0.00 PKD
ROOT
HETATM    1 CA   UNL     1      -6.887  13.873  66.983  1.00  0.00    -0.169 Ca 
HETATM    2  O   UNL     2      -7.061  12.087  64.823  1.00  0.00     2.229 OA 
HETATM    3  O   UNL     3      -9.319  16.640  70.042  1.00  0.00     0.605 OA 
HETATM    4  C   UNL     2      -8.374  11.455  64.976  1.00  0.00     0.509 C  
HETATM    5  H   UNL     2      -6.576  11.480  64.277  1.00  0.00     0.000 HD 
HETATM    6  H   UNL     3      -9.348  16.788  70.980  1.00  0.00     0.000 HD 
HETATM    7  C   UNL     3      -9.783  15.339  69.702  1.00  0.00    -0.200 C  
ENDROOT
BRANCH   4   8
HETATM    8  C   UNL     2      -9.148  12.423  65.848  1.00  0.00     0.099 C  
HETATM    9  H   UNL     2      -8.653  13.667  67.268  1.00  0.00     0.000 HD 
HETATM   10  O   UNL     2      -8.168  13.060  66.722  1.00  0.00    -0.046 OA 
BRANCH   8  11
HETATM   11  C   UNL     2     -10.372  11.891  66.559  1.00  0.00    -0.216 C  
HETATM   12  O   UNL     2     -12.437  10.858  65.991  1.00  0.00     2.407 OA 
HETATM   13  H   UNL     2     -11.774  12.681  67.657  1.00  0.00     0.000 HD 
HETATM   14  O   UNL     2     -10.628  10.656  64.582  1.00  0.00    -0.296 OA 
HETATM   15  O   UNL     2     -11.005  13.016  67.211  1.00  0.00    -0.255 OA 
HETATM   16  C   UNL     2     -11.273  11.085  65.603  1.00  0.00     0.169 C  
ENDBRANCH   8  11
ENDBRANCH   4   8
BRANCH   7  17
HETATM   17  C   UNL     3      -9.736  15.099  68.184  1.00  0.00    -0.217 C  
HETATM   18  O   UNL     3      -8.578  15.808  67.603  1.00  0.00    -0.159 OA 
HETATM   19  H   UNL     3      -8.549  15.660  66.665  1.00  0.00     0.000 HD 
BRANCH  17  20
HETATM   20  C   UNL     3     -11.037  15.361  67.411  1.00  0.00    -0.311 C  
HETATM   21  C   UNL     3     -12.146  15.606  68.466  1.00  0.00     0.011 C  
HETATM   22  O   UNL     3     -11.276  14.231  66.524  1.00  0.00    -0.316 OA 
HETATM   23  O   UNL     3     -11.805  16.531  69.291  1.00  0.00    -0.016 OA 
HETATM   24  O   UNL     3     -13.134  14.846  68.489  1.00  0.00     1.245 OA 
HETATM   25  H   UNL     3     -12.081  14.393  66.046  1.00  0.00     0.000 HD 
ENDBRANCH  17  20
ENDBRANCH   7  17
TORSDOF 4
ENDMDL
MODEL      258
REMARK 921   NORMALIZED FREE ENERGY PREDICTED BY IDOCK:   12.82 KCAL/MOL
REMARK 922        TOTAL FREE ENERGY PREDICTED BY IDOCK:   14.64 KCAL/MOL
REMARK 923 INTER-LIGAND FREE ENERGY PREDICTED BY IDOCK:   14.14 KCAL/MOL
REMARK 924 INTRA-LIGAND FREE ENERGY PREDICTED BY IDOCK:    0.50 KCAL/MOL
REMARK 927      BINDING AFFINITY PREDICTED BY RF-SCORE:    0.00 PKD
ROOT
HETATM    1 CA   UNL     1      -7.803  10.096  67.298  1.00  0.00    -0.095 Ca 
HETATM    2  O   UNL     2      -7.960   7.891  69.030  1.00  0.00    -0.117 OA 
HETATM    3  O   UNL     3      -6.930  14.790  66.929  1.00  0.00    -0.314 OA 
HETATM    4  C   UNL     2      -7.028   8.211  70.114  1.00  0.00    -0.040 C  
HETATM    5  H   UNL     2      -8.054   6.947  69.078  1.00  0.00     0.000 HD 
HETATM    6  H   UNL     3      -6.401  15.362  66.387  1.00  0.00     0.000 HD 
HETATM    7  C   UNL     3      -6.125  13.957  67.754  1.00  0.00    -0.129 C  
ENDROOT
BRANCH   4   8
HETATM    8  C   UNL     2      -6.878   9.717  70.037  1.00  0.00    -0.085 C  
HETATM    9  H   UNL     2      -5.619  10.913  69.148  1.00  0.00     0.000 HD 
HETATM   10  O   UNL     2      -5.713   9.969  69.196  1.00  0.00    -0.035 OA 
BRANCH   8  11
HETATM   11  C   UNL     2      -6.889  10.483  71.341  1.00  0.00     1.618 C  
HETATM   12  O   UNL     2      -6.218  10.145  73.597  1.00  0.00     0.417 OA 
HETATM   13  H   UNL     2      -8.282  11.189  72.505  1.00  0.00     0.000 HD 
HETATM   14  O   UNL     2      -5.176   8.984  71.904  1.00  0.00    -0.040 OA 
HETATM   15  O   UNL     2      -8.275  10.708  71.687  1.00  0.00     3.919 OA 
HETATM   16  C   UNL     2      -6.043   9.777  72.417  1.00  0.00     0.530 C  
ENDBRANCH   8  11
ENDBRANCH   4   8
BRANCH   7  17
HETATM   17  C   UNL     3      -6.981  13.030  68.633  1.00  0.00    -0.102 C  
HETATM   18  O   UNL     3      -7.428  11.866  67.840  1.00  0.00    -0.099 OA 
HETATM   19  H   UNL     3      -7.957  11.293  68.383  1.00  0.00     0.000 HD 
BRANCH  17  20
HETATM   20  C   UNL     3      -8.129  13.692  69.407  1.00  0.00     0.645 C  
HETATM   21  C   UNL     3      -7.540  14.180  70.756  1.00  0.00     2.204 C  
HETATM   22  O   UNL     3      -9.214  12.728  69.528  1.00  0.00     0.492 OA 
HETATM   23  O   UNL     3      -6.508  14.923  70.569  1.00  0.00    -0.124 OA 
HETATM   24  O   UNL     3      -8.014  13.730  71.818  1.00  0.00     5.498 OA 
HETATM   25  H   UNL     3      -9.925  13.138  70.007  1.00  0.00     0.000 HD 
ENDBRANCH  17  20
ENDBRANCH   7  17
TORSDOF 4
ENDMDL
